MODEL 1
REMARK VINA RESULT:      -8.7      0.000      0.000
REMARK  9 active torsions:
REMARK  status: ('A' for Active; 'I' for Inactive)
REMARK    1  A    between atoms: C_7  and  C_8 
REMARK    2  A    between atoms: C_9  and  O_10 
REMARK    3  A    between atoms: C_13  and  N_14 
REMARK    4  A    between atoms: N_14  and  C_15 
REMARK    5  A    between atoms: C_15  and  N_16 
REMARK       I    between atoms: N_16  and  C_17 
REMARK    6  A    between atoms: C_17  and  C_18 
REMARK    7  A    between atoms: C_21  and  O_22 
REMARK    8  A    between atoms: O_22  and  C_23 
REMARK    9  A    between atoms: C_23  and  C_24 
ROOT
HETATM    1  C   UNL     1      40.595 -14.170   4.331  1.00  0.00     0.052 A 
HETATM    2  C   UNL     1      40.525 -13.779   5.675  1.00  0.00     0.080 A 
HETATM    3  C   UNL     1      39.804 -12.649   6.055  1.00  0.00     0.040 A 
HETATM    4  C   UNL     1      39.163 -11.870   5.088  1.00  0.00     0.032 A 
HETATM    5  C   UNL     1      39.213 -12.237   3.740  1.00  0.00     0.035 A 
HETATM    6  C   UNL     1      39.928 -13.384   3.373  1.00  0.00     0.048 A 
ENDROOT
BRANCH   5   7
HETATM    7  N   UNL     1      38.632 -11.362   2.793  1.00  0.00    -0.337 N 
HETATM    8  H   UNL     1      37.676 -11.078   2.980  1.00  0.00     0.168 HD
BRANCH   7   9
HETATM    9  C   UNL     1      39.182 -10.895   1.625  1.00  0.00     0.157 C 
HETATM   10  S   UNL     1      38.812 -11.419   0.078  1.00  0.00    -0.047 SA
BRANCH   9  11
HETATM   11  N   UNL     1      40.117  -9.889   1.745  1.00  0.00    -0.201 NA
HETATM   12  C   UNL     1      41.468 -10.149   1.692  1.00  0.00     0.237 C 
HETATM   13  O   UNL     1      42.115 -10.055   0.657  1.00  0.00    -0.274 OA
HETATM   14  H   UNL     1      39.868  -9.194   1.048  1.00  0.00     0.139 HD
BRANCH  12  15
HETATM   15  C   UNL     1      42.146 -10.439   2.979  1.00  0.00     0.026 A 
HETATM   16  C   UNL     1      41.824  -9.672   4.104  1.00  0.00     0.019 A 
HETATM   17  C   UNL     1      42.362 -10.000   5.353  1.00  0.00     0.038 A 
HETATM   18  C   UNL     1      43.194 -11.112   5.487  1.00  0.00     0.068 A 
HETATM   19  C   UNL     1      43.535 -11.857   4.354  1.00  0.00     0.038 A 
HETATM   20  C   UNL     1      43.017 -11.525   3.099  1.00  0.00     0.019 A 
BRANCH  18  21
HETATM   21  O   UNL     1      43.728 -11.575   6.659  1.00  0.00    -0.351 OA
BRANCH  21  22
HETATM   22  C   UNL     1      45.149 -11.485   6.798  1.00  0.00     0.179 C 
BRANCH  22  23
HETATM   23  C   UNL     1      45.481 -10.781   8.124  1.00  0.00     0.002 C 
HETATM   24  C   UNL     1      46.109  -9.414   7.857  1.00  0.00     0.011 C 
HETATM   25  C   UNL     1      44.233 -10.628   8.997  1.00  0.00     0.011 C 
ENDBRANCH  22  23
ENDBRANCH  21  22
ENDBRANCH  18  21
ENDBRANCH  12  15
ENDBRANCH   9  11
ENDBRANCH   7   9
ENDBRANCH   5   7
BRANCH   1  26
HETATM   26  C   UNL     1      41.391 -15.325   3.927  1.00  0.00     0.183 A 
HETATM   27  O   UNL     1      42.470 -15.645   4.706  1.00  0.00    -0.288 OA
HETATM   28  C   UNL     1      42.979 -16.771   4.125  1.00  0.00     0.112 A 
HETATM   29  C   UNL     1      42.186 -17.071   3.030  1.00  0.00     0.094 A 
HETATM   30  C   UNL     1      44.084 -17.511   4.546  1.00  0.00    -0.025 A 
HETATM   31  C   UNL     1      42.468 -18.221   2.281  1.00  0.00     0.041 A 
HETATM   32  N   UNL     1      41.200 -16.122   2.887  1.00  0.00    -0.221 NA
HETATM   33  C   UNL     1      43.551 -19.028   2.671  1.00  0.00    -0.059 A 
HETATM   34  C   UNL     1      43.846 -20.306   1.936  1.00  0.00     0.048 C 
HETATM   35  C   UNL     1      44.336 -18.669   3.784  1.00  0.00     0.016 A 
HETATM   36  C   UNL     1      44.932 -17.159   5.724  1.00  0.00     0.051 C 
ENDBRANCH   1  26
BRANCH   2  37
HETATM   37  O   UNL     1      41.162 -14.457   6.682  1.00  0.00    -0.360 OA
HETATM   38  H   UNL     1      41.872 -13.884   7.042  1.00  0.00     0.217 HD
ENDBRANCH   2  37
TORSDOF 9
ENDMDL
MODEL 2
REMARK VINA RESULT:      -8.3      3.745      9.121
REMARK  9 active torsions:
REMARK  status: ('A' for Active; 'I' for Inactive)
REMARK    1  A    between atoms: C_7  and  C_8 
REMARK    2  A    between atoms: C_9  and  O_10 
REMARK    3  A    between atoms: C_13  and  N_14 
REMARK    4  A    between atoms: N_14  and  C_15 
REMARK    5  A    between atoms: C_15  and  N_16 
REMARK       I    between atoms: N_16  and  C_17 
REMARK    6  A    between atoms: C_17  and  C_18 
REMARK    7  A    between atoms: C_21  and  O_22 
REMARK    8  A    between atoms: O_22  and  C_23 
REMARK    9  A    between atoms: C_23  and  C_24 
ROOT
HETATM    1  C   UNL     1      43.317 -10.077   8.838  1.00  0.00     0.052 A 
HETATM    2  C   UNL     1      44.544 -10.707   8.589  1.00  0.00     0.080 A 
HETATM    3  C   UNL     1      44.813 -11.287   7.351  1.00  0.00     0.040 A 
HETATM    4  C   UNL     1      43.843 -11.272   6.346  1.00  0.00     0.032 A 
HETATM    5  C   UNL     1      42.612 -10.649   6.564  1.00  0.00     0.035 A 
HETATM    6  C   UNL     1      42.359 -10.057   7.807  1.00  0.00     0.048 A 
ENDROOT
BRANCH   5   7
HETATM    7  N   UNL     1      41.630 -10.748   5.550  1.00  0.00    -0.337 N 
HETATM    8  H   UNL     1      40.781 -10.215   5.702  1.00  0.00     0.168 HD
BRANCH   7   9
HETATM    9  C   UNL     1      41.663 -11.521   4.415  1.00  0.00     0.157 C 
HETATM   10  S   UNL     1      42.585 -11.231   3.047  1.00  0.00    -0.047 SA
BRANCH   9  11
HETATM   11  N   UNL     1      40.869 -12.648   4.415  1.00  0.00    -0.201 NA
HETATM   12  C   UNL     1      40.843 -13.513   5.487  1.00  0.00     0.237 C 
HETATM   13  O   UNL     1      40.004 -13.431   6.375  1.00  0.00    -0.274 OA
HETATM   14  H   UNL     1      39.930 -12.326   4.204  1.00  0.00     0.139 HD
BRANCH  12  15
HETATM   15  C   UNL     1      41.812 -14.634   5.467  1.00  0.00     0.026 A 
HETATM   16  C   UNL     1      42.182 -15.234   6.675  1.00  0.00     0.019 A 
HETATM   17  C   UNL     1      43.003 -16.366   6.674  1.00  0.00     0.038 A 
HETATM   18  C   UNL     1      43.428 -16.922   5.466  1.00  0.00     0.068 A 
HETATM   19  C   UNL     1      43.078 -16.302   4.262  1.00  0.00     0.038 A 
HETATM   20  C   UNL     1      42.274 -15.159   4.256  1.00  0.00     0.019 A 
BRANCH  18  21
HETATM   21  O   UNL     1      44.174 -18.060   5.328  1.00  0.00    -0.351 OA
BRANCH  21  22
HETATM   22  C   UNL     1      44.410 -18.517   3.994  1.00  0.00     0.179 C 
BRANCH  22  23
HETATM   23  C   UNL     1      43.640 -19.828   3.767  1.00  0.00     0.002 C 
HETATM   24  C   UNL     1      43.810 -20.302   2.325  1.00  0.00     0.011 C 
HETATM   25  C   UNL     1      44.102 -20.917   4.739  1.00  0.00     0.011 C 
ENDBRANCH  22  23
ENDBRANCH  21  22
ENDBRANCH  18  21
ENDBRANCH  12  15
ENDBRANCH   9  11
ENDBRANCH   7   9
ENDBRANCH   5   7
BRANCH   1  26
HETATM   26  C   UNL     1      43.016  -9.514  10.150  1.00  0.00     0.183 A 
HETATM   27  O   UNL     1      41.937 -10.027  10.819  1.00  0.00    -0.288 OA
HETATM   28  C   UNL     1      41.932  -9.358  12.009  1.00  0.00     0.112 A 
HETATM   29  C   UNL     1      43.004  -8.480  11.998  1.00  0.00     0.094 A 
HETATM   30  C   UNL     1      41.036  -9.521  13.065  1.00  0.00    -0.025 A 
HETATM   31  C   UNL     1      43.256  -7.701  13.135  1.00  0.00     0.041 A 
HETATM   32  N   UNL     1      43.665  -8.558  10.794  1.00  0.00    -0.221 NA
HETATM   33  C   UNL     1      42.406  -7.840  14.247  1.00  0.00    -0.059 A 
HETATM   34  C   UNL     1      42.680  -7.073  15.510  1.00  0.00     0.048 C 
HETATM   35  C   UNL     1      41.321  -8.736  14.200  1.00  0.00     0.016 A 
HETATM   36  C   UNL     1      39.879 -10.465  13.047  1.00  0.00     0.051 C 
ENDBRANCH   1  26
BRANCH   2  37
HETATM   37  O   UNL     1      45.533 -10.809   9.534  1.00  0.00    -0.360 OA
HETATM   38  H   UNL     1      46.141 -11.532   9.270  1.00  0.00     0.217 HD
ENDBRANCH   2  37
TORSDOF 9
ENDMDL
MODEL 3
REMARK VINA RESULT:      -8.2      3.432      9.135
REMARK  9 active torsions:
REMARK  status: ('A' for Active; 'I' for Inactive)
REMARK    1  A    between atoms: C_7  and  C_8 
REMARK    2  A    between atoms: C_9  and  O_10 
REMARK    3  A    between atoms: C_13  and  N_14 
REMARK    4  A    between atoms: N_14  and  C_15 
REMARK    5  A    between atoms: C_15  and  N_16 
REMARK       I    between atoms: N_16  and  C_17 
REMARK    6  A    between atoms: C_17  and  C_18 
REMARK    7  A    between atoms: C_21  and  O_22 
REMARK    8  A    between atoms: O_22  and  C_23 
REMARK    9  A    between atoms: C_23  and  C_24 
ROOT
HETATM    1  C   UNL     1      43.373 -10.140   8.114  1.00  0.00     0.052 A 
HETATM    2  C   UNL     1      44.495 -10.932   7.833  1.00  0.00     0.080 A 
HETATM    3  C   UNL     1      44.562 -11.690   6.666  1.00  0.00     0.040 A 
HETATM    4  C   UNL     1      43.489 -11.692   5.770  1.00  0.00     0.032 A 
HETATM    5  C   UNL     1      42.359 -10.909   6.022  1.00  0.00     0.035 A 
HETATM    6  C   UNL     1      42.311 -10.141   7.192  1.00  0.00     0.048 A 
ENDROOT
BRANCH   5   7
HETATM    7  N   UNL     1      41.263 -11.024   5.136  1.00  0.00    -0.337 N 
HETATM    8  H   UNL     1      40.451 -10.459   5.360  1.00  0.00     0.168 HD
BRANCH   7   9
HETATM    9  C   UNL     1      41.143 -11.846   4.042  1.00  0.00     0.157 C 
HETATM   10  S   UNL     1      41.851 -11.609   2.543  1.00  0.00    -0.047 SA
BRANCH   9  11
HETATM   11  N   UNL     1      40.377 -12.980   4.207  1.00  0.00    -0.201 NA
HETATM   12  C   UNL     1      40.585 -13.846   5.258  1.00  0.00     0.237 C 
HETATM   13  O   UNL     1      39.953 -13.773   6.304  1.00  0.00    -0.274 OA
HETATM   14  H   UNL     1      39.411 -12.667   4.201  1.00  0.00     0.139 HD
BRANCH  12  15
HETATM   15  C   UNL     1      41.537 -14.959   5.030  1.00  0.00     0.026 A 
HETATM   16  C   UNL     1      42.448 -15.291   6.039  1.00  0.00     0.019 A 
HETATM   17  C   UNL     1      43.277 -16.409   5.896  1.00  0.00     0.038 A 
HETATM   18  C   UNL     1      43.175 -17.216   4.761  1.00  0.00     0.068 A 
HETATM   19  C   UNL     1      42.284 -16.862   3.743  1.00  0.00     0.038 A 
HETATM   20  C   UNL     1      41.465 -15.736   3.870  1.00  0.00     0.019 A 
BRANCH  18  21
HETATM   21  O   UNL     1      43.878 -18.367   4.532  1.00  0.00    -0.351 OA
BRANCH  21  22
HETATM   22  C   UNL     1      44.293 -18.610   3.186  1.00  0.00     0.179 C 
BRANCH  22  23
HETATM   23  C   UNL     1      44.035 -20.085   2.839  1.00  0.00     0.002 C 
HETATM   24  C   UNL     1      43.806 -20.899   4.112  1.00  0.00     0.011 C 
HETATM   25  C   UNL     1      42.837 -20.231   1.897  1.00  0.00     0.011 C 
ENDBRANCH  22  23
ENDBRANCH  21  22
ENDBRANCH  18  21
ENDBRANCH  12  15
ENDBRANCH   9  11
ENDBRANCH   7   9
ENDBRANCH   5   7
BRANCH   1  26
HETATM   26  C   UNL     1      43.281  -9.386   9.360  1.00  0.00     0.183 A 
HETATM   27  O   UNL     1      42.856  -8.088   9.277  1.00  0.00    -0.288 OA
HETATM   28  C   UNL     1      42.823  -7.663  10.574  1.00  0.00     0.112 A 
HETATM   29  C   UNL     1      43.228  -8.721  11.371  1.00  0.00     0.094 A 
HETATM   30  C   UNL     1      42.440  -6.405  11.040  1.00  0.00    -0.025 A 
HETATM   31  C   UNL     1      43.235  -8.562  12.762  1.00  0.00     0.041 A 
HETATM   32  N   UNL     1      43.557  -9.803  10.586  1.00  0.00    -0.221 NA
HETATM   33  C   UNL     1      42.831  -7.326  13.299  1.00  0.00    -0.059 A 
HETATM   34  C   UNL     1      42.759  -7.135  14.788  1.00  0.00     0.048 C 
HETATM   35  C   UNL     1      42.443  -6.277  12.444  1.00  0.00     0.016 A 
HETATM   36  C   UNL     1      42.020  -5.275  10.160  1.00  0.00     0.051 C 
ENDBRANCH   1  26
BRANCH   2  37
HETATM   37  O   UNL     1      45.570 -11.026   8.679  1.00  0.00    -0.360 OA
HETATM   38  H   UNL     1      45.405 -11.757   9.312  1.00  0.00     0.217 HD
ENDBRANCH   2  37
TORSDOF 9
ENDMDL
MODEL 4
REMARK VINA RESULT:      -8.1      5.209      7.213
REMARK  9 active torsions:
REMARK  status: ('A' for Active; 'I' for Inactive)
REMARK    1  A    between atoms: C_7  and  C_8 
REMARK    2  A    between atoms: C_9  and  O_10 
REMARK    3  A    between atoms: C_13  and  N_14 
REMARK    4  A    between atoms: N_14  and  C_15 
REMARK    5  A    between atoms: C_15  and  N_16 
REMARK       I    between atoms: N_16  and  C_17 
REMARK    6  A    between atoms: C_17  and  C_18 
REMARK    7  A    between atoms: C_21  and  O_22 
REMARK    8  A    between atoms: O_22  and  C_23 
REMARK    9  A    between atoms: C_23  and  C_24 
ROOT
HETATM    1  C   UNL     1      43.183 -13.073   5.835  1.00  0.00     0.052 A 
HETATM    2  C   UNL     1      42.660 -12.172   4.897  1.00  0.00     0.080 A 
HETATM    3  C   UNL     1      42.503 -10.824   5.210  1.00  0.00     0.040 A 
HETATM    4  C   UNL     1      42.839 -10.358   6.484  1.00  0.00     0.032 A 
HETATM    5  C   UNL     1      43.365 -11.232   7.439  1.00  0.00     0.035 A 
HETATM    6  C   UNL     1      43.532 -12.582   7.106  1.00  0.00     0.048 A 
ENDROOT
BRANCH   5   7
HETATM    7  N   UNL     1      43.595 -10.731   8.741  1.00  0.00    -0.337 N 
HETATM    8  H   UNL     1      42.811 -10.784   9.381  1.00  0.00     0.168 HD
BRANCH   7   9
HETATM    9  C   UNL     1      44.731 -10.131   9.227  1.00  0.00     0.157 C 
HETATM   10  S   UNL     1      45.840  -9.244   8.338  1.00  0.00    -0.047 SA
BRANCH   9  11
HETATM   11  N   UNL     1      44.966 -10.264  10.579  1.00  0.00    -0.201 NA
HETATM   12  C   UNL     1      43.989 -10.706  11.442  1.00  0.00     0.237 C 
HETATM   13  O   UNL     1      43.884 -11.881  11.769  1.00  0.00    -0.274 OA
HETATM   14  H   UNL     1      45.793 -10.848  10.660  1.00  0.00     0.139 HD
BRANCH  12  15
HETATM   15  C   UNL     1      43.124  -9.673  12.060  1.00  0.00     0.026 A 
HETATM   16  C   UNL     1      41.885 -10.051  12.588  1.00  0.00     0.019 A 
HETATM   17  C   UNL     1      41.103  -9.119  13.279  1.00  0.00     0.038 A 
HETATM   18  C   UNL     1      41.571  -7.818  13.473  1.00  0.00     0.068 A 
HETATM   19  C   UNL     1      42.797  -7.439  12.919  1.00  0.00     0.038 A 
HETATM   20  C   UNL     1      43.576  -8.358  12.211  1.00  0.00     0.019 A 
BRANCH  18  21
HETATM   21  O   UNL     1      40.935  -6.838  14.184  1.00  0.00    -0.351 OA
BRANCH  21  22
HETATM   22  C   UNL     1      41.616  -6.334  15.336  1.00  0.00     0.179 C 
BRANCH  22  23
HETATM   23  C   UNL     1      41.118  -7.082  16.583  1.00  0.00     0.002 C 
HETATM   24  C   UNL     1      42.137  -6.967  17.715  1.00  0.00     0.011 C 
HETATM   25  C   UNL     1      39.757  -6.550  17.041  1.00  0.00     0.011 C 
ENDBRANCH  22  23
ENDBRANCH  21  22
ENDBRANCH  18  21
ENDBRANCH  12  15
ENDBRANCH   9  11
ENDBRANCH   7   9
ENDBRANCH   5   7
BRANCH   1  26
HETATM   26  C   UNL     1      43.300 -14.495   5.524  1.00  0.00     0.183 A 
HETATM   27  O   UNL     1      43.197 -14.858   4.208  1.00  0.00    -0.288 OA
HETATM   28  C   UNL     1      43.392 -16.210   4.219  1.00  0.00     0.112 A 
HETATM   29  C   UNL     1      43.602 -16.591   5.534  1.00  0.00     0.094 A 
HETATM   30  C   UNL     1      43.401 -17.069   3.121  1.00  0.00    -0.025 A 
HETATM   31  C   UNL     1      43.880 -17.934   5.816  1.00  0.00     0.041 A 
HETATM   32  N   UNL     1      43.502 -15.498   6.363  1.00  0.00    -0.221 NA
HETATM   33  C   UNL     1      43.932 -18.849   4.749  1.00  0.00    -0.059 A 
HETATM   34  C   UNL     1      44.293 -20.286   5.000  1.00  0.00     0.048 C 
HETATM   35  C   UNL     1      43.696 -18.412   3.432  1.00  0.00     0.016 A 
HETATM   36  C   UNL     1      43.158 -16.635   1.712  1.00  0.00     0.051 C 
ENDBRANCH   1  26
BRANCH   2  37
HETATM   37  O   UNL     1      42.260 -12.553   3.642  1.00  0.00    -0.360 OA
HETATM   38  H   UNL     1      42.894 -12.186   2.989  1.00  0.00     0.217 HD
ENDBRANCH   2  37
TORSDOF 9
ENDMDL
MODEL 5
REMARK VINA RESULT:      -8.1      4.248      5.797
REMARK  9 active torsions:
REMARK  status: ('A' for Active; 'I' for Inactive)
REMARK    1  A    between atoms: C_7  and  C_8 
REMARK    2  A    between atoms: C_9  and  O_10 
REMARK    3  A    between atoms: C_13  and  N_14 
REMARK    4  A    between atoms: N_14  and  C_15 
REMARK    5  A    between atoms: C_15  and  N_16 
REMARK       I    between atoms: N_16  and  C_17 
REMARK    6  A    between atoms: C_17  and  C_18 
REMARK    7  A    between atoms: C_21  and  O_22 
REMARK    8  A    between atoms: O_22  and  C_23 
REMARK    9  A    between atoms: C_23  and  C_24 
ROOT
HETATM    1  C   UNL     1      42.374 -14.343   5.088  1.00  0.00     0.052 A 
HETATM    2  C   UNL     1      41.130 -13.775   4.780  1.00  0.00     0.080 A 
HETATM    3  C   UNL     1      40.738 -12.562   5.341  1.00  0.00     0.040 A 
HETATM    4  C   UNL     1      41.576 -11.907   6.247  1.00  0.00     0.032 A 
HETATM    5  C   UNL     1      42.824 -12.447   6.571  1.00  0.00     0.035 A 
HETATM    6  C   UNL     1      43.212 -13.661   5.989  1.00  0.00     0.048 A 
ENDROOT
BRANCH   5   7
HETATM    7  N   UNL     1      43.589 -11.797   7.567  1.00  0.00    -0.337 N 
HETATM    8  H   UNL     1      43.450 -12.125   8.517  1.00  0.00     0.168 HD
BRANCH   7   9
HETATM    9  C   UNL     1      44.453 -10.741   7.413  1.00  0.00     0.157 C 
HETATM   10  S   UNL     1      46.086 -10.843   7.051  1.00  0.00    -0.047 SA
BRANCH   9  11
HETATM   11  N   UNL     1      43.916  -9.480   7.558  1.00  0.00    -0.201 NA
HETATM   12  C   UNL     1      44.238  -8.676   8.628  1.00  0.00     0.237 C 
HETATM   13  O   UNL     1      45.127  -7.836   8.573  1.00  0.00    -0.274 OA
HETATM   14  H   UNL     1      44.108  -8.995   6.687  1.00  0.00     0.139 HD
BRANCH  12  15
HETATM   15  C   UNL     1      43.380  -8.786   9.832  1.00  0.00     0.026 A 
HETATM   16  C   UNL     1      43.983  -8.868  11.091  1.00  0.00     0.019 A 
HETATM   17  C   UNL     1      43.197  -8.856  12.248  1.00  0.00     0.038 A 
HETATM   18  C   UNL     1      41.810  -8.729  12.151  1.00  0.00     0.068 A 
HETATM   19  C   UNL     1      41.210  -8.677  10.889  1.00  0.00     0.038 A 
HETATM   20  C   UNL     1      41.988  -8.708   9.727  1.00  0.00     0.019 A 
BRANCH  18  21
HETATM   21  O   UNL     1      40.940  -8.639  13.203  1.00  0.00    -0.351 OA
BRANCH  21  22
HETATM   22  C   UNL     1      41.486  -8.847  14.508  1.00  0.00     0.179 C 
BRANCH  22  23
HETATM   23  C   UNL     1      41.446  -7.523  15.287  1.00  0.00     0.002 C 
HETATM   24  C   UNL     1      41.026  -7.770  16.735  1.00  0.00     0.011 C 
HETATM   25  C   UNL     1      42.803  -6.815  15.245  1.00  0.00     0.011 C 
ENDBRANCH  22  23
ENDBRANCH  21  22
ENDBRANCH  18  21
ENDBRANCH  12  15
ENDBRANCH   9  11
ENDBRANCH   7   9
ENDBRANCH   5   7
BRANCH   1  26
HETATM   26  C   UNL     1      42.763 -15.639   4.540  1.00  0.00     0.183 A 
HETATM   27  O   UNL     1      43.002 -16.650   5.432  1.00  0.00    -0.288 OA
HETATM   28  C   UNL     1      43.289 -17.728   4.645  1.00  0.00     0.112 A 
HETATM   29  C   UNL     1      43.210 -17.315   3.325  1.00  0.00     0.094 A 
HETATM   30  C   UNL     1      43.594 -19.022   5.067  1.00  0.00    -0.025 A 
HETATM   31  C   UNL     1      43.415 -18.253   2.306  1.00  0.00     0.041 A 
HETATM   32  N   UNL     1      42.913 -15.973   3.268  1.00  0.00    -0.221 NA
HETATM   33  C   UNL     1      43.697 -19.584   2.664  1.00  0.00    -0.059 A 
HETATM   34  C   UNL     1      43.857 -20.636   1.602  1.00  0.00     0.048 C 
HETATM   35  C   UNL     1      43.782 -19.948   4.021  1.00  0.00     0.016 A 
HETATM   36  C   UNL     1      43.687 -19.440   6.498  1.00  0.00     0.051 C 
ENDBRANCH   1  26
BRANCH   2  37
HETATM   37  O   UNL     1      40.227 -14.373   3.938  1.00  0.00    -0.360 OA
HETATM   38  H   UNL     1      39.372 -13.897   4.010  1.00  0.00     0.217 HD
ENDBRANCH   2  37
TORSDOF 9
ENDMDL
MODEL 6
REMARK VINA RESULT:      -7.9      3.400      4.905
REMARK  9 active torsions:
REMARK  status: ('A' for Active; 'I' for Inactive)
REMARK    1  A    between atoms: C_7  and  C_8 
REMARK    2  A    between atoms: C_9  and  O_10 
REMARK    3  A    between atoms: C_13  and  N_14 
REMARK    4  A    between atoms: N_14  and  C_15 
REMARK    5  A    between atoms: C_15  and  N_16 
REMARK       I    between atoms: N_16  and  C_17 
REMARK    6  A    between atoms: C_17  and  C_18 
REMARK    7  A    between atoms: C_21  and  O_22 
REMARK    8  A    between atoms: O_22  and  C_23 
REMARK    9  A    between atoms: C_23  and  C_24 
ROOT
HETATM    1  C   UNL     1      40.829 -13.720   3.959  1.00  0.00     0.052 A 
HETATM    2  C   UNL     1      39.781 -13.273   3.142  1.00  0.00     0.080 A 
HETATM    3  C   UNL     1      39.070 -12.117   3.458  1.00  0.00     0.040 A 
HETATM    4  C   UNL     1      39.378 -11.402   4.619  1.00  0.00     0.032 A 
HETATM    5  C   UNL     1      40.419 -11.822   5.450  1.00  0.00     0.035 A 
HETATM    6  C   UNL     1      41.135 -12.978   5.114  1.00  0.00     0.048 A 
ENDROOT
BRANCH   5   7
HETATM    7  N   UNL     1      40.624 -11.121   6.661  1.00  0.00    -0.337 N 
HETATM    8  H   UNL     1      40.401 -11.629   7.511  1.00  0.00     0.168 HD
BRANCH   7   9
HETATM    9  C   UNL     1      41.033  -9.820   6.826  1.00  0.00     0.157 C 
HETATM   10  S   UNL     1      40.039  -8.476   6.941  1.00  0.00    -0.047 SA
BRANCH   9  11
HETATM   11  N   UNL     1      42.393  -9.610   6.919  1.00  0.00    -0.201 NA
HETATM   12  C   UNL     1      43.166 -10.284   7.838  1.00  0.00     0.237 C 
HETATM   13  O   UNL     1      43.766 -11.315   7.560  1.00  0.00    -0.274 OA
HETATM   14  H   UNL     1      42.760  -9.752   5.983  1.00  0.00     0.139 HD
BRANCH  12  15
HETATM   15  C   UNL     1      43.341  -9.646   9.164  1.00  0.00     0.026 A 
HETATM   16  C   UNL     1      43.177  -8.261   9.278  1.00  0.00     0.019 A 
HETATM   17  C   UNL     1      43.222  -7.651  10.536  1.00  0.00     0.038 A 
HETATM   18  C   UNL     1      43.398  -8.424  11.684  1.00  0.00     0.068 A 
HETATM   19  C   UNL     1      43.591  -9.804  11.561  1.00  0.00     0.038 A 
HETATM   20  C   UNL     1      43.566 -10.419  10.306  1.00  0.00     0.019 A 
BRANCH  18  21
HETATM   21  O   UNL     1      43.395  -7.958  12.970  1.00  0.00    -0.351 OA
BRANCH  21  22
HETATM   22  C   UNL     1      42.530  -6.855  13.252  1.00  0.00     0.179 C 
BRANCH  22  23
HETATM   23  C   UNL     1      41.322  -7.356  14.060  1.00  0.00     0.002 C 
HETATM   24  C   UNL     1      40.160  -7.691  13.127  1.00  0.00     0.011 C 
HETATM   25  C   UNL     1      41.690  -8.578  14.905  1.00  0.00     0.011 C 
ENDBRANCH  22  23
ENDBRANCH  21  22
ENDBRANCH  18  21
ENDBRANCH  12  15
ENDBRANCH   9  11
ENDBRANCH   7   9
ENDBRANCH   5   7
BRANCH   1  26
HETATM   26  C   UNL     1      41.540 -14.958   3.655  1.00  0.00     0.183 A 
HETATM   27  O   UNL     1      42.513 -15.353   4.533  1.00  0.00    -0.288 OA
HETATM   28  C   UNL     1      42.957 -16.541   4.027  1.00  0.00     0.112 A 
HETATM   29  C   UNL     1      42.233 -16.802   2.876  1.00  0.00     0.094 A 
HETATM   30  C   UNL     1      43.945 -17.369   4.561  1.00  0.00    -0.025 A 
HETATM   31  C   UNL     1      42.462 -17.998   2.184  1.00  0.00     0.041 A 
HETATM   32  N   UNL     1      41.360 -15.769   2.624  1.00  0.00    -0.221 NA
HETATM   33  C   UNL     1      43.425 -18.891   2.687  1.00  0.00    -0.059 A 
HETATM   34  C   UNL     1      43.655 -20.215   2.013  1.00  0.00     0.048 C 
HETATM   35  C   UNL     1      44.145 -18.571   3.854  1.00  0.00     0.016 A 
HETATM   36  C   UNL     1      44.722 -17.059   5.798  1.00  0.00     0.051 C 
ENDBRANCH   1  26
BRANCH   2  37
HETATM   37  O   UNL     1      39.382 -13.939   2.012  1.00  0.00    -0.360 OA
HETATM   38  H   UNL     1      39.429 -14.904   2.187  1.00  0.00     0.217 HD
ENDBRANCH   2  37
TORSDOF 9
ENDMDL
MODEL 7
REMARK VINA RESULT:      -7.9      2.597      4.862
REMARK  9 active torsions:
REMARK  status: ('A' for Active; 'I' for Inactive)
REMARK    1  A    between atoms: C_7  and  C_8 
REMARK    2  A    between atoms: C_9  and  O_10 
REMARK    3  A    between atoms: C_13  and  N_14 
REMARK    4  A    between atoms: N_14  and  C_15 
REMARK    5  A    between atoms: C_15  and  N_16 
REMARK       I    between atoms: N_16  and  C_17 
REMARK    6  A    between atoms: C_17  and  C_18 
REMARK    7  A    between atoms: C_21  and  O_22 
REMARK    8  A    between atoms: O_22  and  C_23 
REMARK    9  A    between atoms: C_23  and  C_24 
ROOT
HETATM    1  C   UNL     1      40.597 -14.195   3.749  1.00  0.00     0.052 A 
HETATM    2  C   UNL     1      39.701 -13.705   2.788  1.00  0.00     0.080 A 
HETATM    3  C   UNL     1      38.896 -12.600   3.058  1.00  0.00     0.040 A 
HETATM    4  C   UNL     1      38.952 -11.982   4.310  1.00  0.00     0.032 A 
HETATM    5  C   UNL     1      39.837 -12.446   5.286  1.00  0.00     0.035 A 
HETATM    6  C   UNL     1      40.652 -13.548   4.997  1.00  0.00     0.048 A 
ENDROOT
BRANCH   5   7
HETATM    7  N   UNL     1      39.784 -11.849   6.567  1.00  0.00    -0.337 N 
HETATM    8  H   UNL     1      39.330 -12.395   7.292  1.00  0.00     0.168 HD
BRANCH   7   9
HETATM    9  C   UNL     1      40.220 -10.600   6.936  1.00  0.00     0.157 C 
HETATM   10  S   UNL     1      39.385  -9.499   7.882  1.00  0.00    -0.047 SA
BRANCH   9  11
HETATM   11  N   UNL     1      41.473 -10.232   6.495  1.00  0.00    -0.201 NA
HETATM   12  C   UNL     1      41.646  -9.225   5.572  1.00  0.00     0.237 C 
HETATM   13  O   UNL     1      41.880  -8.068   5.898  1.00  0.00    -0.274 OA
HETATM   14  H   UNL     1      42.015 -10.036   7.330  1.00  0.00     0.139 HD
BRANCH  12  15
HETATM   15  C   UNL     1      41.655  -9.619   4.143  1.00  0.00     0.026 A 
HETATM   16  C   UNL     1      42.477 -10.675   3.734  1.00  0.00     0.019 A 
HETATM   17  C   UNL     1      42.417 -11.141   2.417  1.00  0.00     0.038 A 
HETATM   18  C   UNL     1      41.512 -10.578   1.515  1.00  0.00     0.068 A 
HETATM   19  C   UNL     1      40.714  -9.505   1.921  1.00  0.00     0.038 A 
HETATM   20  C   UNL     1      40.781  -9.020   3.230  1.00  0.00     0.019 A 
BRANCH  18  21
HETATM   21  O   UNL     1      41.311 -10.987   0.225  1.00  0.00    -0.351 OA
BRANCH  21  22
HETATM   22  C   UNL     1      40.009 -10.764  -0.325  1.00  0.00     0.179 C 
BRANCH  22  23
HETATM   23  C   UNL     1      39.910 -11.472  -1.685  1.00  0.00     0.002 C 
HETATM   24  C   UNL     1      41.304 -11.803  -2.216  1.00  0.00     0.011 C 
HETATM   25  C   UNL     1      39.066 -12.746  -1.586  1.00  0.00     0.011 C 
ENDBRANCH  22  23
ENDBRANCH  21  22
ENDBRANCH  18  21
ENDBRANCH  12  15
ENDBRANCH   9  11
ENDBRANCH   7   9
ENDBRANCH   5   7
BRANCH   1  26
HETATM   26  C   UNL     1      41.403 -15.382   3.485  1.00  0.00     0.183 A 
HETATM   27  O   UNL     1      42.395 -15.677   4.381  1.00  0.00    -0.288 OA
HETATM   28  C   UNL     1      42.934 -16.841   3.912  1.00  0.00     0.112 A 
HETATM   29  C   UNL     1      42.243 -17.187   2.762  1.00  0.00     0.094 A 
HETATM   30  C   UNL     1      43.977 -17.575   4.476  1.00  0.00    -0.025 A 
HETATM   31  C   UNL     1      42.571 -18.380   2.105  1.00  0.00     0.041 A 
HETATM   32  N   UNL     1      41.296 -16.231   2.475  1.00  0.00    -0.221 NA
HETATM   33  C   UNL     1      43.594 -19.182   2.640  1.00  0.00    -0.059 A 
HETATM   34  C   UNL     1      43.931 -20.502   2.005  1.00  0.00     0.048 C 
HETATM   35  C   UNL     1      44.276 -18.777   3.803  1.00  0.00     0.016 A 
HETATM   36  C   UNL     1      44.716 -17.173   5.710  1.00  0.00     0.051 C 
ENDBRANCH   1  26
BRANCH   2  37
HETATM   37  O   UNL     1      39.548 -14.279   1.553  1.00  0.00    -0.360 OA
HETATM   38  H   UNL     1      40.418 -14.280   1.100  1.00  0.00     0.217 HD
ENDBRANCH   2  37
TORSDOF 9
ENDMDL
MODEL 8
REMARK VINA RESULT:      -7.9      3.765      4.854
REMARK  9 active torsions:
REMARK  status: ('A' for Active; 'I' for Inactive)
REMARK    1  A    between atoms: C_7  and  C_8 
REMARK    2  A    between atoms: C_9  and  O_10 
REMARK    3  A    between atoms: C_13  and  N_14 
REMARK    4  A    between atoms: N_14  and  C_15 
REMARK    5  A    between atoms: C_15  and  N_16 
REMARK       I    between atoms: N_16  and  C_17 
REMARK    6  A    between atoms: C_17  and  C_18 
REMARK    7  A    between atoms: C_21  and  O_22 
REMARK    8  A    between atoms: O_22  and  C_23 
REMARK    9  A    between atoms: C_23  and  C_24 
ROOT
HETATM    1  C   UNL     1      41.017 -13.742   3.324  1.00  0.00     0.052 A 
HETATM    2  C   UNL     1      39.764 -13.557   2.722  1.00  0.00     0.080 A 
HETATM    3  C   UNL     1      39.066 -12.361   2.877  1.00  0.00     0.040 A 
HETATM    4  C   UNL     1      39.597 -11.337   3.665  1.00  0.00     0.032 A 
HETATM    5  C   UNL     1      40.845 -11.492   4.275  1.00  0.00     0.035 A 
HETATM    6  C   UNL     1      41.544 -12.693   4.100  1.00  0.00     0.048 A 
ENDROOT
BRANCH   5   7
HETATM    7  N   UNL     1      41.291 -10.467   5.141  1.00  0.00    -0.337 N 
HETATM    8  H   UNL     1      41.539  -9.589   4.698  1.00  0.00     0.168 HD
BRANCH   7   9
HETATM    9  C   UNL     1      41.481 -10.532   6.500  1.00  0.00     0.157 C 
HETATM   10  S   UNL     1      42.923 -10.266   7.311  1.00  0.00    -0.047 SA
BRANCH   9  11
HETATM   11  N   UNL     1      40.373 -10.830   7.263  1.00  0.00    -0.201 NA
HETATM   12  C   UNL     1      39.452  -9.866   7.607  1.00  0.00     0.237 C 
HETATM   13  O   UNL     1      38.434  -9.668   6.957  1.00  0.00    -0.274 OA
HETATM   14  H   UNL     1      39.910 -11.600   6.791  1.00  0.00     0.139 HD
BRANCH  12  15
HETATM   15  C   UNL     1      39.685  -9.141   8.879  1.00  0.00     0.026 A 
HETATM   16  C   UNL     1      39.465  -9.805  10.090  1.00  0.00     0.019 A 
HETATM   17  C   UNL     1      39.787  -9.183  11.301  1.00  0.00     0.038 A 
HETATM   18  C   UNL     1      40.361  -7.910  11.303  1.00  0.00     0.068 A 
HETATM   19  C   UNL     1      40.553  -7.240  10.091  1.00  0.00     0.038 A 
HETATM   20  C   UNL     1      40.215  -7.847   8.878  1.00  0.00     0.019 A 
BRANCH  18  21
HETATM   21  O   UNL     1      40.780  -7.225  12.410  1.00  0.00    -0.351 OA
BRANCH  21  22
HETATM   22  C   UNL     1      42.117  -6.716  12.384  1.00  0.00     0.179 C 
BRANCH  22  23
HETATM   23  C   UNL     1      43.056  -7.735  13.049  1.00  0.00     0.002 C 
HETATM   24  C   UNL     1      42.310  -8.521  14.127  1.00  0.00     0.011 C 
HETATM   25  C   UNL     1      43.655  -8.693  12.016  1.00  0.00     0.011 C 
ENDBRANCH  22  23
ENDBRANCH  21  22
ENDBRANCH  18  21
ENDBRANCH  12  15
ENDBRANCH   9  11
ENDBRANCH   7   9
ENDBRANCH   5   7
BRANCH   1  26
HETATM   26  C   UNL     1      41.725 -15.013   3.204  1.00  0.00     0.183 A 
HETATM   27  O   UNL     1      42.570 -15.358   4.224  1.00  0.00    -0.288 OA
HETATM   28  C   UNL     1      43.040 -16.588   3.867  1.00  0.00     0.112 A 
HETATM   29  C   UNL     1      42.459 -16.922   2.655  1.00  0.00     0.094 A 
HETATM   30  C   UNL     1      43.931 -17.391   4.580  1.00  0.00    -0.025 A 
HETATM   31  C   UNL     1      42.740 -18.171   2.086  1.00  0.00     0.041 A 
HETATM   32  N   UNL     1      41.653 -15.895   2.220  1.00  0.00    -0.221 NA
HETATM   33  C   UNL     1      43.607 -19.041   2.771  1.00  0.00    -0.059 A 
HETATM   34  C   UNL     1      43.882 -20.416   2.230  1.00  0.00     0.048 C 
HETATM   35  C   UNL     1      44.184 -18.646   3.993  1.00  0.00     0.016 A 
HETATM   36  C   UNL     1      44.556 -17.002   5.880  1.00  0.00     0.051 C 
ENDBRANCH   1  26
BRANCH   2  37
HETATM   37  O   UNL     1      39.148 -14.525   1.972  1.00  0.00    -0.360 OA
HETATM   38  H   UNL     1      39.016 -15.318   2.535  1.00  0.00     0.217 HD
ENDBRANCH   2  37
TORSDOF 9
ENDMDL
MODEL 9
REMARK VINA RESULT:      -7.9      2.203      6.132
REMARK  9 active torsions:
REMARK  status: ('A' for Active; 'I' for Inactive)
REMARK    1  A    between atoms: C_7  and  C_8 
REMARK    2  A    between atoms: C_9  and  O_10 
REMARK    3  A    between atoms: C_13  and  N_14 
REMARK    4  A    between atoms: N_14  and  C_15 
REMARK    5  A    between atoms: C_15  and  N_16 
REMARK       I    between atoms: N_16  and  C_17 
REMARK    6  A    between atoms: C_17  and  C_18 
REMARK    7  A    between atoms: C_21  and  O_22 
REMARK    8  A    between atoms: O_22  and  C_23 
REMARK    9  A    between atoms: C_23  and  C_24 
ROOT
HETATM    1  C   UNL     1      41.182 -11.522   4.620  1.00  0.00     0.052 A 
HETATM    2  C   UNL     1      39.843 -11.821   4.913  1.00  0.00     0.080 A 
HETATM    3  C   UNL     1      38.921 -12.046   3.894  1.00  0.00     0.040 A 
HETATM    4  C   UNL     1      39.317 -11.945   2.557  1.00  0.00     0.032 A 
HETATM    5  C   UNL     1      40.644 -11.652   2.235  1.00  0.00     0.035 A 
HETATM    6  C   UNL     1      41.565 -11.443   3.269  1.00  0.00     0.048 A 
ENDROOT
BRANCH   5   7
HETATM    7  N   UNL     1      40.969 -11.464   0.871  1.00  0.00    -0.337 N 
HETATM    8  H   UNL     1      41.615 -10.709   0.670  1.00  0.00     0.168 HD
BRANCH   7   9
HETATM    9  C   UNL     1      40.475 -12.142  -0.216  1.00  0.00     0.157 C 
HETATM   10  S   UNL     1      39.311 -11.585  -1.285  1.00  0.00    -0.047 SA
BRANCH   9  11
HETATM   11  N   UNL     1      41.002 -13.394  -0.452  1.00  0.00    -0.201 NA
HETATM   12  C   UNL     1      40.453 -14.526   0.107  1.00  0.00     0.237 C 
HETATM   13  O   UNL     1      39.634 -15.218  -0.484  1.00  0.00    -0.274 OA
HETATM   14  H   UNL     1      41.047 -13.490  -1.462  1.00  0.00     0.139 HD
BRANCH  12  15
HETATM   15  C   UNL     1      40.983 -14.948   1.425  1.00  0.00     0.026 A 
HETATM   16  C   UNL     1      42.348 -14.796   1.689  1.00  0.00     0.019 A 
HETATM   17  C   UNL     1      42.852 -15.077   2.963  1.00  0.00     0.038 A 
HETATM   18  C   UNL     1      41.990 -15.478   3.985  1.00  0.00     0.068 A 
HETATM   19  C   UNL     1      40.631 -15.655   3.708  1.00  0.00     0.038 A 
HETATM   20  C   UNL     1      40.122 -15.395   2.432  1.00  0.00     0.019 A 
BRANCH  18  21
HETATM   21  O   UNL     1      42.346 -15.718   5.283  1.00  0.00    -0.351 OA
BRANCH  21  22
HETATM   22  C   UNL     1      42.363 -17.085   5.703  1.00  0.00     0.179 C 
BRANCH  22  23
HETATM   23  C   UNL     1      43.819 -17.528   5.920  1.00  0.00     0.002 C 
HETATM   24  C   UNL     1      44.373 -18.172   4.650  1.00  0.00     0.011 C 
HETATM   25  C   UNL     1      44.699 -16.348   6.341  1.00  0.00     0.011 C 
ENDBRANCH  22  23
ENDBRANCH  21  22
ENDBRANCH  18  21
ENDBRANCH  12  15
ENDBRANCH   9  11
ENDBRANCH   7   9
ENDBRANCH   5   7
BRANCH   1  26
HETATM   26  C   UNL     1      42.136 -11.237   5.687  1.00  0.00     0.183 A 
HETATM   27  O   UNL     1      43.462 -11.441   5.412  1.00  0.00    -0.288 OA
HETATM   28  C   UNL     1      44.103 -11.051   6.553  1.00  0.00     0.112 A 
HETATM   29  C   UNL     1      43.137 -10.633   7.453  1.00  0.00     0.094 A 
HETATM   30  C   UNL     1      45.478 -11.048   6.788  1.00  0.00    -0.025 A 
HETATM   31  C   UNL     1      43.539 -10.132   8.698  1.00  0.00     0.041 A 
HETATM   32  N   UNL     1      41.884 -10.792   6.908  1.00  0.00    -0.221 NA
HETATM   33  C   UNL     1      44.914 -10.073   8.987  1.00  0.00    -0.059 A 
HETATM   34  C   UNL     1      45.391  -9.480  10.282  1.00  0.00     0.048 C 
HETATM   35  C   UNL     1      45.855 -10.526   8.041  1.00  0.00     0.016 A 
HETATM   36  C   UNL     1      46.500 -11.517   5.805  1.00  0.00     0.051 C 
ENDBRANCH   1  26
BRANCH   2  37
HETATM   37  O   UNL     1      39.360 -11.892   6.194  1.00  0.00    -0.360 OA
HETATM   38  H   UNL     1      38.774 -12.676   6.262  1.00  0.00     0.217 HD
ENDBRANCH   2  37
TORSDOF 9
ENDMDL
MODEL 10
REMARK VINA RESULT:      -7.9      2.584      5.378
REMARK  9 active torsions:
REMARK  status: ('A' for Active; 'I' for Inactive)
REMARK    1  A    between atoms: C_7  and  C_8 
REMARK    2  A    between atoms: C_9  and  O_10 
REMARK    3  A    between atoms: C_13  and  N_14 
REMARK    4  A    between atoms: N_14  and  C_15 
REMARK    5  A    between atoms: C_15  and  N_16 
REMARK       I    between atoms: N_16  and  C_17 
REMARK    6  A    between atoms: C_17  and  C_18 
REMARK    7  A    between atoms: C_21  and  O_22 
REMARK    8  A    between atoms: O_22  and  C_23 
REMARK    9  A    between atoms: C_23  and  C_24 
ROOT
HETATM    1  C   UNL     1      39.417 -11.600   3.492  1.00  0.00     0.052 A 
HETATM    2  C   UNL     1      39.200 -10.237   3.736  1.00  0.00     0.080 A 
HETATM    3  C   UNL     1      38.383  -9.481   2.899  1.00  0.00     0.040 A 
HETATM    4  C   UNL     1      37.790 -10.071   1.780  1.00  0.00     0.032 A 
HETATM    5  C   UNL     1      37.985 -11.429   1.513  1.00  0.00     0.035 A 
HETATM    6  C   UNL     1      38.797 -12.181   2.371  1.00  0.00     0.048 A 
ENDROOT
BRANCH   5   7
HETATM    7  N   UNL     1      37.445 -11.953   0.316  1.00  0.00    -0.337 N 
HETATM    8  H   UNL     1      36.608 -12.517   0.417  1.00  0.00     0.168 HD
BRANCH   7   9
HETATM    9  C   UNL     1      37.944 -11.838  -0.959  1.00  0.00     0.157 C 
HETATM   10  S   UNL     1      37.046 -11.653  -2.361  1.00  0.00    -0.047 SA
BRANCH   9  11
HETATM   11  N   UNL     1      39.316 -11.862  -1.086  1.00  0.00    -0.201 NA
HETATM   12  C   UNL     1      40.001 -13.038  -1.293  1.00  0.00     0.237 C 
HETATM   13  O   UNL     1      40.309 -13.430  -2.412  1.00  0.00    -0.274 OA
HETATM   14  H   UNL     1      39.539 -11.195  -1.818  1.00  0.00     0.139 HD
BRANCH  12  15
HETATM   15  C   UNL     1      40.461 -13.768  -0.087  1.00  0.00     0.026 A 
HETATM   16  C   UNL     1      39.872 -14.996   0.230  1.00  0.00     0.019 A 
HETATM   17  C   UNL     1      40.366 -15.758   1.294  1.00  0.00     0.038 A 
HETATM   18  C   UNL     1      41.470 -15.311   2.021  1.00  0.00     0.068 A 
HETATM   19  C   UNL     1      42.037 -14.069   1.718  1.00  0.00     0.038 A 
HETATM   20  C   UNL     1      41.537 -13.293   0.669  1.00  0.00     0.019 A 
BRANCH  18  21
HETATM   21  O   UNL     1      42.087 -15.990   3.037  1.00  0.00    -0.351 OA
BRANCH  21  22
HETATM   22  C   UNL     1      43.241 -16.759   2.688  1.00  0.00     0.179 C 
BRANCH  22  23
HETATM   23  C   UNL     1      43.361 -17.951   3.651  1.00  0.00     0.002 C 
HETATM   24  C   UNL     1      43.946 -19.163   2.928  1.00  0.00     0.011 C 
HETATM   25  C   UNL     1      44.221 -17.596   4.867  1.00  0.00     0.011 C 
ENDBRANCH  22  23
ENDBRANCH  21  22
ENDBRANCH  18  21
ENDBRANCH  12  15
ENDBRANCH   9  11
ENDBRANCH   7   9
ENDBRANCH   5   7
BRANCH   1  26
HETATM   26  C   UNL     1      40.313 -12.380   4.340  1.00  0.00     0.183 A 
HETATM   27  O   UNL     1      41.550 -11.853   4.596  1.00  0.00    -0.288 OA
HETATM   28  C   UNL     1      42.132 -12.759   5.435  1.00  0.00     0.112 A 
HETATM   29  C   UNL     1      41.221 -13.781   5.643  1.00  0.00     0.094 A 
HETATM   30  C   UNL     1      43.402 -12.684   6.007  1.00  0.00    -0.025 A 
HETATM   31  C   UNL     1      41.556 -14.824   6.516  1.00  0.00     0.041 A 
HETATM   32  N   UNL     1      40.079 -13.552   4.909  1.00  0.00    -0.221 NA
HETATM   33  C   UNL     1      42.811 -14.793   7.149  1.00  0.00    -0.059 A 
HETATM   34  C   UNL     1      43.184 -15.856   8.144  1.00  0.00     0.048 C 
HETATM   35  C   UNL     1      43.707 -13.738   6.891  1.00  0.00     0.016 A 
HETATM   36  C   UNL     1      44.372 -11.577   5.756  1.00  0.00     0.051 C 
ENDBRANCH   1  26
BRANCH   2  37
HETATM   37  O   UNL     1      39.780  -9.567   4.783  1.00  0.00    -0.360 OA
HETATM   38  H   UNL     1      39.154  -9.569   5.538  1.00  0.00     0.217 HD
ENDBRANCH   2  37
TORSDOF 9
ENDMDL
