MODEL 1
REMARK VINA RESULT:      -8.5      0.000      0.000
REMARK  9 active torsions:
REMARK  status: ('A' for Active; 'I' for Inactive)
REMARK    1  A    between atoms: C_3  and  N_4 
REMARK       I    between atoms: N_4  and  C_5 
REMARK    2  A    between atoms: C_5  and  C_6 
REMARK    3  A    between atoms: C_13  and  C_14 
REMARK    4  A    between atoms: C_14  and  O_15 
REMARK    5  A    between atoms: O_15  and  C_16 
REMARK    6  A    between atoms: C_16  and  C_17 
REMARK       I    between atoms: C_17  and  N_18 
REMARK    7  A    between atoms: N_18  and  C_19 
REMARK    8  A    between atoms: C_19  and  C_20 
REMARK    9  A    between atoms: C_22  and  O_23 
ROOT
HETATM    1  C   UNL     1      42.542 -12.334   6.142  1.00  0.00     0.293 C 
HETATM    2  O   UNL     1      41.706 -11.450   6.255  1.00  0.00    -0.259 OA
ENDROOT
BRANCH   1   3
HETATM    3  C   UNL     1      42.734 -13.122   4.898  1.00  0.00     0.041 A 
HETATM    4  C   UNL     1      42.887 -14.510   5.024  1.00  0.00     0.047 A 
HETATM    5  C   UNL     1      43.066 -15.327   3.901  1.00  0.00     0.042 A 
HETATM    6  C   UNL     1      43.113 -14.730   2.624  1.00  0.00    -0.035 A 
HETATM    7  C   UNL     1      43.325 -15.525   1.362  1.00  0.00     0.050 C 
HETATM    8  C   UNL     1      42.974 -13.333   2.508  1.00  0.00     0.010 A 
HETATM    9  C   UNL     1      42.777 -12.534   3.635  1.00  0.00     0.018 A 
BRANCH   5  10
HETATM   10  N   UNL     1      43.217 -16.727   4.016  1.00  0.00    -0.321 N 
HETATM   11  C   UNL     1      44.123 -17.426   4.798  1.00  0.00     0.279 C 
HETATM   12  O   UNL     1      44.914 -16.921   5.589  1.00  0.00    -0.265 OA
HETATM   13  H   UNL     1      42.562 -17.316   3.516  1.00  0.00     0.169 HD
BRANCH  11  14
HETATM   14  C   UNL     1      44.020 -18.865   4.633  1.00  0.00     0.142 A 
HETATM   15  O   UNL     1      44.013 -19.676   5.741  1.00  0.00    -0.317 OA
HETATM   16  C   UNL     1      43.904 -20.954   5.296  1.00  0.00     0.143 A 
HETATM   17  C   UNL     1      43.850 -20.987   3.923  1.00  0.00     0.027 A 
HETATM   18  C   UNL     1      43.924 -19.641   3.494  1.00  0.00     0.045 A 
ENDBRANCH  11  14
ENDBRANCH   5  10
ENDBRANCH   1   3
BRANCH   1  19
HETATM   19  O   UNL     1      43.445 -12.680   7.089  1.00  0.00    -0.308 OA
BRANCH  19  20
HETATM   20  C   UNL     1      44.666 -11.934   7.070  1.00  0.00     0.281 C 
BRANCH  20  21
HETATM   21  C   UNL     1      44.769 -10.843   8.143  1.00  0.00     0.242 C 
HETATM   22  N   UNL     1      43.806  -9.864   8.056  1.00  0.00    -0.355 N 
HETATM   23  H   UNL     1      43.165  -9.885   7.263  1.00  0.00     0.162 HD
HETATM   24  O   UNL     1      45.624 -10.874   9.025  1.00  0.00    -0.271 OA
BRANCH  22  25
HETATM   25  C   UNL     1      43.812  -8.689   8.890  1.00  0.00     0.161 C 
BRANCH  25  26
HETATM   26  C   UNL     1      43.102  -8.926  10.201  1.00  0.00    -0.038 A 
HETATM   27  C   UNL     1      41.786  -9.424  10.230  1.00  0.00     0.045 A 
HETATM   28  C   UNL     1      41.137  -9.642  11.448  1.00  0.00     0.068 A 
HETATM   29  C   UNL     1      41.810  -9.372  12.642  1.00  0.00     0.037 A 
HETATM   30  C   UNL     1      43.111  -8.871  12.626  1.00  0.00     0.003 A 
HETATM   31  C   UNL     1      43.752  -8.644  11.410  1.00  0.00     0.009 A 
BRANCH  28  32
HETATM   32  O   UNL     1      39.864 -10.119  11.610  1.00  0.00    -0.356 OA
HETATM   33  C   UNL     1      39.528 -10.613  12.899  1.00  0.00     0.210 C 
ENDBRANCH  28  32
ENDBRANCH  25  26
ENDBRANCH  22  25
ENDBRANCH  20  21
ENDBRANCH  19  20
ENDBRANCH   1  19
TORSDOF 9
ENDMDL
MODEL 2
REMARK VINA RESULT:      -8.5      1.869      9.811
REMARK  9 active torsions:
REMARK  status: ('A' for Active; 'I' for Inactive)
REMARK    1  A    between atoms: C_3  and  N_4 
REMARK       I    between atoms: N_4  and  C_5 
REMARK    2  A    between atoms: C_5  and  C_6 
REMARK    3  A    between atoms: C_13  and  C_14 
REMARK    4  A    between atoms: C_14  and  O_15 
REMARK    5  A    between atoms: O_15  and  C_16 
REMARK    6  A    between atoms: C_16  and  C_17 
REMARK       I    between atoms: C_17  and  N_18 
REMARK    7  A    between atoms: N_18  and  C_19 
REMARK    8  A    between atoms: C_19  and  C_20 
REMARK    9  A    between atoms: C_22  and  O_23 
ROOT
HETATM    1  C   UNL     1      43.669 -11.541   5.164  1.00  0.00     0.293 C 
HETATM    2  O   UNL     1      44.182 -11.287   4.085  1.00  0.00    -0.259 OA
ENDROOT
BRANCH   1   3
HETATM    3  C   UNL     1      44.240 -11.103   6.463  1.00  0.00     0.041 A 
HETATM    4  C   UNL     1      43.362 -10.964   7.547  1.00  0.00     0.047 A 
HETATM    5  C   UNL     1      43.819 -10.561   8.807  1.00  0.00     0.042 A 
HETATM    6  C   UNL     1      45.190 -10.272   8.974  1.00  0.00    -0.035 A 
HETATM    7  C   UNL     1      45.769  -9.809  10.286  1.00  0.00     0.050 C 
HETATM    8  C   UNL     1      46.062 -10.398   7.876  1.00  0.00     0.010 A 
HETATM    9  C   UNL     1      45.595 -10.820   6.631  1.00  0.00     0.018 A 
BRANCH   5  10
HETATM   10  N   UNL     1      42.944 -10.421   9.907  1.00  0.00    -0.321 N 
HETATM   11  C   UNL     1      42.109  -9.355  10.203  1.00  0.00     0.279 C 
HETATM   12  O   UNL     1      41.946  -8.365   9.497  1.00  0.00    -0.265 OA
HETATM   13  H   UNL     1      42.857 -11.204  10.545  1.00  0.00     0.169 HD
BRANCH  11  14
HETATM   14  C   UNL     1      41.379  -9.537  11.444  1.00  0.00     0.142 A 
HETATM   15  O   UNL     1      40.117 -10.078  11.416  1.00  0.00    -0.317 OA
HETATM   16  C   UNL     1      39.680 -10.136  12.701  1.00  0.00     0.143 A 
HETATM   17  C   UNL     1      40.630  -9.635  13.559  1.00  0.00     0.027 A 
HETATM   18  C   UNL     1      41.726  -9.249  12.750  1.00  0.00     0.045 A 
ENDBRANCH  11  14
ENDBRANCH   5  10
ENDBRANCH   1   3
BRANCH   1  19
HETATM   19  O   UNL     1      42.495 -12.192   5.337  1.00  0.00    -0.308 OA
BRANCH  19  20
HETATM   20  C   UNL     1      41.640 -12.224   4.189  1.00  0.00     0.281 C 
BRANCH  20  21
HETATM   21  C   UNL     1      41.557 -13.585   3.488  1.00  0.00     0.242 C 
HETATM   22  N   UNL     1      42.771 -14.104   3.101  1.00  0.00    -0.355 N 
HETATM   23  H   UNL     1      43.604 -13.530   3.227  1.00  0.00     0.162 HD
HETATM   24  O   UNL     1      40.488 -14.171   3.326  1.00  0.00    -0.271 OA
BRANCH  22  25
HETATM   25  C   UNL     1      42.889 -15.307   2.316  1.00  0.00     0.161 C 
BRANCH  25  26
HETATM   26  C   UNL     1      43.326 -16.484   3.154  1.00  0.00    -0.038 A 
HETATM   27  C   UNL     1      43.438 -17.770   2.592  1.00  0.00     0.045 A 
HETATM   28  C   UNL     1      43.845 -18.853   3.375  1.00  0.00     0.068 A 
HETATM   29  C   UNL     1      44.151 -18.648   4.723  1.00  0.00     0.037 A 
HETATM   30  C   UNL     1      44.037 -17.382   5.293  1.00  0.00     0.003 A 
HETATM   31  C   UNL     1      43.621 -16.305   4.512  1.00  0.00     0.009 A 
BRANCH  28  32
HETATM   32  O   UNL     1      43.990 -20.146   2.950  1.00  0.00    -0.356 OA
HETATM   33  C   UNL     1      43.386 -20.479   1.707  1.00  0.00     0.210 C 
ENDBRANCH  28  32
ENDBRANCH  25  26
ENDBRANCH  22  25
ENDBRANCH  20  21
ENDBRANCH  19  20
ENDBRANCH   1  19
TORSDOF 9
ENDMDL
MODEL 3
REMARK VINA RESULT:      -8.4      3.644      7.069
REMARK  9 active torsions:
REMARK  status: ('A' for Active; 'I' for Inactive)
REMARK    1  A    between atoms: C_3  and  N_4 
REMARK       I    between atoms: N_4  and  C_5 
REMARK    2  A    between atoms: C_5  and  C_6 
REMARK    3  A    between atoms: C_13  and  C_14 
REMARK    4  A    between atoms: C_14  and  O_15 
REMARK    5  A    between atoms: O_15  and  C_16 
REMARK    6  A    between atoms: C_16  and  C_17 
REMARK       I    between atoms: C_17  and  N_18 
REMARK    7  A    between atoms: N_18  and  C_19 
REMARK    8  A    between atoms: C_19  and  C_20 
REMARK    9  A    between atoms: C_22  and  O_23 
ROOT
HETATM    1  C   UNL     1      42.440 -12.412   5.997  1.00  0.00     0.293 C 
HETATM    2  O   UNL     1      43.315 -12.010   6.750  1.00  0.00    -0.259 OA
ENDROOT
BRANCH   1   3
HETATM    3  C   UNL     1      42.714 -13.244   4.799  1.00  0.00     0.041 A 
HETATM    4  C   UNL     1      42.847 -14.628   4.983  1.00  0.00     0.047 A 
HETATM    5  C   UNL     1      43.099 -15.485   3.906  1.00  0.00     0.042 A 
HETATM    6  C   UNL     1      43.242 -14.934   2.616  1.00  0.00    -0.035 A 
HETATM    7  C   UNL     1      43.538 -15.775   1.400  1.00  0.00     0.050 C 
HETATM    8  C   UNL     1      43.123 -13.542   2.441  1.00  0.00     0.010 A 
HETATM    9  C   UNL     1      42.852 -12.702   3.522  1.00  0.00     0.018 A 
BRANCH   5  10
HETATM   10  N   UNL     1      43.231 -16.881   4.080  1.00  0.00    -0.321 N 
HETATM   11  C   UNL     1      44.011 -17.555   5.006  1.00  0.00     0.279 C 
HETATM   12  O   UNL     1      44.677 -17.027   5.891  1.00  0.00    -0.265 OA
HETATM   13  H   UNL     1      42.656 -17.486   3.506  1.00  0.00     0.169 HD
BRANCH  11  14
HETATM   14  C   UNL     1      43.933 -18.998   4.868  1.00  0.00     0.142 A 
HETATM   15  O   UNL     1      43.915 -19.560   3.615  1.00  0.00    -0.317 OA
HETATM   16  C   UNL     1      43.844 -20.905   3.783  1.00  0.00     0.143 A 
HETATM   17  C   UNL     1      43.806 -21.225   5.119  1.00  0.00     0.027 A 
HETATM   18  C   UNL     1      43.864 -19.997   5.820  1.00  0.00     0.045 A 
ENDBRANCH  11  14
ENDBRANCH   5  10
ENDBRANCH   1   3
BRANCH   1  19
HETATM   19  O   UNL     1      41.112 -12.219   6.170  1.00  0.00    -0.308 OA
BRANCH  19  20
HETATM   20  C   UNL     1      40.662 -10.872   5.987  1.00  0.00     0.281 C 
BRANCH  20  21
HETATM   21  C   UNL     1      39.796 -10.648   4.741  1.00  0.00     0.242 C 
HETATM   22  N   UNL     1      39.511 -11.791   4.031  1.00  0.00    -0.355 N 
HETATM   23  H   UNL     1      39.949 -12.664   4.323  1.00  0.00     0.162 HD
HETATM   24  O   UNL     1      39.367  -9.537   4.437  1.00  0.00    -0.271 OA
BRANCH  22  25
HETATM   25  C   UNL     1      38.823 -11.769   2.764  1.00  0.00     0.161 C 
BRANCH  25  26
HETATM   26  C   UNL     1      39.284 -12.881   1.854  1.00  0.00    -0.038 A 
HETATM   27  C   UNL     1      39.575 -12.635   0.500  1.00  0.00     0.045 A 
HETATM   28  C   UNL     1      40.004 -13.671  -0.335  1.00  0.00     0.068 A 
HETATM   29  C   UNL     1      40.152 -14.957   0.191  1.00  0.00     0.037 A 
HETATM   30  C   UNL     1      39.860 -15.216   1.528  1.00  0.00     0.003 A 
HETATM   31  C   UNL     1      39.422 -14.183   2.355  1.00  0.00     0.009 A 
BRANCH  28  32
HETATM   32  O   UNL     1      40.315 -13.560  -1.663  1.00  0.00    -0.356 OA
HETATM   33  C   UNL     1      39.240 -13.701  -2.582  1.00  0.00     0.210 C 
ENDBRANCH  28  32
ENDBRANCH  25  26
ENDBRANCH  22  25
ENDBRANCH  20  21
ENDBRANCH  19  20
ENDBRANCH   1  19
TORSDOF 9
ENDMDL
MODEL 4
REMARK VINA RESULT:      -8.4      1.873      9.496
REMARK  9 active torsions:
REMARK  status: ('A' for Active; 'I' for Inactive)
REMARK    1  A    between atoms: C_3  and  N_4 
REMARK       I    between atoms: N_4  and  C_5 
REMARK    2  A    between atoms: C_5  and  C_6 
REMARK    3  A    between atoms: C_13  and  C_14 
REMARK    4  A    between atoms: C_14  and  O_15 
REMARK    5  A    between atoms: O_15  and  C_16 
REMARK    6  A    between atoms: C_16  and  C_17 
REMARK       I    between atoms: C_17  and  N_18 
REMARK    7  A    between atoms: N_18  and  C_19 
REMARK    8  A    between atoms: C_19  and  C_20 
REMARK    9  A    between atoms: C_22  and  O_23 
ROOT
HETATM    1  C   UNL     1      43.875 -11.687   5.128  1.00  0.00     0.293 C 
HETATM    2  O   UNL     1      44.410 -11.435   4.058  1.00  0.00    -0.259 OA
ENDROOT
BRANCH   1   3
HETATM    3  C   UNL     1      44.392 -11.203   6.432  1.00  0.00     0.041 A 
HETATM    4  C   UNL     1      43.467 -11.006   7.467  1.00  0.00     0.047 A 
HETATM    5  C   UNL     1      43.871 -10.558   8.730  1.00  0.00     0.042 A 
HETATM    6  C   UNL     1      45.237 -10.282   8.950  1.00  0.00    -0.035 A 
HETATM    7  C   UNL     1      45.762  -9.774  10.268  1.00  0.00     0.050 C 
HETATM    8  C   UNL     1      46.158 -10.467   7.901  1.00  0.00     0.010 A 
HETATM    9  C   UNL     1      45.742 -10.933   6.653  1.00  0.00     0.018 A 
BRANCH   5  10
HETATM   10  N   UNL     1      42.948 -10.359   9.781  1.00  0.00    -0.321 N 
HETATM   11  C   UNL     1      42.130  -9.263  10.001  1.00  0.00     0.279 C 
HETATM   12  O   UNL     1      42.028  -8.293   9.257  1.00  0.00    -0.265 OA
HETATM   13  H   UNL     1      42.809 -11.118  10.438  1.00  0.00     0.169 HD
BRANCH  11  14
HETATM   14  C   UNL     1      41.335  -9.385  11.210  1.00  0.00     0.142 A 
HETATM   15  O   UNL     1      40.079  -8.832  11.255  1.00  0.00    -0.317 OA
HETATM   16  C   UNL     1      39.571  -9.099  12.486  1.00  0.00     0.143 A 
HETATM   17  C   UNL     1      40.477  -9.806  13.241  1.00  0.00     0.027 A 
HETATM   18  C   UNL     1      41.614  -9.991  12.420  1.00  0.00     0.045 A 
ENDBRANCH  11  14
ENDBRANCH   5  10
ENDBRANCH   1   3
BRANCH   1  19
HETATM   19  O   UNL     1      42.720 -12.376   5.280  1.00  0.00    -0.308 OA
BRANCH  19  20
HETATM   20  C   UNL     1      41.829 -12.329   4.161  1.00  0.00     0.281 C 
BRANCH  20  21
HETATM   21  C   UNL     1      41.632 -13.667   3.439  1.00  0.00     0.242 C 
HETATM   22  N   UNL     1      42.798 -14.341   3.157  1.00  0.00    -0.355 N 
HETATM   23  H   UNL     1      43.684 -13.881   3.364  1.00  0.00     0.162 HD
HETATM   24  O   UNL     1      40.515 -14.107   3.175  1.00  0.00    -0.271 OA
BRANCH  22  25
HETATM   25  C   UNL     1      42.828 -15.549   2.371  1.00  0.00     0.161 C 
BRANCH  25  26
HETATM   26  C   UNL     1      43.225 -16.748   3.197  1.00  0.00    -0.038 A 
HETATM   27  C   UNL     1      43.183 -16.703   4.603  1.00  0.00     0.045 A 
HETATM   28  C   UNL     1      43.551 -17.819   5.360  1.00  0.00     0.068 A 
HETATM   29  C   UNL     1      43.951 -18.988   4.708  1.00  0.00     0.037 A 
HETATM   30  C   UNL     1      44.004 -19.042   3.317  1.00  0.00     0.003 A 
HETATM   31  C   UNL     1      43.647 -17.925   2.565  1.00  0.00     0.009 A 
BRANCH  28  32
HETATM   32  O   UNL     1      43.555 -17.900   6.727  1.00  0.00    -0.356 OA
HETATM   33  C   UNL     1      43.763 -16.686   7.436  1.00  0.00     0.210 C 
ENDBRANCH  28  32
ENDBRANCH  25  26
ENDBRANCH  22  25
ENDBRANCH  20  21
ENDBRANCH  19  20
ENDBRANCH   1  19
TORSDOF 9
ENDMDL
MODEL 5
REMARK VINA RESULT:      -8.3      1.570      2.172
REMARK  9 active torsions:
REMARK  status: ('A' for Active; 'I' for Inactive)
REMARK    1  A    between atoms: C_3  and  N_4 
REMARK       I    between atoms: N_4  and  C_5 
REMARK    2  A    between atoms: C_5  and  C_6 
REMARK    3  A    between atoms: C_13  and  C_14 
REMARK    4  A    between atoms: C_14  and  O_15 
REMARK    5  A    between atoms: O_15  and  C_16 
REMARK    6  A    between atoms: C_16  and  C_17 
REMARK       I    between atoms: C_17  and  N_18 
REMARK    7  A    between atoms: N_18  and  C_19 
REMARK    8  A    between atoms: C_19  and  C_20 
REMARK    9  A    between atoms: C_22  and  O_23 
ROOT
HETATM    1  C   UNL     1      43.684 -11.628   4.465  1.00  0.00     0.293 C 
HETATM    2  O   UNL     1      43.990 -11.411   3.302  1.00  0.00    -0.259 OA
ENDROOT
BRANCH   1   3
HETATM    3  C   UNL     1      42.824 -12.764   4.884  1.00  0.00     0.041 A 
HETATM    4  C   UNL     1      43.073 -14.017   4.305  1.00  0.00     0.047 A 
HETATM    5  C   UNL     1      42.313 -15.141   4.649  1.00  0.00     0.042 A 
HETATM    6  C   UNL     1      41.265 -14.996   5.581  1.00  0.00    -0.035 A 
HETATM    7  C   UNL     1      40.379 -16.143   5.994  1.00  0.00     0.050 C 
HETATM    8  C   UNL     1      41.011 -13.731   6.145  1.00  0.00     0.010 A 
HETATM    9  C   UNL     1      41.790 -12.623   5.807  1.00  0.00     0.018 A 
BRANCH   5  10
HETATM   10  N   UNL     1      42.558 -16.409   4.075  1.00  0.00    -0.321 N 
HETATM   11  C   UNL     1      43.554 -17.316   4.403  1.00  0.00     0.279 C 
HETATM   12  O   UNL     1      44.361 -17.182   5.317  1.00  0.00    -0.265 OA
HETATM   13  H   UNL     1      41.909 -16.744   3.372  1.00  0.00     0.169 HD
BRANCH  11  14
HETATM   14  C   UNL     1      43.530 -18.506   3.573  1.00  0.00     0.142 A 
HETATM   15  O   UNL     1      44.032 -19.686   4.063  1.00  0.00    -0.317 OA
HETATM   16  C   UNL     1      43.879 -20.619   3.089  1.00  0.00     0.143 A 
HETATM   17  C   UNL     1      43.295 -20.065   1.974  1.00  0.00     0.027 A 
HETATM   18  C   UNL     1      43.070 -18.703   2.285  1.00  0.00     0.045 A 
ENDBRANCH  11  14
ENDBRANCH   5  10
ENDBRANCH   1   3
BRANCH   1  19
HETATM   19  O   UNL     1      44.122 -10.921   5.533  1.00  0.00    -0.308 OA
BRANCH  19  20
HETATM   20  C   UNL     1      45.233 -11.494   6.230  1.00  0.00     0.281 C 
BRANCH  20  21
HETATM   21  C   UNL     1      45.731 -10.676   7.427  1.00  0.00     0.242 C 
HETATM   22  N   UNL     1      44.744 -10.284   8.301  1.00  0.00    -0.355 N 
HETATM   23  H   UNL     1      43.775 -10.484   8.057  1.00  0.00     0.162 HD
HETATM   24  O   UNL     1      46.924 -10.431   7.600  1.00  0.00    -0.271 OA
BRANCH  22  25
HETATM   25  C   UNL     1      44.994  -9.402   9.414  1.00  0.00     0.161 C 
BRANCH  25  26
HETATM   26  C   UNL     1      43.765  -9.214  10.270  1.00  0.00    -0.038 A 
HETATM   27  C   UNL     1      42.476  -9.363   9.728  1.00  0.00     0.045 A 
HETATM   28  C   UNL     1      41.344  -9.190  10.529  1.00  0.00     0.068 A 
HETATM   29  C   UNL     1      41.503  -8.877  11.881  1.00  0.00     0.037 A 
HETATM   30  C   UNL     1      42.774  -8.719  12.429  1.00  0.00     0.003 A 
HETATM   31  C   UNL     1      43.901  -8.882  11.625  1.00  0.00     0.009 A 
BRANCH  28  32
HETATM   32  O   UNL     1      40.042  -9.305  10.121  1.00  0.00    -0.356 OA
HETATM   33  C   UNL     1      39.825  -9.497   8.730  1.00  0.00     0.210 C 
ENDBRANCH  28  32
ENDBRANCH  25  26
ENDBRANCH  22  25
ENDBRANCH  20  21
ENDBRANCH  19  20
ENDBRANCH   1  19
TORSDOF 9
ENDMDL
MODEL 6
REMARK VINA RESULT:      -8.2      2.417      3.570
REMARK  9 active torsions:
REMARK  status: ('A' for Active; 'I' for Inactive)
REMARK    1  A    between atoms: C_3  and  N_4 
REMARK       I    between atoms: N_4  and  C_5 
REMARK    2  A    between atoms: C_5  and  C_6 
REMARK    3  A    between atoms: C_13  and  C_14 
REMARK    4  A    between atoms: C_14  and  O_15 
REMARK    5  A    between atoms: O_15  and  C_16 
REMARK    6  A    between atoms: C_16  and  C_17 
REMARK       I    between atoms: C_17  and  N_18 
REMARK    7  A    between atoms: N_18  and  C_19 
REMARK    8  A    between atoms: C_19  and  C_20 
REMARK    9  A    between atoms: C_22  and  O_23 
ROOT
HETATM    1  C   UNL     1      45.009 -10.783   7.757  1.00  0.00     0.293 C 
HETATM    2  O   UNL     1      45.806 -10.015   7.239  1.00  0.00    -0.259 OA
ENDROOT
BRANCH   1   3
HETATM    3  C   UNL     1      43.944 -11.487   7.000  1.00  0.00     0.041 A 
HETATM    4  C   UNL     1      44.154 -12.837   6.682  1.00  0.00     0.047 A 
HETATM    5  C   UNL     1      43.199 -13.576   5.976  1.00  0.00     0.042 A 
HETATM    6  C   UNL     1      42.012 -12.936   5.562  1.00  0.00    -0.035 A 
HETATM    7  C   UNL     1      40.938 -13.645   4.777  1.00  0.00     0.050 C 
HETATM    8  C   UNL     1      41.815 -11.577   5.870  1.00  0.00     0.010 A 
HETATM    9  C   UNL     1      42.769 -10.858   6.592  1.00  0.00     0.018 A 
BRANCH   5  10
HETATM   10  N   UNL     1      43.399 -14.937   5.655  1.00  0.00    -0.321 N 
HETATM   11  C   UNL     1      43.028 -16.052   6.392  1.00  0.00     0.279 C 
HETATM   12  O   UNL     1      42.388 -16.029   7.438  1.00  0.00    -0.265 OA
HETATM   13  H   UNL     1      43.815 -15.156   4.757  1.00  0.00     0.169 HD
BRANCH  11  14
HETATM   14  C   UNL     1      43.434 -17.300   5.772  1.00  0.00     0.142 A 
HETATM   15  O   UNL     1      43.844 -17.305   4.461  1.00  0.00    -0.317 OA
HETATM   16  C   UNL     1      44.165 -18.588   4.150  1.00  0.00     0.143 A 
HETATM   17  C   UNL     1      43.963 -19.413   5.231  1.00  0.00     0.027 A 
HETATM   18  C   UNL     1      43.493 -18.585   6.277  1.00  0.00     0.045 A 
ENDBRANCH  11  14
ENDBRANCH   5  10
ENDBRANCH   1   3
BRANCH   1  19
HETATM   19  O   UNL     1      45.013 -11.150   9.060  1.00  0.00    -0.308 OA
BRANCH  19  20
HETATM   20  C   UNL     1      44.682 -10.112   9.988  1.00  0.00     0.281 C 
BRANCH  20  21
HETATM   21  C   UNL     1      43.812 -10.558  11.169  1.00  0.00     0.242 C 
HETATM   22  N   UNL     1      42.706  -9.771  11.393  1.00  0.00    -0.355 N 
HETATM   23  H   UNL     1      42.592  -8.927  10.833  1.00  0.00     0.162 HD
HETATM   24  O   UNL     1      44.072 -11.563  11.828  1.00  0.00    -0.271 OA
BRANCH  22  25
HETATM   25  C   UNL     1      41.840  -9.951  12.532  1.00  0.00     0.161 C 
BRANCH  25  26
HETATM   26  C   UNL     1      42.040  -8.870  13.566  1.00  0.00    -0.038 A 
HETATM   27  C   UNL     1      41.228  -8.809  14.714  1.00  0.00     0.045 A 
HETATM   28  C   UNL     1      41.422  -7.806  15.668  1.00  0.00     0.068 A 
HETATM   29  C   UNL     1      42.438  -6.866  15.478  1.00  0.00     0.037 A 
HETATM   30  C   UNL     1      43.244  -6.911  14.341  1.00  0.00     0.003 A 
HETATM   31  C   UNL     1      43.041  -7.906  13.387  1.00  0.00     0.009 A 
BRANCH  28  32
HETATM   32  O   UNL     1      40.702  -7.638  16.820  1.00  0.00    -0.356 OA
HETATM   33  C   UNL     1      41.432  -7.678  18.039  1.00  0.00     0.210 C 
ENDBRANCH  28  32
ENDBRANCH  25  26
ENDBRANCH  22  25
ENDBRANCH  20  21
ENDBRANCH  19  20
ENDBRANCH   1  19
TORSDOF 9
ENDMDL
MODEL 7
REMARK VINA RESULT:      -8.2      2.594      8.740
REMARK  9 active torsions:
REMARK  status: ('A' for Active; 'I' for Inactive)
REMARK    1  A    between atoms: C_3  and  N_4 
REMARK       I    between atoms: N_4  and  C_5 
REMARK    2  A    between atoms: C_5  and  C_6 
REMARK    3  A    between atoms: C_13  and  C_14 
REMARK    4  A    between atoms: C_14  and  O_15 
REMARK    5  A    between atoms: O_15  and  C_16 
REMARK    6  A    between atoms: C_16  and  C_17 
REMARK       I    between atoms: C_17  and  N_18 
REMARK    7  A    between atoms: N_18  and  C_19 
REMARK    8  A    between atoms: C_19  and  C_20 
REMARK    9  A    between atoms: C_22  and  O_23 
ROOT
HETATM    1  C   UNL     1      39.976 -11.971   4.068  1.00  0.00     0.293 C 
HETATM    2  O   UNL     1      38.975 -12.448   4.582  1.00  0.00    -0.259 OA
ENDROOT
BRANCH   1   3
HETATM    3  C   UNL     1      41.310 -11.980   4.719  1.00  0.00     0.041 A 
HETATM    4  C   UNL     1      41.423 -11.378   5.981  1.00  0.00     0.047 A 
HETATM    5  C   UNL     1      42.643 -11.348   6.667  1.00  0.00     0.042 A 
HETATM    6  C   UNL     1      43.780 -11.919   6.058  1.00  0.00    -0.035 A 
HETATM    7  C   UNL     1      45.139 -11.912   6.710  1.00  0.00     0.050 C 
HETATM    8  C   UNL     1      43.662 -12.506   4.784  1.00  0.00     0.010 A 
HETATM    9  C   UNL     1      42.435 -12.546   4.122  1.00  0.00     0.018 A 
BRANCH   5  10
HETATM   10  N   UNL     1      42.766 -10.748   7.940  1.00  0.00    -0.321 N 
HETATM   11  C   UNL     1      42.840  -9.398   8.243  1.00  0.00     0.279 C 
HETATM   12  O   UNL     1      42.737  -8.483   7.433  1.00  0.00    -0.265 OA
HETATM   13  H   UNL     1      42.749 -11.354   8.752  1.00  0.00     0.169 HD
BRANCH  11  14
HETATM   14  C   UNL     1      43.006  -9.146   9.663  1.00  0.00     0.142 A 
HETATM   15  O   UNL     1      41.901  -8.928  10.448  1.00  0.00    -0.317 OA
HETATM   16  C   UNL     1      42.346  -8.728  11.715  1.00  0.00     0.143 A 
HETATM   17  C   UNL     1      43.718  -8.803  11.764  1.00  0.00     0.027 A 
HETATM   18  C   UNL     1      44.145  -9.072  10.442  1.00  0.00     0.045 A 
ENDBRANCH  11  14
ENDBRANCH   5  10
ENDBRANCH   1   3
BRANCH   1  19
HETATM   19  O   UNL     1      40.036 -11.431   2.828  1.00  0.00    -0.308 OA
BRANCH  19  20
HETATM   20  C   UNL     1      39.386 -12.187   1.801  1.00  0.00     0.281 C 
BRANCH  20  21
HETATM   21  C   UNL     1      39.966 -13.587   1.570  1.00  0.00     0.242 C 
HETATM   22  N   UNL     1      39.386 -14.577   2.329  1.00  0.00    -0.355 N 
HETATM   23  H   UNL     1      38.695 -14.308   3.028  1.00  0.00     0.162 HD
HETATM   24  O   UNL     1      40.850 -13.799   0.742  1.00  0.00    -0.271 OA
BRANCH  22  25
HETATM   25  C   UNL     1      39.879 -15.932   2.349  1.00  0.00     0.161 C 
BRANCH  25  26
HETATM   26  C   UNL     1      41.002 -16.108   3.342  1.00  0.00    -0.038 A 
HETATM   27  C   UNL     1      40.795 -15.881   4.715  1.00  0.00     0.045 A 
HETATM   28  C   UNL     1      41.840 -16.048   5.628  1.00  0.00     0.068 A 
HETATM   29  C   UNL     1      43.095 -16.454   5.166  1.00  0.00     0.037 A 
HETATM   30  C   UNL     1      43.314 -16.675   3.808  1.00  0.00     0.003 A 
HETATM   31  C   UNL     1      42.273 -16.497   2.899  1.00  0.00     0.009 A 
BRANCH  28  32
HETATM   32  O   UNL     1      41.767 -15.857   6.981  1.00  0.00    -0.356 OA
HETATM   33  C   UNL     1      42.908 -15.283   7.605  1.00  0.00     0.210 C 
ENDBRANCH  28  32
ENDBRANCH  25  26
ENDBRANCH  22  25
ENDBRANCH  20  21
ENDBRANCH  19  20
ENDBRANCH   1  19
TORSDOF 9
ENDMDL
MODEL 8
REMARK VINA RESULT:      -8.2      2.774      4.246
REMARK  9 active torsions:
REMARK  status: ('A' for Active; 'I' for Inactive)
REMARK    1  A    between atoms: C_3  and  N_4 
REMARK       I    between atoms: N_4  and  C_5 
REMARK    2  A    between atoms: C_5  and  C_6 
REMARK    3  A    between atoms: C_13  and  C_14 
REMARK    4  A    between atoms: C_14  and  O_15 
REMARK    5  A    between atoms: O_15  and  C_16 
REMARK    6  A    between atoms: C_16  and  C_17 
REMARK       I    between atoms: C_17  and  N_18 
REMARK    7  A    between atoms: N_18  and  C_19 
REMARK    8  A    between atoms: C_19  and  C_20 
REMARK    9  A    between atoms: C_22  and  O_23 
ROOT
HETATM    1  C   UNL     1      44.690 -11.706   6.645  1.00  0.00     0.293 C 
HETATM    2  O   UNL     1      45.353 -11.103   5.814  1.00  0.00    -0.259 OA
ENDROOT
BRANCH   1   3
HETATM    3  C   UNL     1      43.788 -12.835   6.305  1.00  0.00     0.041 A 
HETATM    4  C   UNL     1      43.170 -12.819   5.047  1.00  0.00     0.047 A 
HETATM    5  C   UNL     1      42.310 -13.848   4.645  1.00  0.00     0.042 A 
HETATM    6  C   UNL     1      42.050 -14.907   5.540  1.00  0.00    -0.035 A 
HETATM    7  C   UNL     1      41.121 -16.045   5.204  1.00  0.00     0.050 C 
HETATM    8  C   UNL     1      42.662 -14.907   6.807  1.00  0.00     0.010 A 
HETATM    9  C   UNL     1      43.533 -13.884   7.186  1.00  0.00     0.018 A 
BRANCH   5  10
HETATM   10  N   UNL     1      41.685 -13.844   3.378  1.00  0.00    -0.321 N 
HETATM   11  C   UNL     1      42.227 -14.217   2.158  1.00  0.00     0.279 C 
HETATM   12  O   UNL     1      43.348 -14.688   1.995  1.00  0.00    -0.265 OA
HETATM   13  H   UNL     1      40.705 -13.592   3.335  1.00  0.00     0.169 HD
BRANCH  11  14
HETATM   14  C   UNL     1      41.303 -14.043   1.052  1.00  0.00     0.142 A 
HETATM   15  O   UNL     1      41.255 -12.840   0.391  1.00  0.00    -0.317 OA
HETATM   16  C   UNL     1      40.320 -12.961  -0.586  1.00  0.00     0.143 A 
HETATM   17  C   UNL     1      39.756 -14.215  -0.565  1.00  0.00     0.027 A 
HETATM   18  C   UNL     1      40.389 -14.913   0.490  1.00  0.00     0.045 A 
ENDBRANCH  11  14
ENDBRANCH   5  10
ENDBRANCH   1   3
BRANCH   1  19
HETATM   19  O   UNL     1      44.722 -11.485   7.980  1.00  0.00    -0.308 OA
BRANCH  19  20
HETATM   20  C   UNL     1      45.661 -10.495   8.412  1.00  0.00     0.281 C 
BRANCH  20  21
HETATM   21  C   UNL     1      45.038  -9.163   8.844  1.00  0.00     0.242 C 
HETATM   22  N   UNL     1      44.122  -9.265   9.866  1.00  0.00    -0.355 N 
HETATM   23  H   UNL     1      43.868 -10.196  10.195  1.00  0.00     0.162 HD
HETATM   24  O   UNL     1      45.368  -8.093   8.336  1.00  0.00    -0.271 OA
BRANCH  22  25
HETATM   25  C   UNL     1      43.336  -8.146  10.322  1.00  0.00     0.161 C 
BRANCH  25  26
HETATM   26  C   UNL     1      42.776  -8.379  11.704  1.00  0.00    -0.038 A 
HETATM   27  C   UNL     1      41.696  -9.257  11.909  1.00  0.00     0.045 A 
HETATM   28  C   UNL     1      41.186  -9.468  13.193  1.00  0.00     0.068 A 
HETATM   29  C   UNL     1      41.765  -8.806  14.278  1.00  0.00     0.037 A 
HETATM   30  C   UNL     1      42.830  -7.928  14.087  1.00  0.00     0.003 A 
HETATM   31  C   UNL     1      43.330  -7.711  12.805  1.00  0.00     0.009 A 
BRANCH  28  32
HETATM   32  O   UNL     1      40.143 -10.292  13.521  1.00  0.00    -0.356 OA
HETATM   33  C   UNL     1      39.337 -10.757  12.447  1.00  0.00     0.210 C 
ENDBRANCH  28  32
ENDBRANCH  25  26
ENDBRANCH  22  25
ENDBRANCH  20  21
ENDBRANCH  19  20
ENDBRANCH   1  19
TORSDOF 9
ENDMDL
MODEL 9
REMARK VINA RESULT:      -8.2      2.622      4.526
REMARK  9 active torsions:
REMARK  status: ('A' for Active; 'I' for Inactive)
REMARK    1  A    between atoms: C_3  and  N_4 
REMARK       I    between atoms: N_4  and  C_5 
REMARK    2  A    between atoms: C_5  and  C_6 
REMARK    3  A    between atoms: C_13  and  C_14 
REMARK    4  A    between atoms: C_14  and  O_15 
REMARK    5  A    between atoms: O_15  and  C_16 
REMARK    6  A    between atoms: C_16  and  C_17 
REMARK       I    between atoms: C_17  and  N_18 
REMARK    7  A    between atoms: N_18  and  C_19 
REMARK    8  A    between atoms: C_19  and  C_20 
REMARK    9  A    between atoms: C_22  and  O_23 
ROOT
HETATM    1  C   UNL     1      43.258 -14.562   7.146  1.00  0.00     0.293 C 
HETATM    2  O   UNL     1      43.143 -15.055   8.258  1.00  0.00    -0.259 OA
ENDROOT
BRANCH   1   3
HETATM    3  C   UNL     1      43.278 -15.364   5.896  1.00  0.00     0.041 A 
HETATM    4  C   UNL     1      42.675 -14.810   4.757  1.00  0.00     0.047 A 
HETATM    5  C   UNL     1      42.656 -15.496   3.538  1.00  0.00     0.042 A 
HETATM    6  C   UNL     1      43.238 -16.779   3.468  1.00  0.00    -0.035 A 
HETATM    7  C   UNL     1      43.244 -17.602   2.205  1.00  0.00     0.050 C 
HETATM    8  C   UNL     1      43.827 -17.335   4.620  1.00  0.00     0.010 A 
HETATM    9  C   UNL     1      43.856 -16.630   5.824  1.00  0.00     0.018 A 
BRANCH   5  10
HETATM   10  N   UNL     1      42.055 -14.946   2.383  1.00  0.00    -0.321 N 
HETATM   11  C   UNL     1      40.758 -15.126   1.929  1.00  0.00     0.279 C 
HETATM   12  O   UNL     1      39.883 -15.756   2.514  1.00  0.00    -0.265 OA
HETATM   13  H   UNL     1      42.600 -14.295   1.830  1.00  0.00     0.169 HD
BRANCH  11  14
HETATM   14  C   UNL     1      40.497 -14.438   0.677  1.00  0.00     0.142 A 
HETATM   15  O   UNL     1      41.028 -13.190   0.465  1.00  0.00    -0.317 OA
HETATM   16  C   UNL     1      40.632 -12.794  -0.772  1.00  0.00     0.143 A 
HETATM   17  C   UNL     1      39.848 -13.757  -1.361  1.00  0.00     0.027 A 
HETATM   18  C   UNL     1      39.760 -14.818  -0.428  1.00  0.00     0.045 A 
ENDBRANCH  11  14
ENDBRANCH   5  10
ENDBRANCH   1   3
BRANCH   1  19
HETATM   19  O   UNL     1      43.320 -13.236   6.882  1.00  0.00    -0.308 OA
BRANCH  19  20
HETATM   20  C   UNL     1      44.641 -12.695   6.779  1.00  0.00     0.281 C 
BRANCH  20  21
HETATM   21  C   UNL     1      44.729 -11.176   6.962  1.00  0.00     0.242 C 
HETATM   22  N   UNL     1      45.787 -10.754   7.735  1.00  0.00    -0.355 N 
HETATM   23  H   UNL     1      46.368 -11.460   8.185  1.00  0.00     0.162 HD
HETATM   24  O   UNL     1      43.935 -10.406   6.425  1.00  0.00    -0.271 OA
BRANCH  22  25
HETATM   25  C   UNL     1      45.965  -9.379   8.128  1.00  0.00     0.161 C 
BRANCH  25  26
HETATM   26  C   UNL     1      44.919  -8.939   9.124  1.00  0.00    -0.038 A 
HETATM   27  C   UNL     1      44.635  -9.714  10.264  1.00  0.00     0.045 A 
HETATM   28  C   UNL     1      43.667  -9.298  11.182  1.00  0.00     0.068 A 
HETATM   29  C   UNL     1      42.988  -8.097  10.964  1.00  0.00     0.037 A 
HETATM   30  C   UNL     1      43.254  -7.325   9.836  1.00  0.00     0.003 A 
HETATM   31  C   UNL     1      44.212  -7.747   8.917  1.00  0.00     0.009 A 
BRANCH  28  32
HETATM   32  O   UNL     1      43.300  -9.960  12.322  1.00  0.00    -0.356 OA
HETATM   33  C   UNL     1      42.378  -9.295  13.176  1.00  0.00     0.210 C 
ENDBRANCH  28  32
ENDBRANCH  25  26
ENDBRANCH  22  25
ENDBRANCH  20  21
ENDBRANCH  19  20
ENDBRANCH   1  19
TORSDOF 9
ENDMDL
MODEL 10
REMARK VINA RESULT:      -8.1      2.145      9.338
REMARK  9 active torsions:
REMARK  status: ('A' for Active; 'I' for Inactive)
REMARK    1  A    between atoms: C_3  and  N_4 
REMARK       I    between atoms: N_4  and  C_5 
REMARK    2  A    between atoms: C_5  and  C_6 
REMARK    3  A    between atoms: C_13  and  C_14 
REMARK    4  A    between atoms: C_14  and  O_15 
REMARK    5  A    between atoms: O_15  and  C_16 
REMARK    6  A    between atoms: C_16  and  C_17 
REMARK       I    between atoms: C_17  and  N_18 
REMARK    7  A    between atoms: N_18  and  C_19 
REMARK    8  A    between atoms: C_19  and  C_20 
REMARK    9  A    between atoms: C_22  and  O_23 
ROOT
HETATM    1  C   UNL     1      40.631 -12.363   3.897  1.00  0.00     0.293 C 
HETATM    2  O   UNL     1      39.597 -12.581   4.510  1.00  0.00    -0.259 OA
ENDROOT
BRANCH   1   3
HETATM    3  C   UNL     1      41.919 -12.037   4.559  1.00  0.00     0.041 A 
HETATM    4  C   UNL     1      41.872 -11.579   5.884  1.00  0.00     0.047 A 
HETATM    5  C   UNL     1      43.040 -11.255   6.584  1.00  0.00     0.042 A 
HETATM    6  C   UNL     1      44.283 -11.374   5.928  1.00  0.00    -0.035 A 
HETATM    7  C   UNL     1      45.590 -11.026   6.592  1.00  0.00     0.050 C 
HETATM    8  C   UNL     1      44.320 -11.819   4.592  1.00  0.00     0.010 A 
HETATM    9  C   UNL     1      43.148 -12.158   3.914  1.00  0.00     0.018 A 
BRANCH   5  10
HETATM   10  N   UNL     1      43.005 -10.796   7.920  1.00  0.00    -0.321 N 
HETATM   11  C   UNL     1      42.806  -9.501   8.372  1.00  0.00     0.279 C 
HETATM   12  O   UNL     1      42.554  -8.533   7.662  1.00  0.00    -0.265 OA
HETATM   13  H   UNL     1      43.079 -11.486   8.659  1.00  0.00     0.169 HD
BRANCH  11  14
HETATM   14  C   UNL     1      42.875  -9.391   9.818  1.00  0.00     0.142 A 
HETATM   15  O   UNL     1      41.769  -9.690  10.575  1.00  0.00    -0.317 OA
HETATM   16  C   UNL     1      42.116  -9.507  11.875  1.00  0.00     0.143 A 
HETATM   17  C   UNL     1      43.421  -9.088  11.974  1.00  0.00     0.027 A 
HETATM   18  C   UNL     1      43.912  -9.013  10.649  1.00  0.00     0.045 A 
ENDBRANCH  11  14
ENDBRANCH   5  10
ENDBRANCH   1   3
BRANCH   1  19
HETATM   19  O   UNL     1      40.775 -12.446   2.554  1.00  0.00    -0.308 OA
BRANCH  19  20
HETATM   20  C   UNL     1      39.954 -13.427   1.911  1.00  0.00     0.281 C 
BRANCH  20  21
HETATM   21  C   UNL     1      40.584 -14.821   1.804  1.00  0.00     0.242 C 
HETATM   22  N   UNL     1      41.959 -14.824   1.749  1.00  0.00    -0.355 N 
HETATM   23  H   UNL     1      42.442 -13.928   1.700  1.00  0.00     0.162 HD
HETATM   24  O   UNL     1      39.905 -15.846   1.806  1.00  0.00    -0.271 OA
BRANCH  22  25
HETATM   25  C   UNL     1      42.726 -16.022   1.517  1.00  0.00     0.161 C 
BRANCH  25  26
HETATM   26  C   UNL     1      43.195 -16.648   2.808  1.00  0.00    -0.038 A 
HETATM   27  C   UNL     1      43.543 -18.010   2.867  1.00  0.00     0.045 A 
HETATM   28  C   UNL     1      43.979 -18.580   4.067  1.00  0.00     0.068 A 
HETATM   29  C   UNL     1      44.077 -17.781   5.209  1.00  0.00     0.037 A 
HETATM   30  C   UNL     1      43.728 -16.433   5.165  1.00  0.00     0.003 A 
HETATM   31  C   UNL     1      43.284 -15.870   3.971  1.00  0.00     0.009 A 
BRANCH  28  32
HETATM   32  O   UNL     1      44.343 -19.886   4.254  1.00  0.00    -0.356 OA
HETATM   33  C   UNL     1      43.801 -20.834   3.344  1.00  0.00     0.210 C 
ENDBRANCH  28  32
ENDBRANCH  25  26
ENDBRANCH  22  25
ENDBRANCH  20  21
ENDBRANCH  19  20
ENDBRANCH   1  19
TORSDOF 9
ENDMDL
