MODEL 1
REMARK VINA RESULT:      -9.1      0.000      0.000
REMARK  5 active torsions:
REMARK  status: ('A' for Active; 'I' for Inactive)
REMARK    1  A    between atoms: C_3  and  C_4 
REMARK    2  A    between atoms: N_7  and  C_9 
REMARK    3  A    between atoms: C_9  and  C_10 
REMARK    4  A    between atoms: C_21  and  C_22 
REMARK    5  A    between atoms: C_22  and  N_23 
ROOT
HETATM    1  C   UNL     1      40.454 -15.905   5.045  1.00  0.00     0.159 C 
HETATM    2  N   UNL     1      41.221 -14.998   4.207  1.00  0.00    -0.323 N 
HETATM    3  C   UNL     1      41.615 -13.224   4.586  1.00  0.00     0.134 A 
HETATM    4  N   UNL     1      42.713 -12.692   3.441  1.00  0.00    -0.134 NA
HETATM    5  N   UNL     1      43.049 -14.254   2.333  1.00  0.00    -0.133 NA
HETATM    6  C   UNL     1      42.183 -15.530   2.804  1.00  0.00     0.155 A 
ENDROOT
BRANCH   3   7
HETATM    7  C   UNL     1      41.318 -12.728   5.838  1.00  0.00     0.060 C 
HETATM    8  C   UNL     1      42.615 -13.636   5.899  1.00  0.00     0.040 C 
HETATM    9  C   UNL     1      43.065 -14.230   4.167  1.00  0.00     0.236 C 
HETATM   10  N   UNL     1      41.313 -13.693   2.824  1.00  0.00    -0.067 N 
HETATM   11  H   UNL     1      40.841 -14.421   2.298  1.00  0.00     0.280 HD
HETATM   12  C   UNL     1      39.793 -12.856   3.554  1.00  0.00     0.236 C 
HETATM   13  C   UNL     1      39.860 -12.797   5.223  1.00  0.00     0.040 C 
BRANCH  10  14
HETATM   14  C   UNL     1      41.505 -12.663   1.421  1.00  0.00     0.273 C 
BRANCH  14  15
HETATM   15  C   UNL     1      40.435 -12.942   0.378  1.00  0.00    -0.030 A 
HETATM   16  C   UNL     1      40.274 -14.197  -0.226  1.00  0.00     0.051 A 
HETATM   17  C   UNL     1      39.273 -14.402  -1.174  1.00  0.00     0.117 A 
HETATM   18  F   UNL     1      39.124 -15.624  -1.697  1.00  0.00    -0.206 F 
HETATM   19  C   UNL     1      38.442 -13.368  -1.576  1.00  0.00     0.042 A 
HETATM   20  C   UNL     1      38.622 -12.102  -1.024  1.00  0.00     0.004 A 
HETATM   21  C   UNL     1      39.609 -11.890  -0.056  1.00  0.00     0.009 A 
ENDBRANCH  14  15
ENDBRANCH  10  14
ENDBRANCH   3   7
BRANCH   6  22
HETATM   22  C   UNL     1      42.068 -16.872   2.137  1.00  0.00     0.315 C 
BRANCH  22  23
HETATM   23  N   UNL     1      43.079 -17.970   2.503  1.00  0.00    -0.064 N 
HETATM   24  H   UNL     1      43.924 -17.809   1.941  1.00  0.00     0.280 HD
HETATM   25  C   UNL     1      43.474 -17.768   3.963  1.00  0.00     0.235 C 
HETATM   26  C   UNL     1      44.572 -18.701   4.452  1.00  0.00     0.028 C 
HETATM   27  C   UNL     1      44.075 -20.118   4.715  1.00  0.00     0.002 C 
HETATM   28  C   UNL     1      44.098 -21.027   3.495  1.00  0.00     0.002 C 
HETATM   29  C   UNL     1      43.787 -20.361   2.163  1.00  0.00     0.028 C 
HETATM   30  C   UNL     1      42.615 -19.387   2.189  1.00  0.00     0.235 C 
ENDBRANCH  22  23
ENDBRANCH   6  22
TORSDOF 5
ENDMDL
MODEL 2
REMARK VINA RESULT:      -9.0      1.947      6.419
REMARK  5 active torsions:
REMARK  status: ('A' for Active; 'I' for Inactive)
REMARK    1  A    between atoms: C_3  and  C_4 
REMARK    2  A    between atoms: N_7  and  C_9 
REMARK    3  A    between atoms: C_9  and  C_10 
REMARK    4  A    between atoms: C_21  and  C_22 
REMARK    5  A    between atoms: C_22  and  N_23 
ROOT
HETATM    1  C   UNL     1      43.238 -11.524   3.266  1.00  0.00     0.159 C 
HETATM    2  N   UNL     1      42.259 -12.496   3.724  1.00  0.00    -0.323 N 
HETATM    3  C   UNL     1      41.377 -12.478   5.358  1.00  0.00     0.134 A 
HETATM    4  N   UNL     1      40.191 -13.656   5.308  1.00  0.00    -0.134 NA
HETATM    5  N   UNL     1      40.323 -14.397   3.516  1.00  0.00    -0.133 NA
HETATM    6  C   UNL     1      41.505 -13.712   2.660  1.00  0.00     0.155 A 
ENDROOT
BRANCH   3   7
HETATM    7  C   UNL     1      41.505 -11.372   6.172  1.00  0.00     0.060 C 
HETATM    8  C   UNL     1      40.462 -11.086   5.015  1.00  0.00     0.040 C 
HETATM    9  C   UNL     1      40.225 -12.635   3.967  1.00  0.00     0.236 C 
HETATM   10  N   UNL     1      41.842 -14.100   4.602  1.00  0.00    -0.067 N 
HETATM   11  H   UNL     1      42.491 -14.462   3.913  1.00  0.00     0.280 HD
HETATM   12  C   UNL     1      43.093 -13.603   5.919  1.00  0.00     0.236 C 
HETATM   13  C   UNL     1      42.958 -11.986   6.323  1.00  0.00     0.040 C 
BRANCH  10  14
HETATM   14  C   UNL     1      41.457 -15.690   5.225  1.00  0.00     0.273 C 
BRANCH  14  15
HETATM   15  C   UNL     1      42.433 -16.736   4.714  1.00  0.00    -0.030 A 
HETATM   16  C   UNL     1      42.400 -17.228   3.401  1.00  0.00     0.051 A 
HETATM   17  C   UNL     1      43.322 -18.185   2.980  1.00  0.00     0.117 A 
HETATM   18  F   UNL     1      43.286 -18.597   1.708  1.00  0.00    -0.206 F 
HETATM   19  C   UNL     1      44.264 -18.706   3.854  1.00  0.00     0.042 A 
HETATM   20  C   UNL     1      44.278 -18.267   5.175  1.00  0.00     0.004 A 
HETATM   21  C   UNL     1      43.371 -17.291   5.602  1.00  0.00     0.009 A 
ENDBRANCH  14  15
ENDBRANCH  10  14
ENDBRANCH   3   7
BRANCH   6  22
HETATM   22  C   UNL     1      42.001 -14.089   1.293  1.00  0.00     0.315 C 
BRANCH  22  23
HETATM   23  N   UNL     1      41.268 -13.536   0.060  1.00  0.00    -0.064 N 
HETATM   24  H   UNL     1      41.890 -13.665  -0.748  1.00  0.00     0.280 HD
HETATM   25  C   UNL     1      40.043 -14.414  -0.182  1.00  0.00     0.235 C 
HETATM   26  C   UNL     1      39.271 -14.080  -1.450  1.00  0.00     0.028 C 
HETATM   27  C   UNL     1      38.424 -12.820  -1.315  1.00  0.00     0.002 C 
HETATM   28  C   UNL     1      39.160 -11.530  -1.643  1.00  0.00     0.002 C 
HETATM   29  C   UNL     1      40.631 -11.487  -1.253  1.00  0.00     0.028 C 
HETATM   30  C   UNL     1      40.947 -12.049   0.128  1.00  0.00     0.235 C 
ENDBRANCH  22  23
ENDBRANCH   6  22
TORSDOF 5
ENDMDL
MODEL 3
REMARK VINA RESULT:      -8.9      2.992      7.111
REMARK  5 active torsions:
REMARK  status: ('A' for Active; 'I' for Inactive)
REMARK    1  A    between atoms: C_3  and  C_4 
REMARK    2  A    between atoms: N_7  and  C_9 
REMARK    3  A    between atoms: C_9  and  C_10 
REMARK    4  A    between atoms: C_21  and  C_22 
REMARK    5  A    between atoms: C_22  and  N_23 
ROOT
HETATM    1  C   UNL     1      39.156 -13.173   3.133  1.00  0.00     0.159 C 
HETATM    2  N   UNL     1      40.552 -13.509   2.909  1.00  0.00    -0.323 N 
HETATM    3  C   UNL     1      41.246 -14.372   1.419  1.00  0.00     0.134 A 
HETATM    4  N   UNL     1      42.915 -14.309   1.528  1.00  0.00    -0.134 NA
HETATM    5  N   UNL     1      43.254 -13.298   3.153  1.00  0.00    -0.133 NA
HETATM    6  C   UNL     1      41.890 -12.869   3.898  1.00  0.00     0.155 A 
ENDROOT
BRANCH   3   7
HETATM    7  C   UNL     1      40.428 -14.581   0.329  1.00  0.00     0.060 C 
HETATM    8  C   UNL     1      40.869 -13.061   0.404  1.00  0.00     0.040 C 
HETATM    9  C   UNL     1      42.061 -12.808   1.841  1.00  0.00     0.236 C 
HETATM   10  N   UNL     1      42.023 -14.726   3.059  1.00  0.00    -0.067 N 
HETATM   11  H   UNL     1      41.777 -14.693   4.043  1.00  0.00     0.280 HD
HETATM   12  C   UNL     1      40.892 -16.141   2.545  1.00  0.00     0.236 C 
HETATM   13  C   UNL     1      39.864 -15.694   1.305  1.00  0.00     0.040 C 
BRANCH  10  14
HETATM   14  C   UNL     1      43.470 -15.668   3.348  1.00  0.00     0.273 C 
BRANCH  14  15
HETATM   15  C   UNL     1      43.393 -16.411   4.671  1.00  0.00    -0.030 A 
HETATM   16  C   UNL     1      43.172 -15.762   5.894  1.00  0.00     0.051 A 
HETATM   17  C   UNL     1      43.105 -16.491   7.080  1.00  0.00     0.117 A 
HETATM   18  F   UNL     1      42.849 -15.841   8.221  1.00  0.00    -0.206 F 
HETATM   19  C   UNL     1      43.297 -17.864   7.090  1.00  0.00     0.042 A 
HETATM   20  C   UNL     1      43.569 -18.517   5.891  1.00  0.00     0.004 A 
HETATM   21  C   UNL     1      43.617 -17.799   4.692  1.00  0.00     0.009 A 
ENDBRANCH  14  15
ENDBRANCH  10  14
ENDBRANCH   3   7
BRANCH   6  22
HETATM   22  C   UNL     1      41.733 -12.195   5.231  1.00  0.00     0.315 C 
BRANCH  22  23
HETATM   23  N   UNL     1      42.923 -11.416   5.813  1.00  0.00    -0.064 N 
HETATM   24  H   UNL     1      43.284 -10.806   5.068  1.00  0.00     0.280 HD
HETATM   25  C   UNL     1      42.384 -10.501   6.910  1.00  0.00     0.235 C 
HETATM   26  C   UNL     1      43.421  -9.559   7.507  1.00  0.00     0.028 C 
HETATM   27  C   UNL     1      44.375 -10.259   8.468  1.00  0.00     0.002 C 
HETATM   28  C   UNL     1      45.593 -10.880   7.801  1.00  0.00     0.002 C 
HETATM   29  C   UNL     1      45.365 -11.466   6.415  1.00  0.00     0.028 C 
HETATM   30  C   UNL     1      44.089 -12.285   6.265  1.00  0.00     0.235 C 
ENDBRANCH  22  23
ENDBRANCH   6  22
TORSDOF 5
ENDMDL
MODEL 4
REMARK VINA RESULT:      -8.9      3.236      6.927
REMARK  5 active torsions:
REMARK  status: ('A' for Active; 'I' for Inactive)
REMARK    1  A    between atoms: C_3  and  C_4 
REMARK    2  A    between atoms: N_7  and  C_9 
REMARK    3  A    between atoms: C_9  and  C_10 
REMARK    4  A    between atoms: C_21  and  C_22 
REMARK    5  A    between atoms: C_22  and  N_23 
ROOT
HETATM    1  C   UNL     1      39.927 -12.216   5.868  1.00  0.00     0.159 C 
HETATM    2  N   UNL     1      40.967 -12.199   4.854  1.00  0.00    -0.323 N 
HETATM    3  C   UNL     1      40.734 -11.828   3.050  1.00  0.00     0.134 A 
HETATM    4  N   UNL     1      42.252 -11.698   2.357  1.00  0.00    -0.134 NA
HETATM    5  N   UNL     1      43.482 -11.950   3.842  1.00  0.00    -0.133 NA
HETATM    6  C   UNL     1      42.710 -12.231   5.229  1.00  0.00     0.155 A 
ENDROOT
BRANCH   3   7
HETATM    7  C   UNL     1      39.512 -11.358   2.619  1.00  0.00     0.060 C 
HETATM    8  C   UNL     1      40.341 -10.193   3.302  1.00  0.00     0.040 C 
HETATM    9  C   UNL     1      42.045 -10.825   3.801  1.00  0.00     0.236 C 
HETATM   10  N   UNL     1      41.997 -13.083   3.548  1.00  0.00    -0.067 N 
HETATM   11  H   UNL     1      42.206 -13.682   4.340  1.00  0.00     0.280 HD
HETATM   12  C   UNL     1      40.415 -13.930   2.978  1.00  0.00     0.236 C 
HETATM   13  C   UNL     1      39.128 -12.864   2.921  1.00  0.00     0.040 C 
BRANCH  10  14
HETATM   14  C   UNL     1      43.113 -13.919   2.490  1.00  0.00     0.273 C 
BRANCH  14  15
HETATM   15  C   UNL     1      43.223 -15.391   2.853  1.00  0.00    -0.030 A 
HETATM   16  C   UNL     1      43.461 -15.834   4.161  1.00  0.00     0.051 A 
HETATM   17  C   UNL     1      43.549 -17.196   4.442  1.00  0.00     0.117 A 
HETATM   18  F   UNL     1      43.733 -17.581   5.710  1.00  0.00    -0.206 F 
HETATM   19  C   UNL     1      43.447 -18.144   3.436  1.00  0.00     0.042 A 
HETATM   20  C   UNL     1      43.263 -17.720   2.123  1.00  0.00     0.004 A 
HETATM   21  C   UNL     1      43.152 -16.356   1.833  1.00  0.00     0.009 A 
ENDBRANCH  14  15
ENDBRANCH  10  14
ENDBRANCH   3   7
BRANCH   6  22
HETATM   22  C   UNL     1      43.299 -12.594   6.563  1.00  0.00     0.315 C 
BRANCH  22  23
HETATM   23  N   UNL     1      43.586 -11.476   7.577  1.00  0.00    -0.064 N 
HETATM   24  H   UNL     1      43.271 -11.808   8.497  1.00  0.00     0.280 HD
HETATM   25  C   UNL     1      45.100 -11.307   7.663  1.00  0.00     0.235 C 
HETATM   26  C   UNL     1      45.562 -10.319   8.725  1.00  0.00     0.028 C 
HETATM   27  C   UNL     1      45.358  -8.865   8.314  1.00  0.00     0.002 C 
HETATM   28  C   UNL     1      43.984  -8.305   8.653  1.00  0.00     0.002 C 
HETATM   29  C   UNL     1      42.823  -9.283   8.547  1.00  0.00     0.028 C 
HETATM   30  C   UNL     1      42.842 -10.173   7.310  1.00  0.00     0.235 C 
ENDBRANCH  22  23
ENDBRANCH   6  22
TORSDOF 5
ENDMDL
MODEL 5
REMARK VINA RESULT:      -8.9      2.313      6.529
REMARK  5 active torsions:
REMARK  status: ('A' for Active; 'I' for Inactive)
REMARK    1  A    between atoms: C_3  and  C_4 
REMARK    2  A    between atoms: N_7  and  C_9 
REMARK    3  A    between atoms: C_9  and  C_10 
REMARK    4  A    between atoms: C_21  and  C_22 
REMARK    5  A    between atoms: C_22  and  N_23 
ROOT
HETATM    1  C   UNL     1      43.141 -11.532   3.072  1.00  0.00     0.159 C 
HETATM    2  N   UNL     1      42.141 -12.497   3.498  1.00  0.00    -0.323 N 
HETATM    3  C   UNL     1      41.319 -12.562   5.161  1.00  0.00     0.134 A 
HETATM    4  N   UNL     1      40.085 -13.689   5.075  1.00  0.00    -0.134 NA
HETATM    5  N   UNL     1      40.125 -14.305   3.231  1.00  0.00    -0.133 NA
HETATM    6  C   UNL     1      41.302 -13.605   2.382  1.00  0.00     0.155 A 
ENDROOT
BRANCH   3   7
HETATM    7  C   UNL     1      41.519 -11.522   6.044  1.00  0.00     0.060 C 
HETATM    8  C   UNL     1      40.448 -11.116   4.950  1.00  0.00     0.040 C 
HETATM    9  C   UNL     1      40.113 -12.577   3.807  1.00  0.00     0.236 C 
HETATM   10  N   UNL     1      41.692 -14.142   4.278  1.00  0.00    -0.067 N 
HETATM   11  H   UNL     1      42.302 -14.478   3.541  1.00  0.00     0.280 HD
HETATM   12  C   UNL     1      43.007 -13.786   5.578  1.00  0.00     0.236 C 
HETATM   13  C   UNL     1      42.950 -12.199   6.098  1.00  0.00     0.040 C 
BRANCH  10  14
HETATM   14  C   UNL     1      41.266 -15.757   4.802  1.00  0.00     0.273 C 
BRANCH  14  15
HETATM   15  C   UNL     1      42.175 -16.801   4.175  1.00  0.00    -0.030 A 
HETATM   16  C   UNL     1      43.206 -17.434   4.884  1.00  0.00     0.051 A 
HETATM   17  C   UNL     1      44.009 -18.389   4.263  1.00  0.00     0.117 A 
HETATM   18  F   UNL     1      44.954 -19.001   4.984  1.00  0.00    -0.206 F 
HETATM   19  C   UNL     1      43.840 -18.707   2.924  1.00  0.00     0.042 A 
HETATM   20  C   UNL     1      42.855 -18.050   2.192  1.00  0.00     0.004 A 
HETATM   21  C   UNL     1      42.029 -17.106   2.811  1.00  0.00     0.009 A 
ENDBRANCH  14  15
ENDBRANCH  10  14
ENDBRANCH   3   7
BRANCH   6  22
HETATM   22  C   UNL     1      41.735 -13.903   0.974  1.00  0.00     0.315 C 
BRANCH  22  23
HETATM   23  N   UNL     1      40.940 -13.291  -0.191  1.00  0.00    -0.064 N 
HETATM   24  H   UNL     1      41.577 -13.224  -0.994  1.00  0.00     0.280 HD
HETATM   25  C   UNL     1      39.847 -14.284  -0.576  1.00  0.00     0.235 C 
HETATM   26  C   UNL     1      39.043 -13.887  -1.807  1.00  0.00     0.028 C 
HETATM   27  C   UNL     1      38.032 -12.782  -1.524  1.00  0.00     0.002 C 
HETATM   28  C   UNL     1      38.588 -11.372  -1.658  1.00  0.00     0.002 C 
HETATM   29  C   UNL     1      40.037 -11.186  -1.232  1.00  0.00     0.028 C 
HETATM   30  C   UNL     1      40.420 -11.883   0.068  1.00  0.00     0.235 C 
ENDBRANCH  22  23
ENDBRANCH   6  22
TORSDOF 5
ENDMDL
MODEL 6
REMARK VINA RESULT:      -8.7      3.069      6.833
REMARK  5 active torsions:
REMARK  status: ('A' for Active; 'I' for Inactive)
REMARK    1  A    between atoms: C_3  and  C_4 
REMARK    2  A    between atoms: N_7  and  C_9 
REMARK    3  A    between atoms: C_9  and  C_10 
REMARK    4  A    between atoms: C_21  and  C_22 
REMARK    5  A    between atoms: C_22  and  N_23 
ROOT
HETATM    1  C   UNL     1      40.295 -11.861   5.725  1.00  0.00     0.159 C 
HETATM    2  N   UNL     1      41.177 -12.028   4.581  1.00  0.00    -0.323 N 
HETATM    3  C   UNL     1      40.682 -11.945   2.794  1.00  0.00     0.134 A 
HETATM    4  N   UNL     1      42.082 -11.959   1.878  1.00  0.00    -0.134 NA
HETATM    5  N   UNL     1      43.516 -11.995   3.190  1.00  0.00    -0.133 NA
HETATM    6  C   UNL     1      42.956 -12.035   4.701  1.00  0.00     0.155 A 
ENDROOT
BRANCH   3   7
HETATM    7  C   UNL     1      39.409 -11.524   2.474  1.00  0.00     0.060 C 
HETATM    8  C   UNL     1      40.315 -10.286   2.870  1.00  0.00     0.040 C 
HETATM    9  C   UNL     1      42.076 -10.863   3.213  1.00  0.00     0.236 C 
HETATM   10  N   UNL     1      42.011 -13.134   3.283  1.00  0.00    -0.067 N 
HETATM   11  H   UNL     1      42.331 -13.621   4.113  1.00  0.00     0.280 HD
HETATM   12  C   UNL     1      40.372 -14.032   3.056  1.00  0.00     0.236 C 
HETATM   13  C   UNL     1      39.081 -12.970   3.030  1.00  0.00     0.040 C 
BRANCH  10  14
HETATM   14  C   UNL     1      42.977 -14.120   2.206  1.00  0.00     0.273 C 
BRANCH  14  15
HETATM   15  C   UNL     1      43.181 -15.517   2.769  1.00  0.00    -0.030 A 
HETATM   16  C   UNL     1      43.040 -16.676   1.992  1.00  0.00     0.051 A 
HETATM   17  C   UNL     1      43.243 -17.934   2.555  1.00  0.00     0.117 A 
HETATM   18  F   UNL     1      43.143 -19.014   1.771  1.00  0.00    -0.206 F 
HETATM   19  C   UNL     1      43.544 -18.078   3.901  1.00  0.00     0.042 A 
HETATM   20  C   UNL     1      43.635 -16.941   4.698  1.00  0.00     0.004 A 
HETATM   21  C   UNL     1      43.456 -15.672   4.139  1.00  0.00     0.009 A 
ENDBRANCH  14  15
ENDBRANCH  10  14
ENDBRANCH   3   7
BRANCH   6  22
HETATM   22  C   UNL     1      43.734 -12.194   5.977  1.00  0.00     0.315 C 
BRANCH  22  23
HETATM   23  N   UNL     1      44.248 -10.935   6.693  1.00  0.00    -0.064 N 
HETATM   24  H   UNL     1      44.468 -10.239   5.969  1.00  0.00     0.280 HD
HETATM   25  C   UNL     1      43.095 -10.367   7.516  1.00  0.00     0.235 C 
HETATM   26  C   UNL     1      43.401  -9.038   8.192  1.00  0.00     0.028 C 
HETATM   27  C   UNL     1      44.291  -9.187   9.421  1.00  0.00     0.002 C 
HETATM   28  C   UNL     1      45.782  -9.168   9.121  1.00  0.00     0.002 C 
HETATM   29  C   UNL     1      46.204  -9.813   7.809  1.00  0.00     0.028 C 
HETATM   30  C   UNL     1      45.525 -11.141   7.497  1.00  0.00     0.235 C 
ENDBRANCH  22  23
ENDBRANCH   6  22
TORSDOF 5
ENDMDL
MODEL 7
REMARK VINA RESULT:      -8.6      2.721      5.290
REMARK  5 active torsions:
REMARK  status: ('A' for Active; 'I' for Inactive)
REMARK    1  A    between atoms: C_3  and  C_4 
REMARK    2  A    between atoms: N_7  and  C_9 
REMARK    3  A    between atoms: C_9  and  C_10 
REMARK    4  A    between atoms: C_21  and  C_22 
REMARK    5  A    between atoms: C_22  and  N_23 
ROOT
HETATM    1  C   UNL     1      43.484 -15.188   1.556  1.00  0.00     0.159 C 
HETATM    2  N   UNL     1      42.420 -14.978   2.523  1.00  0.00    -0.323 N 
HETATM    3  C   UNL     1      40.789 -14.154   2.198  1.00  0.00     0.134 A 
HETATM    4  N   UNL     1      39.830 -14.373   3.551  1.00  0.00    -0.134 NA
HETATM    5  N   UNL     1      40.925 -15.442   4.750  1.00  0.00    -0.133 NA
HETATM    6  C   UNL     1      42.378 -15.756   4.127  1.00  0.00     0.155 A 
ENDROOT
BRANCH   3   7
HETATM    7  C   UNL     1      40.444 -13.850   0.898  1.00  0.00     0.060 C 
HETATM    8  C   UNL     1      40.220 -15.392   1.180  1.00  0.00     0.040 C 
HETATM    9  C   UNL     1      40.604 -15.777   2.985  1.00  0.00     0.236 C 
HETATM   10  N   UNL     1      41.593 -13.921   3.846  1.00  0.00    -0.067 N 
HETATM   11  H   UNL     1      42.516 -13.990   4.260  1.00  0.00     0.280 HD
HETATM   12  C   UNL     1      41.901 -12.426   2.744  1.00  0.00     0.236 C 
HETATM   13  C   UNL     1      41.566 -12.759   1.140  1.00  0.00     0.040 C 
BRANCH  10  14
HETATM   14  C   UNL     1      40.925 -13.072   5.223  1.00  0.00     0.273 C 
BRANCH  14  15
HETATM   15  C   UNL     1      42.003 -12.322   5.987  1.00  0.00    -0.030 A 
HETATM   16  C   UNL     1      41.955 -10.938   6.207  1.00  0.00     0.051 A 
HETATM   17  C   UNL     1      42.968 -10.299   6.919  1.00  0.00     0.117 A 
HETATM   18  F   UNL     1      42.865  -8.984   7.145  1.00  0.00    -0.206 F 
HETATM   19  C   UNL     1      44.067 -11.001   7.390  1.00  0.00     0.042 A 
HETATM   20  C   UNL     1      44.157 -12.366   7.136  1.00  0.00     0.004 A 
HETATM   21  C   UNL     1      43.135 -13.022   6.441  1.00  0.00     0.009 A 
ENDBRANCH  14  15
ENDBRANCH  10  14
ENDBRANCH   3   7
BRANCH   6  22
HETATM   22  C   UNL     1      43.544 -16.438   4.785  1.00  0.00     0.315 C 
BRANCH  22  23
HETATM   23  N   UNL     1      44.001 -17.806   4.252  1.00  0.00    -0.064 N 
HETATM   24  H   UNL     1      44.989 -17.715   3.984  1.00  0.00     0.280 HD
HETATM   25  C   UNL     1      43.949 -18.795   5.412  1.00  0.00     0.235 C 
HETATM   26  C   UNL     1      44.496 -20.178   5.084  1.00  0.00     0.028 C 
HETATM   27  C   UNL     1      43.536 -21.012   4.243  1.00  0.00     0.002 C 
HETATM   28  C   UNL     1      43.674 -20.802   2.742  1.00  0.00     0.002 C 
HETATM   29  C   UNL     1      44.023 -19.390   2.298  1.00  0.00     0.028 C 
HETATM   30  C   UNL     1      43.257 -18.282   3.011  1.00  0.00     0.235 C 
ENDBRANCH  22  23
ENDBRANCH   6  22
TORSDOF 5
ENDMDL
MODEL 8
REMARK VINA RESULT:      -8.5      1.706      2.274
REMARK  5 active torsions:
REMARK  status: ('A' for Active; 'I' for Inactive)
REMARK    1  A    between atoms: C_3  and  C_4 
REMARK    2  A    between atoms: N_7  and  C_9 
REMARK    3  A    between atoms: C_9  and  C_10 
REMARK    4  A    between atoms: C_21  and  C_22 
REMARK    5  A    between atoms: C_22  and  N_23 
ROOT
HETATM    1  C   UNL     1      39.782 -12.524   6.032  1.00  0.00     0.159 C 
HETATM    2  N   UNL     1      40.818 -12.304   5.037  1.00  0.00    -0.323 N 
HETATM    3  C   UNL     1      41.469 -10.657   4.477  1.00  0.00     0.134 A 
HETATM    4  N   UNL     1      42.804 -10.940   3.509  1.00  0.00    -0.134 NA
HETATM    5  N   UNL     1      43.011 -12.873   3.528  1.00  0.00    -0.133 NA
HETATM    6  C   UNL     1      41.867 -13.599   4.402  1.00  0.00     0.155 A 
ENDROOT
BRANCH   3   7
HETATM    7  C   UNL     1      41.083  -9.522   5.158  1.00  0.00     0.060 C 
HETATM    8  C   UNL     1      42.198 -10.300   5.971  1.00  0.00     0.040 C 
HETATM    9  C   UNL     1      42.784 -11.797   4.986  1.00  0.00     0.236 C 
HETATM   10  N   UNL     1      41.343 -12.029   3.245  1.00  0.00    -0.067 N 
HETATM   11  H   UNL     1      40.839 -12.901   3.122  1.00  0.00     0.280 HD
HETATM   12  C   UNL     1      39.889 -10.847   3.066  1.00  0.00     0.236 C 
HETATM   13  C   UNL     1      39.732  -9.852   4.400  1.00  0.00     0.040 C 
BRANCH  10  14
HETATM   14  C   UNL     1      41.889 -11.992   1.581  1.00  0.00     0.273 C 
BRANCH  14  15
HETATM   15  C   UNL     1      41.051 -12.907   0.703  1.00  0.00    -0.030 A 
HETATM   16  C   UNL     1      40.698 -14.209   1.085  1.00  0.00     0.051 A 
HETATM   17  C   UNL     1      39.924 -15.007   0.244  1.00  0.00     0.117 A 
HETATM   18  F   UNL     1      39.571 -16.228   0.661  1.00  0.00    -0.206 F 
HETATM   19  C   UNL     1      39.520 -14.555  -1.003  1.00  0.00     0.042 A 
HETATM   20  C   UNL     1      39.906 -13.283  -1.419  1.00  0.00     0.004 A 
HETATM   21  C   UNL     1      40.665 -12.466  -0.574  1.00  0.00     0.009 A 
ENDBRANCH  14  15
ENDBRANCH  10  14
ENDBRANCH   3   7
BRANCH   6  22
HETATM   22  C   UNL     1      41.610 -15.071   4.558  1.00  0.00     0.315 C 
BRANCH  22  23
HETATM   23  N   UNL     1      42.655 -16.066   4.028  1.00  0.00    -0.064 N 
HETATM   24  H   UNL     1      43.393 -15.519   3.568  1.00  0.00     0.280 HD
HETATM   25  C   UNL     1      43.296 -16.748   5.233  1.00  0.00     0.235 C 
HETATM   26  C   UNL     1      44.451 -17.678   4.887  1.00  0.00     0.028 C 
HETATM   27  C   UNL     1      43.988 -19.006   4.299  1.00  0.00     0.002 C 
HETATM   28  C   UNL     1      43.791 -18.989   2.790  1.00  0.00     0.002 C 
HETATM   29  C   UNL     1      43.265 -17.687   2.204  1.00  0.00     0.028 C 
HETATM   30  C   UNL     1      42.126 -17.043   2.986  1.00  0.00     0.235 C 
ENDBRANCH  22  23
ENDBRANCH   6  22
TORSDOF 5
ENDMDL
MODEL 9
REMARK VINA RESULT:      -8.4     14.935     17.200
REMARK  5 active torsions:
REMARK  status: ('A' for Active; 'I' for Inactive)
REMARK    1  A    between atoms: C_3  and  C_4 
REMARK    2  A    between atoms: N_7  and  C_9 
REMARK    3  A    between atoms: C_9  and  C_10 
REMARK    4  A    between atoms: C_21  and  C_22 
REMARK    5  A    between atoms: C_22  and  N_23 
ROOT
HETATM    1  C   UNL     1      44.125 -31.717  -1.541  1.00  0.00     0.159 C 
HETATM    2  N   UNL     1      44.934 -30.522  -1.714  1.00  0.00    -0.323 N 
HETATM    3  C   UNL     1      45.377 -29.722  -3.329  1.00  0.00     0.134 A 
HETATM    4  N   UNL     1      46.110 -28.257  -2.987  1.00  0.00    -0.134 NA
HETATM    5  N   UNL     1      46.058 -28.134  -1.048  1.00  0.00    -0.133 NA
HETATM    6  C   UNL     1      45.387 -29.436  -0.374  1.00  0.00     0.155 A 
ENDROOT
BRANCH   3   7
HETATM    7  C   UNL     1      44.769 -30.169  -4.483  1.00  0.00     0.060 C 
HETATM    8  C   UNL     1      43.770 -29.266  -3.648  1.00  0.00     0.040 C 
HETATM    9  C   UNL     1      44.643 -28.584  -2.123  1.00  0.00     0.236 C 
HETATM   10  N   UNL     1      46.625 -29.686  -1.966  1.00  0.00    -0.067 N 
HETATM   11  H   UNL     1      46.847 -30.202  -1.122  1.00  0.00     0.280 HD
HETATM   12  C   UNL     1      47.059 -31.019  -3.222  1.00  0.00     0.236 C 
HETATM   13  C   UNL     1      45.768 -31.370  -4.224  1.00  0.00     0.040 C 
BRANCH  10  14
HETATM   14  C   UNL     1      48.157 -28.839  -1.974  1.00  0.00     0.273 C 
BRANCH  14  15
HETATM   15  C   UNL     1      49.268 -29.698  -1.393  1.00  0.00    -0.030 A 
HETATM   16  C   UNL     1      49.432 -29.896  -0.015  1.00  0.00     0.051 A 
HETATM   17  C   UNL     1      50.465 -30.698   0.467  1.00  0.00     0.117 A 
HETATM   18  F   UNL     1      50.562 -30.897   1.786  1.00  0.00    -0.206 F 
HETATM   19  C   UNL     1      51.380 -31.283  -0.394  1.00  0.00     0.042 A 
HETATM   20  C   UNL     1      51.263 -31.054  -1.763  1.00  0.00     0.004 A 
HETATM   21  C   UNL     1      50.217 -30.269  -2.259  1.00  0.00     0.009 A 
ENDBRANCH  14  15
ENDBRANCH  10  14
ENDBRANCH   3   7
BRANCH   6  22
HETATM   22  C   UNL     1      45.276 -29.774   1.086  1.00  0.00     0.315 C 
BRANCH  22  23
HETATM   23  N   UNL     1      46.546 -30.177   1.852  1.00  0.00    -0.064 N 
HETATM   24  H   UNL     1      47.278 -30.365   1.155  1.00  0.00     0.280 HD
HETATM   25  C   UNL     1      47.005 -28.964   2.657  1.00  0.00     0.235 C 
HETATM   26  C   UNL     1      48.332 -29.155   3.379  1.00  0.00     0.028 C 
HETATM   27  C   UNL     1      48.209 -30.020   4.628  1.00  0.00     0.002 C 
HETATM   28  C   UNL     1      48.344 -31.514   4.372  1.00  0.00     0.002 C 
HETATM   29  C   UNL     1      47.771 -32.016   3.055  1.00  0.00     0.028 C 
HETATM   30  C   UNL     1      46.407 -31.444   2.686  1.00  0.00     0.235 C 
ENDBRANCH  22  23
ENDBRANCH   6  22
TORSDOF 5
ENDMDL
MODEL 10
REMARK VINA RESULT:      -8.3      1.541      2.235
REMARK  5 active torsions:
REMARK  status: ('A' for Active; 'I' for Inactive)
REMARK    1  A    between atoms: C_3  and  C_4 
REMARK    2  A    between atoms: N_7  and  C_9 
REMARK    3  A    between atoms: C_9  and  C_10 
REMARK    4  A    between atoms: C_21  and  C_22 
REMARK    5  A    between atoms: C_22  and  N_23 
ROOT
HETATM    1  C   UNL     1      40.184 -12.780   5.695  1.00  0.00     0.159 C 
HETATM    2  N   UNL     1      41.055 -12.568   4.551  1.00  0.00    -0.323 N 
HETATM    3  C   UNL     1      42.095 -11.065   4.227  1.00  0.00     0.134 A 
HETATM    4  N   UNL     1      43.088 -11.405   2.924  1.00  0.00    -0.134 NA
HETATM    5  N   UNL     1      42.667 -13.246   2.464  1.00  0.00    -0.133 NA
HETATM    6  C   UNL     1      41.513 -13.859   3.409  1.00  0.00     0.155 A 
ENDROOT
BRANCH   3   7
HETATM    7  C   UNL     1      42.212 -10.110   5.215  1.00  0.00     0.060 C 
HETATM    8  C   UNL     1      43.125 -11.362   5.547  1.00  0.00     0.040 C 
HETATM    9  C   UNL     1      43.029 -12.617   4.144  1.00  0.00     0.236 C 
HETATM   10  N   UNL     1      41.338 -11.940   2.785  1.00  0.00    -0.067 N 
HETATM   11  H   UNL     1      40.565 -12.568   2.594  1.00  0.00     0.280 HD
HETATM   12  C   UNL     1      40.340 -10.405   3.223  1.00  0.00     0.236 C 
HETATM   13  C   UNL     1      40.727  -9.828   4.744  1.00  0.00     0.040 C 
BRANCH  10  14
HETATM   14  C   UNL     1      41.600 -11.582   1.091  1.00  0.00     0.273 C 
BRANCH  14  15
HETATM   15  C   UNL     1      40.461 -12.106   0.232  1.00  0.00    -0.030 A 
HETATM   16  C   UNL     1      40.368 -13.447  -0.168  1.00  0.00     0.051 A 
HETATM   17  C   UNL     1      39.300 -13.878  -0.953  1.00  0.00     0.117 A 
HETATM   18  F   UNL     1      39.223 -15.174  -1.279  1.00  0.00    -0.206 F 
HETATM   19  C   UNL     1      38.329 -12.992  -1.393  1.00  0.00     0.042 A 
HETATM   20  C   UNL     1      38.434 -11.648  -1.047  1.00  0.00     0.004 A 
HETATM   21  C   UNL     1      39.490 -11.208  -0.242  1.00  0.00     0.009 A 
ENDBRANCH  14  15
ENDBRANCH  10  14
ENDBRANCH   3   7
BRANCH   6  22
HETATM   22  C   UNL     1      40.829 -15.192   3.294  1.00  0.00     0.315 C 
BRANCH  22  23
HETATM   23  N   UNL     1      41.622 -16.464   3.632  1.00  0.00    -0.064 N 
HETATM   24  H   UNL     1      40.965 -17.131   4.055  1.00  0.00     0.280 HD
HETATM   25  C   UNL     1      42.091 -17.080   2.317  1.00  0.00     0.235 C 
HETATM   26  C   UNL     1      42.787 -18.426   2.467  1.00  0.00     0.028 C 
HETATM   27  C   UNL     1      44.213 -18.301   2.992  1.00  0.00     0.002 C 
HETATM   28  C   UNL     1      44.323 -18.282   4.510  1.00  0.00     0.002 C 
HETATM   29  C   UNL     1      43.189 -17.586   5.249  1.00  0.00     0.028 C 
HETATM   30  C   UNL     1      42.744 -16.261   4.643  1.00  0.00     0.235 C 
ENDBRANCH  22  23
ENDBRANCH   6  22
TORSDOF 5
ENDMDL
