MODEL 1
REMARK VINA RESULT:      -9.2      0.000      0.000
REMARK  6 active torsions:
REMARK  status: ('A' for Active; 'I' for Inactive)
REMARK    1  A    between atoms: O_2  and  C_3 
REMARK    2  A    between atoms: C_6  and  C_7 
REMARK    3  A    between atoms: C_13  and  C_14 
REMARK       I    between atoms: C_14  and  N_15 
REMARK    4  A    between atoms: N_15  and  C_16 
REMARK    5  A    between atoms: C_16  and  C_17 
REMARK    6  A    between atoms: C_24  and  C_25 
ROOT
HETATM    1  C   UNL     1      42.237 -15.115   3.919  1.00  0.00     0.118 C 
HETATM    2  N   UNL     1      43.024 -14.265   4.823  1.00  0.00    -0.365 N 
HETATM    3  C   UNL     1      42.949 -12.906   4.717  1.00  0.00     0.138 A 
HETATM    4  N   UNL     1      42.292 -12.320   3.658  1.00  0.00    -0.240 N 
HETATM    5  N   UNL     1      42.338 -10.982   3.652  1.00  0.00    -0.181 NA
HETATM    6  C   UNL     1      42.988 -10.698   4.781  1.00  0.00     0.160 A 
HETATM    7  C   UNL     1      43.416 -11.853   5.487  1.00  0.00     0.096 A 
HETATM    8  C   UNL     1      41.602 -13.043   2.608  1.00  0.00     0.221 C 
HETATM    9  C   UNL     1      42.151 -14.472   2.523  1.00  0.00     0.066 C 
HETATM   10  H   UNL     1      43.109 -14.679   5.754  1.00  0.00     0.161 HD
ENDROOT
BRANCH   7  11
HETATM   11  C   UNL     1      44.177 -11.832   6.721  1.00  0.00     0.257 C 
HETATM   12  N   UNL     1      45.084 -10.805   6.846  1.00  0.00    -0.352 N 
HETATM   13  H   UNL     1      44.992 -10.030   6.205  1.00  0.00     0.163 HD
HETATM   14  O   UNL     1      43.988 -12.660   7.606  1.00  0.00    -0.267 OA
BRANCH  12  15
HETATM   15  C   UNL     1      45.757 -10.585   8.103  1.00  0.00     0.161 C 
BRANCH  15  16
HETATM   16  C   UNL     1      44.954  -9.691   9.007  1.00  0.00    -0.041 A 
HETATM   17  C   UNL     1      44.383  -8.506   8.519  1.00  0.00     0.009 A 
HETATM   18  C   UNL     1      43.633  -7.686   9.363  1.00  0.00     0.001 A 
HETATM   19  C   UNL     1      43.449  -8.037  10.699  1.00  0.00     0.000 A 
HETATM   20  C   UNL     1      44.023  -9.205  11.197  1.00  0.00     0.001 A 
HETATM   21  C   UNL     1      44.777 -10.026  10.357  1.00  0.00     0.009 A 
ENDBRANCH  15  16
ENDBRANCH  12  15
ENDBRANCH   7  11
BRANCH   1  22
HETATM   22  C   UNL     1      42.857 -16.497   3.818  1.00  0.00    -0.035 A 
HETATM   23  C   UNL     1      43.458 -17.077   4.944  1.00  0.00     0.012 A 
HETATM   24  C   UNL     1      43.945 -18.386   4.893  1.00  0.00     0.037 A 
HETATM   25  C   UNL     1      43.828 -19.143   3.728  1.00  0.00     0.068 A 
HETATM   26  C   UNL     1      43.265 -18.566   2.592  1.00  0.00     0.037 A 
HETATM   27  C   UNL     1      42.784 -17.252   2.636  1.00  0.00     0.012 A 
BRANCH  25  28
HETATM   28  O   UNL     1      44.310 -20.420   3.820  1.00  0.00    -0.356 OA
HETATM   29  C   UNL     1      44.314 -20.997   5.121  1.00  0.00     0.210 C 
ENDBRANCH  25  28
ENDBRANCH   1  22
BRANCH   8  30
HETATM   30  C   UNL     1      40.108 -13.013   2.853  1.00  0.00     0.409 C 
HETATM   31  F   UNL     1      39.471 -14.099   2.363  1.00  0.00    -0.169 F 
HETATM   32  F   UNL     1      39.787 -12.897   4.157  1.00  0.00    -0.169 F 
HETATM   33  F   UNL     1      39.564 -11.935   2.227  1.00  0.00    -0.169 F 
ENDBRANCH   8  30
TORSDOF 6
ENDMDL
MODEL 2
REMARK VINA RESULT:      -8.8      1.625      2.339
REMARK  6 active torsions:
REMARK  status: ('A' for Active; 'I' for Inactive)
REMARK    1  A    between atoms: O_2  and  C_3 
REMARK    2  A    between atoms: C_6  and  C_7 
REMARK    3  A    between atoms: C_13  and  C_14 
REMARK       I    between atoms: C_14  and  N_15 
REMARK    4  A    between atoms: N_15  and  C_16 
REMARK    5  A    between atoms: C_16  and  C_17 
REMARK    6  A    between atoms: C_24  and  C_25 
ROOT
HETATM    1  C   UNL     1      41.916 -15.820   2.773  1.00  0.00     0.118 C 
HETATM    2  N   UNL     1      42.145 -14.722   3.722  1.00  0.00    -0.365 N 
HETATM    3  C   UNL     1      41.906 -13.433   3.342  1.00  0.00     0.138 A 
HETATM    4  N   UNL     1      41.631 -13.128   2.028  1.00  0.00    -0.240 N 
HETATM    5  N   UNL     1      41.466 -11.822   1.787  1.00  0.00    -0.181 NA
HETATM    6  C   UNL     1      41.571 -11.276   2.999  1.00  0.00     0.160 A 
HETATM    7  C   UNL     1      41.865 -12.223   4.016  1.00  0.00     0.096 A 
HETATM    8  C   UNL     1      41.526 -14.099   0.956  1.00  0.00     0.221 C 
HETATM    9  C   UNL     1      42.281 -15.375   1.345  1.00  0.00     0.066 C 
HETATM   10  H   UNL     1      41.924 -14.999   4.681  1.00  0.00     0.161 HD
ENDROOT
BRANCH   7  11
HETATM   11  C   UNL     1      42.072 -11.897   5.414  1.00  0.00     0.257 C 
HETATM   12  N   UNL     1      42.262 -10.564   5.695  1.00  0.00    -0.352 N 
HETATM   13  H   UNL     1      42.016  -9.902   4.972  1.00  0.00     0.163 HD
HETATM   14  O   UNL     1      42.037 -12.759   6.286  1.00  0.00    -0.267 OA
BRANCH  12  15
HETATM   15  C   UNL     1      42.292 -10.111   7.064  1.00  0.00     0.161 C 
BRANCH  15  16
HETATM   16  C   UNL     1      43.699  -9.851   7.526  1.00  0.00    -0.041 A 
HETATM   17  C   UNL     1      44.747 -10.701   7.145  1.00  0.00     0.009 A 
HETATM   18  C   UNL     1      46.052 -10.448   7.571  1.00  0.00     0.001 A 
HETATM   19  C   UNL     1      46.321  -9.348   8.384  1.00  0.00     0.000 A 
HETATM   20  C   UNL     1      45.286  -8.504   8.779  1.00  0.00     0.001 A 
HETATM   21  C   UNL     1      43.980  -8.757   8.357  1.00  0.00     0.009 A 
ENDBRANCH  15  16
ENDBRANCH  12  15
ENDBRANCH   7  11
BRANCH   1  22
HETATM   22  C   UNL     1      42.733 -17.038   3.164  1.00  0.00    -0.035 A 
HETATM   23  C   UNL     1      43.239 -17.151   4.466  1.00  0.00     0.012 A 
HETATM   24  C   UNL     1      43.909 -18.310   4.869  1.00  0.00     0.037 A 
HETATM   25  C   UNL     1      44.073 -19.379   3.988  1.00  0.00     0.068 A 
HETATM   26  C   UNL     1      43.606 -19.264   2.681  1.00  0.00     0.037 A 
HETATM   27  C   UNL     1      42.942 -18.102   2.271  1.00  0.00     0.012 A 
BRANCH  25  28
HETATM   28  O   UNL     1      44.712 -20.467   4.516  1.00  0.00    -0.356 OA
HETATM   29  C   UNL     1      44.097 -21.067   5.651  1.00  0.00     0.210 C 
ENDBRANCH  25  28
ENDBRANCH   1  22
BRANCH   8  30
HETATM   30  C   UNL     1      40.070 -14.364   0.636  1.00  0.00     0.409 C 
HETATM   31  F   UNL     1      39.577 -13.532  -0.307  1.00  0.00    -0.169 F 
HETATM   32  F   UNL     1      39.839 -15.630   0.235  1.00  0.00    -0.169 F 
HETATM   33  F   UNL     1      39.315 -14.171   1.750  1.00  0.00    -0.169 F 
ENDBRANCH   8  30
TORSDOF 6
ENDMDL
MODEL 3
REMARK VINA RESULT:      -8.8      3.099      7.230
REMARK  6 active torsions:
REMARK  status: ('A' for Active; 'I' for Inactive)
REMARK    1  A    between atoms: O_2  and  C_3 
REMARK    2  A    between atoms: C_6  and  C_7 
REMARK    3  A    between atoms: C_13  and  C_14 
REMARK       I    between atoms: C_14  and  N_15 
REMARK    4  A    between atoms: N_15  and  C_16 
REMARK    5  A    between atoms: C_16  and  C_17 
REMARK    6  A    between atoms: C_24  and  C_25 
ROOT
HETATM    1  C   UNL     1      40.860 -12.864   3.554  1.00  0.00     0.118 C 
HETATM    2  N   UNL     1      41.693 -13.837   4.273  1.00  0.00    -0.365 N 
HETATM    3  C   UNL     1      42.573 -13.408   5.224  1.00  0.00     0.138 A 
HETATM    4  N   UNL     1      42.827 -12.066   5.390  1.00  0.00    -0.240 N 
HETATM    5  N   UNL     1      43.747 -11.789   6.323  1.00  0.00    -0.181 NA
HETATM    6  C   UNL     1      44.044 -12.991   6.819  1.00  0.00     0.160 A 
HETATM    7  C   UNL     1      43.362 -14.051   6.166  1.00  0.00     0.096 A 
HETATM    8  C   UNL     1      42.188 -11.002   4.642  1.00  0.00     0.221 C 
HETATM    9  C   UNL     1      41.644 -11.560   3.322  1.00  0.00     0.066 C 
HETATM   10  H   UNL     1      41.199 -14.719   4.426  1.00  0.00     0.161 HD
ENDROOT
BRANCH   7  11
HETATM   11  C   UNL     1      43.529 -15.457   6.476  1.00  0.00     0.257 C 
HETATM   12  N   UNL     1      43.810 -16.275   5.407  1.00  0.00    -0.352 N 
HETATM   13  H   UNL     1      44.107 -15.828   4.551  1.00  0.00     0.163 HD
HETATM   14  O   UNL     1      43.463 -15.873   7.628  1.00  0.00    -0.267 OA
BRANCH  12  15
HETATM   15  C   UNL     1      44.177 -17.653   5.628  1.00  0.00     0.161 C 
BRANCH  15  16
HETATM   16  C   UNL     1      43.875 -18.502   4.424  1.00  0.00    -0.041 A 
HETATM   17  C   UNL     1      43.357 -17.928   3.255  1.00  0.00     0.009 A 
HETATM   18  C   UNL     1      43.088 -18.722   2.139  1.00  0.00     0.001 A 
HETATM   19  C   UNL     1      43.329 -20.094   2.181  1.00  0.00     0.000 A 
HETATM   20  C   UNL     1      43.832 -20.676   3.342  1.00  0.00     0.001 A 
HETATM   21  C   UNL     1      44.099 -19.885   4.461  1.00  0.00     0.009 A 
ENDBRANCH  15  16
ENDBRANCH  12  15
ENDBRANCH   7  11
BRANCH   1  22
HETATM   22  C   UNL     1      40.399 -13.439   2.227  1.00  0.00    -0.035 A 
HETATM   23  C   UNL     1      40.055 -12.579   1.174  1.00  0.00     0.012 A 
HETATM   24  C   UNL     1      39.725 -13.092  -0.082  1.00  0.00     0.037 A 
HETATM   25  C   UNL     1      39.744 -14.467  -0.317  1.00  0.00     0.068 A 
HETATM   26  C   UNL     1      40.050 -15.333   0.731  1.00  0.00     0.037 A 
HETATM   27  C   UNL     1      40.373 -14.823   1.993  1.00  0.00     0.012 A 
BRANCH  25  28
HETATM   28  O   UNL     1      39.437 -14.838  -1.597  1.00  0.00    -0.356 OA
HETATM   29  C   UNL     1      39.797 -13.916  -2.620  1.00  0.00     0.210 C 
ENDBRANCH  25  28
ENDBRANCH   1  22
BRANCH   8  30
HETATM   30  C   UNL     1      41.109 -10.351   5.481  1.00  0.00     0.409 C 
HETATM   31  F   UNL     1      40.530 -11.206   6.352  1.00  0.00    -0.169 F 
HETATM   32  F   UNL     1      41.552  -9.285   6.179  1.00  0.00    -0.169 F 
HETATM   33  F   UNL     1      40.115  -9.895   4.674  1.00  0.00    -0.169 F 
ENDBRANCH   8  30
TORSDOF 6
ENDMDL
MODEL 4
REMARK VINA RESULT:      -8.7      3.679      5.694
REMARK  6 active torsions:
REMARK  status: ('A' for Active; 'I' for Inactive)
REMARK    1  A    between atoms: O_2  and  C_3 
REMARK    2  A    between atoms: C_6  and  C_7 
REMARK    3  A    between atoms: C_13  and  C_14 
REMARK       I    between atoms: C_14  and  N_15 
REMARK    4  A    between atoms: N_15  and  C_16 
REMARK    5  A    between atoms: C_16  and  C_17 
REMARK    6  A    between atoms: C_24  and  C_25 
ROOT
HETATM    1  C   UNL     1      40.976 -14.541   1.710  1.00  0.00     0.118 C 
HETATM    2  N   UNL     1      40.947 -13.575   2.816  1.00  0.00    -0.365 N 
HETATM    3  C   UNL     1      41.249 -13.982   4.083  1.00  0.00     0.138 A 
HETATM    4  N   UNL     1      41.399 -15.319   4.374  1.00  0.00    -0.240 N 
HETATM    5  N   UNL     1      41.645 -15.580   5.664  1.00  0.00    -0.181 NA
HETATM    6  C   UNL     1      41.721 -14.364   6.208  1.00  0.00     0.160 A 
HETATM    7  C   UNL     1      41.465 -13.319   5.281  1.00  0.00     0.096 A 
HETATM    8  C   UNL     1      41.302 -16.394   3.406  1.00  0.00     0.221 C 
HETATM    9  C   UNL     1      40.492 -15.920   2.194  1.00  0.00     0.066 C 
HETATM   10  H   UNL     1      41.250 -12.646   2.515  1.00  0.00     0.161 HD
ENDROOT
BRANCH   7  11
HETATM   11  C   UNL     1      41.444 -11.908   5.613  1.00  0.00     0.257 C 
HETATM   12  N   UNL     1      41.951 -11.576   6.848  1.00  0.00    -0.352 N 
HETATM   13  H   UNL     1      42.502 -12.278   7.322  1.00  0.00     0.163 HD
HETATM   14  O   UNL     1      41.033 -11.068   4.818  1.00  0.00    -0.267 OA
BRANCH  12  15
HETATM   15  C   UNL     1      42.147 -10.191   7.201  1.00  0.00     0.161 C 
BRANCH  15  16
HETATM   16  C   UNL     1      43.582  -9.910   7.548  1.00  0.00    -0.041 A 
HETATM   17  C   UNL     1      43.931  -8.770   8.286  1.00  0.00     0.009 A 
HETATM   18  C   UNL     1      45.265  -8.521   8.610  1.00  0.00     0.001 A 
HETATM   19  C   UNL     1      46.262  -9.403   8.199  1.00  0.00     0.000 A 
HETATM   20  C   UNL     1      45.928 -10.532   7.454  1.00  0.00     0.001 A 
HETATM   21  C   UNL     1      44.595 -10.782   7.125  1.00  0.00     0.009 A 
ENDBRANCH  15  16
ENDBRANCH  12  15
ENDBRANCH   7  11
BRANCH   1  22
HETATM   22  C   UNL     1      40.109 -14.059   0.561  1.00  0.00    -0.035 A 
HETATM   23  C   UNL     1      39.638 -12.739   0.548  1.00  0.00     0.012 A 
HETATM   24  C   UNL     1      38.922 -12.252  -0.548  1.00  0.00     0.037 A 
HETATM   25  C   UNL     1      38.675 -13.065  -1.655  1.00  0.00     0.068 A 
HETATM   26  C   UNL     1      39.107 -14.389  -1.638  1.00  0.00     0.037 A 
HETATM   27  C   UNL     1      39.817 -14.883  -0.538  1.00  0.00     0.012 A 
BRANCH  25  28
HETATM   28  O   UNL     1      37.997 -12.458  -2.676  1.00  0.00    -0.356 OA
HETATM   29  C   UNL     1      37.143 -11.380  -2.308  1.00  0.00     0.210 C 
ENDBRANCH  25  28
ENDBRANCH   1  22
BRANCH   8  30
HETATM   30  C   UNL     1      42.686 -16.874   3.023  1.00  0.00     0.409 C 
HETATM   31  F   UNL     1      42.731 -17.425   1.790  1.00  0.00    -0.169 F 
HETATM   32  F   UNL     1      43.618 -15.902   3.077  1.00  0.00    -0.169 F 
HETATM   33  F   UNL     1      43.090 -17.841   3.889  1.00  0.00    -0.169 F 
ENDBRANCH   8  30
TORSDOF 6
ENDMDL
MODEL 5
REMARK VINA RESULT:      -8.6      3.269      4.832
REMARK  6 active torsions:
REMARK  status: ('A' for Active; 'I' for Inactive)
REMARK    1  A    between atoms: O_2  and  C_3 
REMARK    2  A    between atoms: C_6  and  C_7 
REMARK    3  A    between atoms: C_13  and  C_14 
REMARK       I    between atoms: C_14  and  N_15 
REMARK    4  A    between atoms: N_15  and  C_16 
REMARK    5  A    between atoms: C_16  and  C_17 
REMARK    6  A    between atoms: C_24  and  C_25 
ROOT
HETATM    1  C   UNL     1      42.332 -15.294   3.163  1.00  0.00     0.118 C 
HETATM    2  N   UNL     1      42.574 -14.162   4.066  1.00  0.00    -0.365 N 
HETATM    3  C   UNL     1      42.809 -14.386   5.392  1.00  0.00     0.138 A 
HETATM    4  N   UNL     1      42.642 -15.642   5.931  1.00  0.00    -0.240 N 
HETATM    5  N   UNL     1      42.859 -15.710   7.250  1.00  0.00    -0.181 NA
HETATM    6  C   UNL     1      43.244 -14.470   7.557  1.00  0.00     0.160 A 
HETATM    7  C   UNL     1      43.219 -13.585   6.446  1.00  0.00     0.096 A 
HETATM    8  C   UNL     1      42.256 -16.821   5.182  1.00  0.00     0.221 C 
HETATM    9  C   UNL     1      41.546 -16.398   3.891  1.00  0.00     0.066 C 
HETATM   10  H   UNL     1      43.082 -13.406   3.600  1.00  0.00     0.161 HD
ENDROOT
BRANCH   7  11
HETATM   11  C   UNL     1      43.549 -12.175   6.506  1.00  0.00     0.257 C 
HETATM   12  N   UNL     1      44.476 -11.818   7.458  1.00  0.00    -0.352 N 
HETATM   13  H   UNL     1      45.019 -12.562   7.872  1.00  0.00     0.163 HD
HETATM   14  O   UNL     1      43.058 -11.367   5.725  1.00  0.00    -0.267 OA
BRANCH  12  15
HETATM   15  C   UNL     1      45.011 -10.478   7.479  1.00  0.00     0.161 C 
BRANCH  15  16
HETATM   16  C   UNL     1      44.492  -9.699   8.656  1.00  0.00    -0.041 A 
HETATM   17  C   UNL     1      44.119  -8.354   8.516  1.00  0.00     0.009 A 
HETATM   18  C   UNL     1      43.631  -7.641   9.611  1.00  0.00     0.001 A 
HETATM   19  C   UNL     1      43.516  -8.259  10.855  1.00  0.00     0.000 A 
HETATM   20  C   UNL     1      43.896  -9.590  11.008  1.00  0.00     0.001 A 
HETATM   21  C   UNL     1      44.387 -10.306   9.915  1.00  0.00     0.009 A 
ENDBRANCH  15  16
ENDBRANCH  12  15
ENDBRANCH   7  11
BRANCH   1  22
HETATM   22  C   UNL     1      41.571 -14.837   1.932  1.00  0.00    -0.035 A 
HETATM   23  C   UNL     1      40.577 -15.657   1.380  1.00  0.00     0.012 A 
HETATM   24  C   UNL     1      39.801 -15.209   0.308  1.00  0.00     0.037 A 
HETATM   25  C   UNL     1      39.991 -13.934  -0.223  1.00  0.00     0.068 A 
HETATM   26  C   UNL     1      40.999 -13.123   0.293  1.00  0.00     0.037 A 
HETATM   27  C   UNL     1      41.784 -13.571   1.361  1.00  0.00     0.012 A 
BRANCH  25  28
HETATM   28  O   UNL     1      39.143 -13.603  -1.244  1.00  0.00    -0.356 OA
HETATM   29  C   UNL     1      39.024 -14.556  -2.295  1.00  0.00     0.210 C 
ENDBRANCH  25  28
ENDBRANCH   1  22
BRANCH   8  30
HETATM   30  C   UNL     1      43.470 -17.687   4.915  1.00  0.00     0.409 C 
HETATM   31  F   UNL     1      43.415 -18.320   3.723  1.00  0.00    -0.169 F 
HETATM   32  F   UNL     1      44.630 -17.002   4.968  1.00  0.00    -0.169 F 
HETATM   33  F   UNL     1      43.555 -18.659   5.862  1.00  0.00    -0.169 F 
ENDBRANCH   8  30
TORSDOF 6
ENDMDL
MODEL 6
REMARK VINA RESULT:      -8.5      2.258      8.676
REMARK  6 active torsions:
REMARK  status: ('A' for Active; 'I' for Inactive)
REMARK    1  A    between atoms: O_2  and  C_3 
REMARK    2  A    between atoms: C_6  and  C_7 
REMARK    3  A    between atoms: C_13  and  C_14 
REMARK       I    between atoms: C_14  and  N_15 
REMARK    4  A    between atoms: N_15  and  C_16 
REMARK    5  A    between atoms: C_16  and  C_17 
REMARK    6  A    between atoms: C_24  and  C_25 
ROOT
HETATM    1  C   UNL     1      42.694 -10.437   7.000  1.00  0.00     0.118 C 
HETATM    2  N   UNL     1      42.914 -11.886   6.897  1.00  0.00    -0.365 N 
HETATM    3  C   UNL     1      42.330 -12.593   5.887  1.00  0.00     0.138 A 
HETATM    4  N   UNL     1      41.390 -12.006   5.071  1.00  0.00    -0.240 N 
HETATM    5  N   UNL     1      40.864 -12.827   4.154  1.00  0.00    -0.181 NA
HETATM    6  C   UNL     1      41.537 -13.962   4.344  1.00  0.00     0.160 A 
HETATM    7  C   UNL     1      42.457 -13.893   5.423  1.00  0.00     0.096 A 
HETATM    8  C   UNL     1      40.965 -10.623   5.158  1.00  0.00     0.221 C 
HETATM    9  C   UNL     1      41.261 -10.084   6.563  1.00  0.00     0.066 C 
HETATM   10  H   UNL     1      43.856 -12.148   7.198  1.00  0.00     0.161 HD
ENDROOT
BRANCH   7  11
HETATM   11  C   UNL     1      43.287 -14.994   5.873  1.00  0.00     0.257 C 
HETATM   12  N   UNL     1      43.314 -16.097   5.051  1.00  0.00    -0.352 N 
HETATM   13  H   UNL     1      42.961 -15.978   4.112  1.00  0.00     0.163 HD
HETATM   14  O   UNL     1      43.950 -14.919   6.903  1.00  0.00    -0.267 OA
BRANCH  12  15
HETATM   15  C   UNL     1      44.246 -17.167   5.308  1.00  0.00     0.161 C 
BRANCH  15  16
HETATM   16  C   UNL     1      44.002 -18.339   4.398  1.00  0.00    -0.041 A 
HETATM   17  C   UNL     1      43.600 -18.142   3.069  1.00  0.00     0.009 A 
HETATM   18  C   UNL     1      43.384 -19.235   2.229  1.00  0.00     0.001 A 
HETATM   19  C   UNL     1      43.562 -20.532   2.707  1.00  0.00     0.000 A 
HETATM   20  C   UNL     1      43.948 -20.739   4.029  1.00  0.00     0.001 A 
HETATM   21  C   UNL     1      44.162 -19.648   4.873  1.00  0.00     0.009 A 
ENDBRANCH  15  16
ENDBRANCH  12  15
ENDBRANCH   7  11
BRANCH   1  22
HETATM   22  C   UNL     1      42.937  -9.963   8.421  1.00  0.00    -0.035 A 
HETATM   23  C   UNL     1      44.082 -10.383   9.112  1.00  0.00     0.012 A 
HETATM   24  C   UNL     1      44.369  -9.878  10.383  1.00  0.00     0.037 A 
HETATM   25  C   UNL     1      43.530  -8.938  10.981  1.00  0.00     0.068 A 
HETATM   26  C   UNL     1      42.370  -8.541  10.320  1.00  0.00     0.037 A 
HETATM   27  C   UNL     1      42.075  -9.050   9.050  1.00  0.00     0.012 A 
BRANCH  25  28
HETATM   28  O   UNL     1      43.941  -8.497  12.208  1.00  0.00    -0.356 OA
HETATM   29  C   UNL     1      42.927  -7.972  13.059  1.00  0.00     0.210 C 
ENDBRANCH  25  28
ENDBRANCH   1  22
BRANCH   8  30
HETATM   30  C   UNL     1      41.632  -9.804   4.074  1.00  0.00     0.409 C 
HETATM   31  F   UNL     1      40.932  -9.788   2.918  1.00  0.00    -0.169 F 
HETATM   32  F   UNL     1      41.858  -8.525   4.438  1.00  0.00    -0.169 F 
HETATM   33  F   UNL     1      42.846 -10.339   3.779  1.00  0.00    -0.169 F 
ENDBRANCH   8  30
TORSDOF 6
ENDMDL
MODEL 7
REMARK VINA RESULT:      -8.4      1.351      1.876
REMARK  6 active torsions:
REMARK  status: ('A' for Active; 'I' for Inactive)
REMARK    1  A    between atoms: O_2  and  C_3 
REMARK    2  A    between atoms: C_6  and  C_7 
REMARK    3  A    between atoms: C_13  and  C_14 
REMARK       I    between atoms: C_14  and  N_15 
REMARK    4  A    between atoms: N_15  and  C_16 
REMARK    5  A    between atoms: C_16  and  C_17 
REMARK    6  A    between atoms: C_24  and  C_25 
ROOT
HETATM    1  C   UNL     1      41.753 -14.372   4.329  1.00  0.00     0.118 C 
HETATM    2  N   UNL     1      42.528 -13.580   5.292  1.00  0.00    -0.365 N 
HETATM    3  C   UNL     1      42.317 -12.235   5.394  1.00  0.00     0.138 A 
HETATM    4  N   UNL     1      41.522 -11.579   4.482  1.00  0.00    -0.240 N 
HETATM    5  N   UNL     1      41.440 -10.256   4.671  1.00  0.00    -0.181 NA
HETATM    6  C   UNL     1      42.152 -10.066   5.783  1.00  0.00     0.160 A 
HETATM    7  C   UNL     1      42.745 -11.257   6.279  1.00  0.00     0.096 A 
HETATM    8  C   UNL     1      40.818 -12.215   3.386  1.00  0.00     0.221 C 
HETATM    9  C   UNL     1      41.491 -13.552   3.053  1.00  0.00     0.066 C 
HETATM   10  H   UNL     1      42.729 -14.109   6.144  1.00  0.00     0.161 HD
ENDROOT
BRANCH   7  11
HETATM   11  C   UNL     1      43.601 -11.330   7.447  1.00  0.00     0.257 C 
HETATM   12  N   UNL     1      43.596 -10.222   8.261  1.00  0.00    -0.352 N 
HETATM   13  H   UNL     1      42.847  -9.557   8.128  1.00  0.00     0.163 HD
HETATM   14  O   UNL     1      44.253 -12.338   7.703  1.00  0.00    -0.267 OA
BRANCH  12  15
HETATM   15  C   UNL     1      44.265 -10.261   9.539  1.00  0.00     0.161 C 
BRANCH  15  16
HETATM   16  C   UNL     1      43.453  -9.579  10.605  1.00  0.00    -0.041 A 
HETATM   17  C   UNL     1      44.079  -8.837  11.617  1.00  0.00     0.009 A 
HETATM   18  C   UNL     1      43.318  -8.200  12.598  1.00  0.00     0.001 A 
HETATM   19  C   UNL     1      41.928  -8.300  12.580  1.00  0.00     0.000 A 
HETATM   20  C   UNL     1      41.297  -9.045  11.587  1.00  0.00     0.001 A 
HETATM   21  C   UNL     1      42.055  -9.686  10.606  1.00  0.00     0.009 A 
ENDBRANCH  15  16
ENDBRANCH  12  15
ENDBRANCH   7  11
BRANCH   1  22
HETATM   22  C   UNL     1      42.490 -15.653   3.982  1.00  0.00    -0.035 A 
HETATM   23  C   UNL     1      43.330 -16.255   4.929  1.00  0.00     0.012 A 
HETATM   24  C   UNL     1      43.937 -17.485   4.660  1.00  0.00     0.037 A 
HETATM   25  C   UNL     1      43.707 -18.142   3.452  1.00  0.00     0.068 A 
HETATM   26  C   UNL     1      42.903 -17.537   2.488  1.00  0.00     0.037 A 
HETATM   27  C   UNL     1      42.300 -16.301   2.750  1.00  0.00     0.012 A 
BRANCH  25  28
HETATM   28  O   UNL     1      44.330 -19.353   3.327  1.00  0.00    -0.356 OA
HETATM   29  C   UNL     1      43.641 -20.337   2.562  1.00  0.00     0.210 C 
ENDBRANCH  25  28
ENDBRANCH   1  22
BRANCH   8  30
HETATM   30  C   UNL     1      39.354 -12.377   3.734  1.00  0.00     0.409 C 
HETATM   31  F   UNL     1      38.641 -11.242   3.564  1.00  0.00    -0.169 F 
HETATM   32  F   UNL     1      38.747 -13.356   3.032  1.00  0.00    -0.169 F 
HETATM   33  F   UNL     1      39.230 -12.714   5.045  1.00  0.00    -0.169 F 
ENDBRANCH   8  30
TORSDOF 6
ENDMDL
MODEL 8
REMARK VINA RESULT:      -8.2      5.611      9.187
REMARK  6 active torsions:
REMARK  status: ('A' for Active; 'I' for Inactive)
REMARK    1  A    between atoms: O_2  and  C_3 
REMARK    2  A    between atoms: C_6  and  C_7 
REMARK    3  A    between atoms: C_13  and  C_14 
REMARK       I    between atoms: C_14  and  N_15 
REMARK    4  A    between atoms: N_15  and  C_16 
REMARK    5  A    between atoms: C_16  and  C_17 
REMARK    6  A    between atoms: C_24  and  C_25 
ROOT
HETATM    1  C   UNL     1      40.857 -11.678  -0.999  1.00  0.00     0.118 C 
HETATM    2  N   UNL     1      41.388 -12.479   0.112  1.00  0.00    -0.365 N 
HETATM    3  C   UNL     1      40.901 -13.734   0.341  1.00  0.00     0.138 A 
HETATM    4  N   UNL     1      39.792 -14.190  -0.335  1.00  0.00    -0.240 N 
HETATM    5  N   UNL     1      39.393 -15.417   0.022  1.00  0.00    -0.181 NA
HETATM    6  C   UNL     1      40.318 -15.788   0.909  1.00  0.00     0.160 A 
HETATM    7  C   UNL     1      41.280 -14.777   1.171  1.00  0.00     0.096 A 
HETATM    8  C   UNL     1      39.075 -13.444  -1.350  1.00  0.00     0.221 C 
HETATM    9  C   UNL     1      39.351 -11.946  -1.176  1.00  0.00     0.066 C 
HETATM   10  H   UNL     1      42.385 -12.307   0.261  1.00  0.00     0.161 HD
ENDROOT
BRANCH   7  11
HETATM   11  C   UNL     1      42.368 -14.899   2.121  1.00  0.00     0.257 C 
HETATM   12  N   UNL     1      42.297 -15.973   2.977  1.00  0.00    -0.352 N 
HETATM   13  H   UNL     1      41.646 -16.708   2.739  1.00  0.00     0.163 HD
HETATM   14  O   UNL     1      43.309 -14.111   2.125  1.00  0.00    -0.267 OA
BRANCH  12  15
HETATM   15  C   UNL     1      43.414 -16.291   3.833  1.00  0.00     0.161 C 
BRANCH  15  16
HETATM   16  C   UNL     1      43.618 -17.776   3.940  1.00  0.00    -0.041 A 
HETATM   17  C   UNL     1      43.594 -18.587   2.797  1.00  0.00     0.009 A 
HETATM   18  C   UNL     1      43.793 -19.965   2.905  1.00  0.00     0.001 A 
HETATM   19  C   UNL     1      44.013 -20.545   4.152  1.00  0.00     0.000 A 
HETATM   20  C   UNL     1      44.026 -19.750   5.297  1.00  0.00     0.001 A 
HETATM   21  C   UNL     1      43.824 -18.373   5.192  1.00  0.00     0.009 A 
ENDBRANCH  15  16
ENDBRANCH  12  15
ENDBRANCH   7  11
BRANCH   1  22
HETATM   22  C   UNL     1      41.097 -10.201  -0.749  1.00  0.00    -0.035 A 
HETATM   23  C   UNL     1      40.368  -9.531   0.243  1.00  0.00     0.012 A 
HETATM   24  C   UNL     1      40.646  -8.197   0.551  1.00  0.00     0.037 A 
HETATM   25  C   UNL     1      41.664  -7.512  -0.112  1.00  0.00     0.068 A 
HETATM   26  C   UNL     1      42.372  -8.155  -1.125  1.00  0.00     0.037 A 
HETATM   27  C   UNL     1      42.090  -9.489  -1.442  1.00  0.00     0.012 A 
BRANCH  25  28
HETATM   28  O   UNL     1      41.861  -6.225   0.307  1.00  0.00    -0.356 OA
HETATM   29  C   UNL     1      42.851  -5.481  -0.395  1.00  0.00     0.210 C 
ENDBRANCH  25  28
ENDBRANCH   1  22
BRANCH   8  30
HETATM   30  C   UNL     1      39.454 -13.944  -2.728  1.00  0.00     0.409 C 
HETATM   31  F   UNL     1      39.138 -13.073  -3.711  1.00  0.00    -0.169 F 
HETATM   32  F   UNL     1      40.765 -14.240  -2.842  1.00  0.00    -0.169 F 
HETATM   33  F   UNL     1      38.778 -15.091  -3.000  1.00  0.00    -0.169 F 
ENDBRANCH   8  30
TORSDOF 6
ENDMDL
MODEL 9
REMARK VINA RESULT:      -8.2      3.096      6.948
REMARK  6 active torsions:
REMARK  status: ('A' for Active; 'I' for Inactive)
REMARK    1  A    between atoms: O_2  and  C_3 
REMARK    2  A    between atoms: C_6  and  C_7 
REMARK    3  A    between atoms: C_13  and  C_14 
REMARK       I    between atoms: C_14  and  N_15 
REMARK    4  A    between atoms: N_15  and  C_16 
REMARK    5  A    between atoms: C_16  and  C_17 
REMARK    6  A    between atoms: C_24  and  C_25 
ROOT
HETATM    1  C   UNL     1      39.817 -12.238   2.792  1.00  0.00     0.118 C 
HETATM    2  N   UNL     1      40.833 -12.886   3.631  1.00  0.00    -0.365 N 
HETATM    3  C   UNL     1      41.404 -12.199   4.663  1.00  0.00     0.138 A 
HETATM    4  N   UNL     1      41.180 -10.849   4.815  1.00  0.00    -0.240 N 
HETATM    5  N   UNL     1      41.840 -10.292   5.838  1.00  0.00    -0.181 NA
HETATM    6  C   UNL     1      42.456 -11.332   6.402  1.00  0.00     0.160 A 
HETATM    7  C   UNL     1      42.243 -12.552   5.708  1.00  0.00     0.096 A 
HETATM    8  C   UNL     1      40.319 -10.050   3.966  1.00  0.00     0.221 C 
HETATM    9  C   UNL     1      40.149 -10.746   2.610  1.00  0.00     0.066 C 
HETATM   10  H   UNL     1      40.643 -13.883   3.754  1.00  0.00     0.161 HD
ENDROOT
BRANCH   7  11
HETATM   11  C   UNL     1      42.827 -13.826   6.079  1.00  0.00     0.257 C 
HETATM   12  N   UNL     1      42.005 -14.921   5.947  1.00  0.00    -0.352 N 
HETATM   13  H   UNL     1      41.166 -14.803   5.396  1.00  0.00     0.163 HD
HETATM   14  O   UNL     1      43.994 -13.915   6.447  1.00  0.00    -0.267 OA
BRANCH  12  15
HETATM   15  C   UNL     1      42.541 -16.251   6.110  1.00  0.00     0.161 C 
BRANCH  15  16
HETATM   16  C   UNL     1      42.751 -16.926   4.783  1.00  0.00    -0.041 A 
HETATM   17  C   UNL     1      43.743 -17.904   4.626  1.00  0.00     0.009 A 
HETATM   18  C   UNL     1      43.925 -18.532   3.393  1.00  0.00     0.001 A 
HETATM   19  C   UNL     1      43.125 -18.186   2.306  1.00  0.00     0.000 A 
HETATM   20  C   UNL     1      42.145 -17.205   2.447  1.00  0.00     0.001 A 
HETATM   21  C   UNL     1      41.962 -16.574   3.679  1.00  0.00     0.009 A 
ENDBRANCH  15  16
ENDBRANCH  12  15
ENDBRANCH   7  11
BRANCH   1  22
HETATM   22  C   UNL     1      39.732 -12.921   1.439  1.00  0.00    -0.035 A 
HETATM   23  C   UNL     1      40.133 -14.257   1.304  1.00  0.00     0.012 A 
HETATM   24  C   UNL     1      39.969 -14.929   0.090  1.00  0.00     0.037 A 
HETATM   25  C   UNL     1      39.391 -14.287  -1.005  1.00  0.00     0.068 A 
HETATM   26  C   UNL     1      39.021 -12.948  -0.894  1.00  0.00     0.037 A 
HETATM   27  C   UNL     1      39.192 -12.270   0.318  1.00  0.00     0.012 A 
BRANCH  25  28
HETATM   28  O   UNL     1      39.253 -15.064  -2.122  1.00  0.00    -0.356 OA
HETATM   29  C   UNL     1      38.500 -14.499  -3.190  1.00  0.00     0.210 C 
ENDBRANCH  25  28
ENDBRANCH   1  22
BRANCH   8  30
HETATM   30  C   UNL     1      38.995  -9.801   4.656  1.00  0.00     0.409 C 
HETATM   31  F   UNL     1      39.013  -8.710   5.454  1.00  0.00    -0.169 F 
HETATM   32  F   UNL     1      37.966  -9.667   3.795  1.00  0.00    -0.169 F 
HETATM   33  F   UNL     1      38.691 -10.856   5.456  1.00  0.00    -0.169 F 
ENDBRANCH   8  30
TORSDOF 6
ENDMDL
MODEL 10
REMARK VINA RESULT:      -8.1      3.484      9.033
REMARK  6 active torsions:
REMARK  status: ('A' for Active; 'I' for Inactive)
REMARK    1  A    between atoms: O_2  and  C_3 
REMARK    2  A    between atoms: C_6  and  C_7 
REMARK    3  A    between atoms: C_13  and  C_14 
REMARK       I    between atoms: C_14  and  N_15 
REMARK    4  A    between atoms: N_15  and  C_16 
REMARK    5  A    between atoms: C_16  and  C_17 
REMARK    6  A    between atoms: C_24  and  C_25 
ROOT
HETATM    1  C   UNL     1      42.932 -13.088   6.214  1.00  0.00     0.118 C 
HETATM    2  N   UNL     1      42.531 -12.867   4.818  1.00  0.00    -0.365 N 
HETATM    3  C   UNL     1      42.406 -13.929   3.970  1.00  0.00     0.138 A 
HETATM    4  N   UNL     1      42.827 -15.184   4.349  1.00  0.00    -0.240 N 
HETATM    5  N   UNL     1      42.690 -16.122   3.404  1.00  0.00    -0.181 NA
HETATM    6  C   UNL     1      42.100 -15.461   2.407  1.00  0.00     0.160 A 
HETATM    7  C   UNL     1      41.909 -14.082   2.685  1.00  0.00     0.096 A 
HETATM    8  C   UNL     1      43.385 -15.514   5.646  1.00  0.00     0.221 C 
HETATM    9  C   UNL     1      43.942 -14.246   6.302  1.00  0.00     0.066 C 
HETATM   10  H   UNL     1      41.871 -12.091   4.731  1.00  0.00     0.161 HD
ENDROOT
BRANCH   7  11
HETATM   11  C   UNL     1      41.329 -13.125   1.762  1.00  0.00     0.257 C 
HETATM   12  N   UNL     1      40.218 -13.556   1.075  1.00  0.00    -0.352 N 
HETATM   13  H   UNL     1      39.758 -14.387   1.420  1.00  0.00     0.163 HD
HETATM   14  O   UNL     1      41.784 -11.992   1.641  1.00  0.00    -0.267 OA
BRANCH  12  15
HETATM   15  C   UNL     1      39.458 -12.627   0.275  1.00  0.00     0.161 C 
BRANCH  15  16
HETATM   16  C   UNL     1      38.940 -13.277  -0.978  1.00  0.00    -0.041 A 
HETATM   17  C   UNL     1      37.895 -12.693  -1.708  1.00  0.00     0.009 A 
HETATM   18  C   UNL     1      37.425 -13.299  -2.875  1.00  0.00     0.001 A 
HETATM   19  C   UNL     1      37.989 -14.494  -3.319  1.00  0.00     0.000 A 
HETATM   20  C   UNL     1      39.019 -15.089  -2.594  1.00  0.00     0.001 A 
HETATM   21  C   UNL     1      39.489 -14.487  -1.425  1.00  0.00     0.009 A 
ENDBRANCH  15  16
ENDBRANCH  12  15
ENDBRANCH   7  11
BRANCH   1  22
HETATM   22  C   UNL     1      43.536 -11.824   6.798  1.00  0.00    -0.035 A 
HETATM   23  C   UNL     1      42.733 -10.692   6.995  1.00  0.00     0.012 A 
HETATM   24  C   UNL     1      43.251  -9.555   7.622  1.00  0.00     0.037 A 
HETATM   25  C   UNL     1      44.570  -9.531   8.076  1.00  0.00     0.068 A 
HETATM   26  C   UNL     1      45.387 -10.637   7.854  1.00  0.00     0.037 A 
HETATM   27  C   UNL     1      44.875 -11.775   7.219  1.00  0.00     0.012 A 
BRANCH  25  28
HETATM   28  O   UNL     1      44.942  -8.375   8.704  1.00  0.00    -0.356 OA
HETATM   29  C   UNL     1      43.892  -7.611   9.287  1.00  0.00     0.210 C 
ENDBRANCH  25  28
ENDBRANCH   1  22
BRANCH   8  30
HETATM   30  C   UNL     1      42.339 -16.195   6.503  1.00  0.00     0.409 C 
HETATM   31  F   UNL     1      42.305 -17.535   6.330  1.00  0.00    -0.169 F 
HETATM   32  F   UNL     1      42.492 -15.951   7.820  1.00  0.00    -0.169 F 
HETATM   33  F   UNL     1      41.104 -15.735   6.169  1.00  0.00    -0.169 F 
ENDBRANCH   8  30
TORSDOF 6
ENDMDL
