MODEL 1
REMARK VINA RESULT:      -9.5      0.000      0.000
REMARK  8 active torsions:
REMARK  status: ('A' for Active; 'I' for Inactive)
REMARK    1  A    between atoms: C_3  and  S_4 
REMARK    2  A    between atoms: S_4  and  N_5 
REMARK    3  A    between atoms: N_5  and  C_6 
REMARK    4  A    between atoms: C_6  and  C_7 
REMARK    5  A    between atoms: C_20  and  C_21 
REMARK    6  A    between atoms: C_25  and  N_26 
REMARK    7  A    between atoms: N_26  and  C_27 
REMARK    8  A    between atoms: C_27  and  C_28 
ROOT
HETATM    1  C   UNL     1      39.801 -12.111   2.205  1.00  0.00     0.050 C 
HETATM    2  C   UNL     1      39.728 -11.678   3.643  1.00  0.00    -0.039 A 
HETATM    3  C   UNL     1      40.500 -12.234   4.676  1.00  0.00     0.081 A 
HETATM    4  C   UNL     1      40.329 -11.799   6.005  1.00  0.00     0.039 A 
HETATM    5  C   UNL     1      39.453 -10.752   6.335  1.00  0.00    -0.003 A 
HETATM    6  C   UNL     1      38.712 -10.181   5.290  1.00  0.00     0.014 A 
HETATM    7  C   UNL     1      38.829 -10.651   3.976  1.00  0.00     0.009 A 
ENDROOT
BRANCH   5   8
HETATM    8  C   UNL     1      39.410 -10.211   7.710  1.00  0.00     0.098 C 
HETATM    9  N   UNL     1      38.646 -10.954   8.535  1.00  0.00    -0.172 NA
HETATM   10  N   UNL     1      38.614 -10.666   9.822  1.00  0.00    -0.266 N 
HETATM   11  H   UNL     1      37.980 -11.207  10.404  1.00  0.00     0.190 HD
HETATM   12  C   UNL     1      39.365  -9.714  10.403  1.00  0.00     0.108 C 
HETATM   13  C   UNL     1      40.089  -8.833   9.552  1.00  0.00     0.016 A 
HETATM   14  C   UNL     1      40.111  -9.083   8.163  1.00  0.00     0.009 A 
HETATM   15  C   UNL     1      40.792  -7.701  10.038  1.00  0.00     0.016 A 
HETATM   16  C   UNL     1      40.814  -8.188   7.316  1.00  0.00     0.015 A 
HETATM   17  C   UNL     1      41.501  -7.087   7.825  1.00  0.00     0.001 A 
HETATM   18  C   UNL     1      41.492  -6.845   9.188  1.00  0.00     0.001 A 
BRANCH  12  19
HETATM   19  N   UNL     1      39.362  -9.530  11.791  1.00  0.00    -0.273 NA
HETATM   20  H   UNL     1      39.277  -8.538  12.021  1.00  0.00     0.129 HD
BRANCH  19  21
HETATM   21  C   UNL     1      40.335 -10.164  12.683  1.00  0.00     0.132 C 
BRANCH  21  22
HETATM   22  C   UNL     1      41.310  -9.159  13.243  1.00  0.00    -0.045 A 
HETATM   23  C   UNL     1      42.544  -8.935  12.613  1.00  0.00     0.008 A 
HETATM   24  C   UNL     1      43.440  -7.998  13.129  1.00  0.00     0.001 A 
HETATM   25  C   UNL     1      43.107  -7.261  14.264  1.00  0.00     0.000 A 
HETATM   26  C   UNL     1      41.876  -7.456  14.884  1.00  0.00     0.001 A 
HETATM   27  C   UNL     1      40.980  -8.395  14.375  1.00  0.00     0.008 A 
ENDBRANCH  21  22
ENDBRANCH  19  21
ENDBRANCH  12  19
ENDBRANCH   5   8
BRANCH   3  28
HETATM   28  S   UNL     1      41.760 -13.484   4.403  1.00  0.00     0.242 S 
HETATM   29  O   UNL     1      41.101 -14.654   3.862  1.00  0.00    -0.206 OA
HETATM   30  O   UNL     1      42.894 -12.881   3.749  1.00  0.00    -0.206 OA
BRANCH  28  31
HETATM   31  N   UNL     1      42.228 -13.831   5.999  1.00  0.00    -0.208 NA
HETATM   32  H   UNL     1      41.751 -14.669   6.340  1.00  0.00     0.140 HD
BRANCH  31  33
HETATM   33  C   UNL     1      43.684 -13.897   6.206  1.00  0.00     0.182 C 
BRANCH  33  34
HETATM   34  C   UNL     1      44.134 -12.662   6.905  1.00  0.00     0.119 A 
HETATM   35  N   UNL     1      45.260 -12.002   6.698  1.00  0.00    -0.232 NA
HETATM   36  C   UNL     1      45.195 -10.905   7.526  1.00  0.00     0.085 A 
HETATM   37  C   UNL     1      44.021 -10.913   8.272  1.00  0.00     0.062 A 
HETATM   38  C   UNL     1      46.102  -9.848   7.693  1.00  0.00     0.034 A 
HETATM   39  N   UNL     1      43.371 -12.049   7.869  1.00  0.00    -0.342 N 
HETATM   40  C   UNL     1      43.690  -9.918   9.193  1.00  0.00     0.032 A 
HETATM   41  H   UNL     1      42.478 -12.380   8.213  1.00  0.00     0.167 HD
HETATM   42  C   UNL     1      44.606  -8.870   9.343  1.00  0.00     0.002 A 
HETATM   43  C   UNL     1      45.792  -8.832   8.606  1.00  0.00     0.002 A 
ENDBRANCH  33  34
ENDBRANCH  31  33
ENDBRANCH  28  31
ENDBRANCH   3  28
TORSDOF 8
ENDMDL
MODEL 2
REMARK VINA RESULT:      -9.3      3.726      8.889
REMARK  8 active torsions:
REMARK  status: ('A' for Active; 'I' for Inactive)
REMARK    1  A    between atoms: C_3  and  S_4 
REMARK    2  A    between atoms: S_4  and  N_5 
REMARK    3  A    between atoms: N_5  and  C_6 
REMARK    4  A    between atoms: C_6  and  C_7 
REMARK    5  A    between atoms: C_20  and  C_21 
REMARK    6  A    between atoms: C_25  and  N_26 
REMARK    7  A    between atoms: N_26  and  C_27 
REMARK    8  A    between atoms: C_27  and  C_28 
ROOT
HETATM    1  C   UNL     1      42.099  -7.808   7.298  1.00  0.00     0.050 C 
HETATM    2  C   UNL     1      42.059  -9.117   6.561  1.00  0.00    -0.039 A 
HETATM    3  C   UNL     1      42.896 -10.209   6.840  1.00  0.00     0.081 A 
HETATM    4  C   UNL     1      42.820 -11.382   6.063  1.00  0.00     0.039 A 
HETATM    5  C   UNL     1      41.864 -11.535   5.044  1.00  0.00    -0.003 A 
HETATM    6  C   UNL     1      41.011 -10.450   4.797  1.00  0.00     0.014 A 
HETATM    7  C   UNL     1      41.122  -9.258   5.522  1.00  0.00     0.009 A 
ENDROOT
BRANCH   5   8
HETATM    8  C   UNL     1      41.703 -12.831   4.352  1.00  0.00     0.098 C 
HETATM    9  N   UNL     1      42.158 -12.800   3.083  1.00  0.00    -0.172 NA
HETATM   10  N   UNL     1      42.196 -13.916   2.383  1.00  0.00    -0.266 N 
HETATM   11  H   UNL     1      42.486 -13.845   1.411  1.00  0.00     0.190 HD
HETATM   12  C   UNL     1      41.883 -15.128   2.873  1.00  0.00     0.108 C 
HETATM   13  C   UNL     1      41.286 -15.185   4.163  1.00  0.00     0.016 A 
HETATM   14  C   UNL     1      41.187 -14.002   4.926  1.00  0.00     0.009 A 
HETATM   15  C   UNL     1      40.776 -16.385   4.721  1.00  0.00     0.016 A 
HETATM   16  C   UNL     1      40.569 -14.060   6.203  1.00  0.00     0.015 A 
HETATM   17  C   UNL     1      40.082 -15.256   6.726  1.00  0.00     0.001 A 
HETATM   18  C   UNL     1      40.188 -16.420   5.986  1.00  0.00     0.001 A 
BRANCH  12  19
HETATM   19  N   UNL     1      42.046 -16.289   2.106  1.00  0.00    -0.273 NA
HETATM   20  H   UNL     1      41.387 -17.011   2.403  1.00  0.00     0.129 HD
BRANCH  19  21
HETATM   21  C   UNL     1      43.353 -16.892   1.839  1.00  0.00     0.132 C 
BRANCH  21  22
HETATM   22  C   UNL     1      43.585 -18.114   2.691  1.00  0.00    -0.045 A 
HETATM   23  C   UNL     1      43.977 -17.984   4.032  1.00  0.00     0.008 A 
HETATM   24  C   UNL     1      44.181 -19.117   4.821  1.00  0.00     0.001 A 
HETATM   25  C   UNL     1      43.978 -20.388   4.287  1.00  0.00     0.000 A 
HETATM   26  C   UNL     1      43.565 -20.530   2.965  1.00  0.00     0.001 A 
HETATM   27  C   UNL     1      43.365 -19.401   2.172  1.00  0.00     0.008 A 
ENDBRANCH  21  22
ENDBRANCH  19  21
ENDBRANCH  12  19
ENDBRANCH   5   8
BRANCH   3  28
HETATM   28  S   UNL     1      44.077 -10.226   8.193  1.00  0.00     0.242 S 
HETATM   29  O   UNL     1      44.866 -11.432   8.065  1.00  0.00    -0.206 OA
HETATM   30  O   UNL     1      44.690  -8.925   8.304  1.00  0.00    -0.206 OA
BRANCH  28  31
HETATM   31  N   UNL     1      43.043 -10.408   9.529  1.00  0.00    -0.208 NA
HETATM   32  H   UNL     1      42.297 -11.074   9.317  1.00  0.00     0.140 HD
BRANCH  31  33
HETATM   33  C   UNL     1      43.731 -10.726  10.791  1.00  0.00     0.182 C 
BRANCH  33  34
HETATM   34  C   UNL     1      43.183  -9.865  11.875  1.00  0.00     0.119 A 
HETATM   35  N   UNL     1      42.186 -10.159  12.689  1.00  0.00    -0.232 NA
HETATM   36  C   UNL     1      42.094  -9.091  13.553  1.00  0.00     0.085 A 
HETATM   37  C   UNL     1      43.037  -8.117  13.240  1.00  0.00     0.062 A 
HETATM   38  C   UNL     1      41.232  -8.882  14.640  1.00  0.00     0.034 A 
HETATM   39  N   UNL     1      43.707  -8.627  12.159  1.00  0.00    -0.342 N 
HETATM   40  C   UNL     1      43.174  -6.924  13.953  1.00  0.00     0.032 A 
HETATM   41  H   UNL     1      44.462  -8.177  11.659  1.00  0.00     0.167 HD
HETATM   42  C   UNL     1      42.307  -6.736  15.035  1.00  0.00     0.002 A 
HETATM   43  C   UNL     1      41.352  -7.697  15.376  1.00  0.00     0.002 A 
ENDBRANCH  33  34
ENDBRANCH  31  33
ENDBRANCH  28  31
ENDBRANCH   3  28
TORSDOF 8
ENDMDL
MODEL 3
REMARK VINA RESULT:      -9.0      3.681      9.344
REMARK  8 active torsions:
REMARK  status: ('A' for Active; 'I' for Inactive)
REMARK    1  A    between atoms: C_3  and  S_4 
REMARK    2  A    between atoms: S_4  and  N_5 
REMARK    3  A    between atoms: N_5  and  C_6 
REMARK    4  A    between atoms: C_6  and  C_7 
REMARK    5  A    between atoms: C_20  and  C_21 
REMARK    6  A    between atoms: C_25  and  N_26 
REMARK    7  A    between atoms: N_26  and  C_27 
REMARK    8  A    between atoms: C_27  and  C_28 
ROOT
HETATM    1  C   UNL     1      45.835  -8.691   8.461  1.00  0.00     0.050 C 
HETATM    2  C   UNL     1      45.157  -9.826   7.745  1.00  0.00    -0.039 A 
HETATM    3  C   UNL     1      43.765  -9.988   7.661  1.00  0.00     0.081 A 
HETATM    4  C   UNL     1      43.218 -11.112   7.009  1.00  0.00     0.039 A 
HETATM    5  C   UNL     1      44.027 -12.057   6.358  1.00  0.00    -0.003 A 
HETATM    6  C   UNL     1      45.415 -11.866   6.420  1.00  0.00     0.014 A 
HETATM    7  C   UNL     1      45.969 -10.787   7.120  1.00  0.00     0.009 A 
ENDROOT
BRANCH   5   8
HETATM    8  C   UNL     1      43.421 -13.137   5.551  1.00  0.00     0.098 C 
HETATM    9  N   UNL     1      43.267 -12.791   4.257  1.00  0.00    -0.172 NA
HETATM   10  N   UNL     1      42.856 -13.695   3.389  1.00  0.00    -0.266 N 
HETATM   11  H   UNL     1      42.691 -13.384   2.436  1.00  0.00     0.190 HD
HETATM   12  C   UNL     1      42.649 -14.990   3.688  1.00  0.00     0.108 C 
HETATM   13  C   UNL     1      42.684 -15.366   5.060  1.00  0.00     0.016 A 
HETATM   14  C   UNL     1      43.077 -14.412   6.023  1.00  0.00     0.009 A 
HETATM   15  C   UNL     1      42.334 -16.664   5.509  1.00  0.00     0.016 A 
HETATM   16  C   UNL     1      43.086 -14.785   7.392  1.00  0.00     0.015 A 
HETATM   17  C   UNL     1      42.742 -16.072   7.802  1.00  0.00     0.001 A 
HETATM   18  C   UNL     1      42.368 -17.013   6.859  1.00  0.00     0.001 A 
BRANCH  12  19
HETATM   19  N   UNL     1      42.315 -15.922   2.697  1.00  0.00    -0.273 NA
HETATM   20  H   UNL     1      41.590 -16.559   3.033  1.00  0.00     0.129 HD
BRANCH  19  21
HETATM   21  C   UNL     1      43.316 -16.669   1.933  1.00  0.00     0.132 C 
BRANCH  21  22
HETATM   22  C   UNL     1      43.522 -18.053   2.494  1.00  0.00    -0.045 A 
HETATM   23  C   UNL     1      44.228 -18.239   3.692  1.00  0.00     0.008 A 
HETATM   24  C   UNL     1      44.407 -19.521   4.214  1.00  0.00     0.001 A 
HETATM   25  C   UNL     1      43.870 -20.627   3.557  1.00  0.00     0.000 A 
HETATM   26  C   UNL     1      43.146 -20.453   2.381  1.00  0.00     0.001 A 
HETATM   27  C   UNL     1      42.968 -19.174   1.854  1.00  0.00     0.008 A 
ENDBRANCH  21  22
ENDBRANCH  19  21
ENDBRANCH  12  19
ENDBRANCH   5   8
BRANCH   3  28
HETATM   28  S   UNL     1      42.591  -8.802   8.322  1.00  0.00     0.242 S 
HETATM   29  O   UNL     1      43.348  -7.671   8.816  1.00  0.00    -0.206 OA
HETATM   30  O   UNL     1      41.504  -8.638   7.389  1.00  0.00    -0.206 OA
BRANCH  28  31
HETATM   31  N   UNL     1      41.980  -9.654   9.658  1.00  0.00    -0.208 NA
HETATM   32  H   UNL     1      41.376 -10.419   9.350  1.00  0.00     0.140 HD
BRANCH  31  33
HETATM   33  C   UNL     1      43.006 -10.105  10.614  1.00  0.00     0.182 C 
BRANCH  33  34
HETATM   34  C   UNL     1      42.822  -9.383  11.903  1.00  0.00     0.119 A 
HETATM   35  N   UNL     1      43.525  -8.354  12.340  1.00  0.00    -0.232 NA
HETATM   36  C   UNL     1      42.944  -7.998  13.535  1.00  0.00     0.085 A 
HETATM   37  C   UNL     1      41.885  -8.844  13.845  1.00  0.00     0.062 A 
HETATM   38  C   UNL     1      43.262  -6.952  14.415  1.00  0.00     0.034 A 
HETATM   39  N   UNL     1      41.838  -9.727  12.798  1.00  0.00    -0.342 N 
HETATM   40  C   UNL     1      41.111  -8.715  15.000  1.00  0.00     0.032 A 
HETATM   41  H   UNL     1      41.188 -10.495  12.694  1.00  0.00     0.167 HD
HETATM   42  C   UNL     1      41.441  -7.665  15.863  1.00  0.00     0.002 A 
HETATM   43  C   UNL     1      42.497  -6.795  15.578  1.00  0.00     0.002 A 
ENDBRANCH  33  34
ENDBRANCH  31  33
ENDBRANCH  28  31
ENDBRANCH   3  28
TORSDOF 8
ENDMDL
MODEL 4
REMARK VINA RESULT:      -9.0      3.082      6.931
REMARK  8 active torsions:
REMARK  status: ('A' for Active; 'I' for Inactive)
REMARK    1  A    between atoms: C_3  and  S_4 
REMARK    2  A    between atoms: S_4  and  N_5 
REMARK    3  A    between atoms: N_5  and  C_6 
REMARK    4  A    between atoms: C_6  and  C_7 
REMARK    5  A    between atoms: C_20  and  C_21 
REMARK    6  A    between atoms: C_25  and  N_26 
REMARK    7  A    between atoms: N_26  and  C_27 
REMARK    8  A    between atoms: C_27  and  C_28 
ROOT
HETATM    1  C   UNL     1      43.599 -17.349   4.458  1.00  0.00     0.050 C 
HETATM    2  C   UNL     1      43.461 -15.934   4.948  1.00  0.00    -0.039 A 
HETATM    3  C   UNL     1      42.810 -14.912   4.239  1.00  0.00     0.081 A 
HETATM    4  C   UNL     1      42.771 -13.601   4.755  1.00  0.00     0.039 A 
HETATM    5  C   UNL     1      43.303 -13.285   6.016  1.00  0.00    -0.003 A 
HETATM    6  C   UNL     1      43.920 -14.323   6.730  1.00  0.00     0.014 A 
HETATM    7  C   UNL     1      44.019 -15.613   6.197  1.00  0.00     0.009 A 
ENDROOT
BRANCH   5   8
HETATM    8  C   UNL     1      43.109 -11.941   6.599  1.00  0.00     0.098 C 
HETATM    9  N   UNL     1      41.811 -11.580   6.646  1.00  0.00    -0.172 NA
HETATM   10  N   UNL     1      41.473 -10.460   7.256  1.00  0.00    -0.266 N 
HETATM   11  H   UNL     1      40.495 -10.187   7.218  1.00  0.00     0.190 HD
HETATM   12  C   UNL     1      42.335  -9.670   7.919  1.00  0.00     0.108 C 
HETATM   13  C   UNL     1      43.724  -9.952   7.790  1.00  0.00     0.016 A 
HETATM   14  C   UNL     1      44.127 -11.120   7.106  1.00  0.00     0.009 A 
HETATM   15  C   UNL     1      44.732  -9.105   8.316  1.00  0.00     0.016 A 
HETATM   16  C   UNL     1      45.513 -11.383   6.959  1.00  0.00     0.015 A 
HETATM   17  C   UNL     1      46.480 -10.534   7.492  1.00  0.00     0.001 A 
HETATM   18  C   UNL     1      46.089  -9.394   8.174  1.00  0.00     0.001 A 
BRANCH  12  19
HETATM   19  N   UNL     1      41.895  -8.550   8.635  1.00  0.00    -0.273 NA
HETATM   20  H   UNL     1      42.690  -8.013   8.988  1.00  0.00     0.129 HD
BRANCH  19  21
HETATM   21  C   UNL     1      40.849  -8.617   9.658  1.00  0.00     0.132 C 
BRANCH  21  22
HETATM   22  C   UNL     1      41.435  -8.668  11.047  1.00  0.00    -0.045 A 
HETATM   23  C   UNL     1      40.731  -9.280  12.095  1.00  0.00     0.008 A 
HETATM   24  C   UNL     1      41.281  -9.334  13.377  1.00  0.00     0.001 A 
HETATM   25  C   UNL     1      42.543  -8.796  13.622  1.00  0.00     0.000 A 
HETATM   26  C   UNL     1      43.262  -8.208  12.585  1.00  0.00     0.001 A 
HETATM   27  C   UNL     1      42.715  -8.148  11.303  1.00  0.00     0.008 A 
ENDBRANCH  21  22
ENDBRANCH  19  21
ENDBRANCH  12  19
ENDBRANCH   5   8
BRANCH   3  28
HETATM   28  S   UNL     1      41.963 -15.178   2.678  1.00  0.00     0.242 S 
HETATM   29  O   UNL     1      42.976 -15.317   1.653  1.00  0.00    -0.206 OA
HETATM   30  O   UNL     1      40.928 -16.166   2.861  1.00  0.00    -0.206 OA
BRANCH  28  31
HETATM   31  N   UNL     1      41.193 -13.679   2.463  1.00  0.00    -0.208 NA
HETATM   32  H   UNL     1      41.303 -13.097   3.296  1.00  0.00     0.140 HD
BRANCH  31  33
HETATM   33  C   UNL     1      41.577 -12.969   1.231  1.00  0.00     0.182 C 
BRANCH  33  34
HETATM   34  C   UNL     1      40.529 -13.185   0.196  1.00  0.00     0.119 A 
HETATM   35  N   UNL     1      39.452 -12.446  -0.004  1.00  0.00    -0.232 NA
HETATM   36  C   UNL     1      38.833 -12.997  -1.103  1.00  0.00     0.085 A 
HETATM   37  C   UNL     1      39.531 -14.109  -1.562  1.00  0.00     0.062 A 
HETATM   38  C   UNL     1      37.669 -12.597  -1.775  1.00  0.00     0.034 A 
HETATM   39  N   UNL     1      40.598 -14.217  -0.709  1.00  0.00    -0.342 N 
HETATM   40  C   UNL     1      39.132 -14.864  -2.666  1.00  0.00     0.032 A 
HETATM   41  H   UNL     1      41.318 -14.926  -0.741  1.00  0.00     0.167 HD
HETATM   42  C   UNL     1      37.970 -14.448  -3.326  1.00  0.00     0.002 A 
HETATM   43  C   UNL     1      37.249 -13.332  -2.891  1.00  0.00     0.002 A 
ENDBRANCH  33  34
ENDBRANCH  31  33
ENDBRANCH  28  31
ENDBRANCH   3  28
TORSDOF 8
ENDMDL
MODEL 5
REMARK VINA RESULT:      -9.0      4.875      9.722
REMARK  8 active torsions:
REMARK  status: ('A' for Active; 'I' for Inactive)
REMARK    1  A    between atoms: C_3  and  S_4 
REMARK    2  A    between atoms: S_4  and  N_5 
REMARK    3  A    between atoms: N_5  and  C_6 
REMARK    4  A    between atoms: C_6  and  C_7 
REMARK    5  A    between atoms: C_20  and  C_21 
REMARK    6  A    between atoms: C_25  and  N_26 
REMARK    7  A    between atoms: N_26  and  C_27 
REMARK    8  A    between atoms: C_27  and  C_28 
ROOT
HETATM    1  C   UNL     1      44.569 -19.726   4.652  1.00  0.00     0.050 C 
HETATM    2  C   UNL     1      43.778 -18.589   4.067  1.00  0.00    -0.039 A 
HETATM    3  C   UNL     1      43.300 -17.496   4.806  1.00  0.00     0.081 A 
HETATM    4  C   UNL     1      42.524 -16.499   4.182  1.00  0.00     0.039 A 
HETATM    5  C   UNL     1      42.269 -16.515   2.800  1.00  0.00    -0.003 A 
HETATM    6  C   UNL     1      42.782 -17.594   2.066  1.00  0.00     0.014 A 
HETATM    7  C   UNL     1      43.499 -18.622   2.690  1.00  0.00     0.009 A 
ENDROOT
BRANCH   5   8
HETATM    8  C   UNL     1      41.589 -15.377   2.147  1.00  0.00     0.098 C 
HETATM    9  N   UNL     1      40.536 -15.764   1.399  1.00  0.00    -0.172 NA
HETATM   10  N   UNL     1      39.756 -14.849   0.857  1.00  0.00    -0.266 N 
HETATM   11  H   UNL     1      39.010 -15.175   0.249  1.00  0.00     0.190 HD
HETATM   12  C   UNL     1      39.885 -13.527   1.063  1.00  0.00     0.108 C 
HETATM   13  C   UNL     1      41.050 -13.075   1.745  1.00  0.00     0.016 A 
HETATM   14  C   UNL     1      41.933 -14.026   2.300  1.00  0.00     0.009 A 
HETATM   15  C   UNL     1      41.371 -11.701   1.888  1.00  0.00     0.016 A 
HETATM   16  C   UNL     1      43.105 -13.571   2.957  1.00  0.00     0.015 A 
HETATM   17  C   UNL     1      43.390 -12.213   3.087  1.00  0.00     0.001 A 
HETATM   18  C   UNL     1      42.521 -11.277   2.554  1.00  0.00     0.001 A 
BRANCH  12  19
HETATM   19  N   UNL     1      38.959 -12.614   0.543  1.00  0.00    -0.273 NA
HETATM   20  H   UNL     1      38.034 -13.043   0.471  1.00  0.00     0.129 HD
BRANCH  19  21
HETATM   21  C   UNL     1      39.221 -11.800  -0.645  1.00  0.00     0.132 C 
BRANCH  21  22
HETATM   22  C   UNL     1      38.031 -11.768  -1.570  1.00  0.00    -0.045 A 
HETATM   23  C   UNL     1      37.376 -10.559  -1.847  1.00  0.00     0.008 A 
HETATM   24  C   UNL     1      36.281 -10.531  -2.711  1.00  0.00     0.001 A 
HETATM   25  C   UNL     1      35.840 -11.704  -3.322  1.00  0.00     0.000 A 
HETATM   26  C   UNL     1      36.497 -12.907  -3.075  1.00  0.00     0.001 A 
HETATM   27  C   UNL     1      37.589 -12.939  -2.208  1.00  0.00     0.008 A 
ENDBRANCH  21  22
ENDBRANCH  19  21
ENDBRANCH  12  19
ENDBRANCH   5   8
BRANCH   3  28
HETATM   28  S   UNL     1      43.649 -17.256   6.551  1.00  0.00     0.242 S 
HETATM   29  O   UNL     1      43.361 -18.502   7.227  1.00  0.00    -0.206 OA
HETATM   30  O   UNL     1      44.922 -16.591   6.693  1.00  0.00    -0.206 OA
BRANCH  28  31
HETATM   31  N   UNL     1      42.447 -16.132   6.975  1.00  0.00    -0.208 NA
HETATM   32  H   UNL     1      41.838 -16.515   7.700  1.00  0.00     0.140 HD
BRANCH  31  33
HETATM   33  C   UNL     1      42.959 -14.796   7.324  1.00  0.00     0.182 C 
BRANCH  33  34
HETATM   34  C   UNL     1      42.115 -13.762   6.664  1.00  0.00     0.119 A 
HETATM   35  N   UNL     1      40.985 -13.964   6.010  1.00  0.00    -0.232 NA
HETATM   36  C   UNL     1      40.549 -12.711   5.644  1.00  0.00     0.085 A 
HETATM   37  C   UNL     1      41.445 -11.731   6.060  1.00  0.00     0.062 A 
HETATM   38  C   UNL     1      39.387 -12.327   4.959  1.00  0.00     0.034 A 
HETATM   39  N   UNL     1      42.441 -12.428   6.692  1.00  0.00    -0.342 N 
HETATM   40  C   UNL     1      41.254 -10.368   5.826  1.00  0.00     0.032 A 
HETATM   41  H   UNL     1      43.269 -12.031   7.116  1.00  0.00     0.167 HD
HETATM   42  C   UNL     1      40.088 -10.004   5.144  1.00  0.00     0.002 A 
HETATM   43  C   UNL     1      39.167 -10.965   4.717  1.00  0.00     0.002 A 
ENDBRANCH  33  34
ENDBRANCH  31  33
ENDBRANCH  28  31
ENDBRANCH   3  28
TORSDOF 8
ENDMDL
MODEL 6
REMARK VINA RESULT:      -8.9      3.684      9.244
REMARK  8 active torsions:
REMARK  status: ('A' for Active; 'I' for Inactive)
REMARK    1  A    between atoms: C_3  and  S_4 
REMARK    2  A    between atoms: S_4  and  N_5 
REMARK    3  A    between atoms: N_5  and  C_6 
REMARK    4  A    between atoms: C_6  and  C_7 
REMARK    5  A    between atoms: C_20  and  C_21 
REMARK    6  A    between atoms: C_25  and  N_26 
REMARK    7  A    between atoms: N_26  and  C_27 
REMARK    8  A    between atoms: C_27  and  C_28 
ROOT
HETATM    1  C   UNL     1      45.315  -8.385   9.166  1.00  0.00     0.050 C 
HETATM    2  C   UNL     1      44.854  -9.523   8.299  1.00  0.00    -0.039 A 
HETATM    3  C   UNL     1      43.511  -9.893   8.129  1.00  0.00     0.081 A 
HETATM    4  C   UNL     1      43.175 -11.007   7.333  1.00  0.00     0.039 A 
HETATM    5  C   UNL     1      44.147 -11.732   6.624  1.00  0.00    -0.003 A 
HETATM    6  C   UNL     1      45.482 -11.331   6.775  1.00  0.00     0.014 A 
HETATM    7  C   UNL     1      45.831 -10.266   7.614  1.00  0.00     0.009 A 
ENDROOT
BRANCH   5   8
HETATM    8  C   UNL     1      43.751 -12.794   5.676  1.00  0.00     0.098 C 
HETATM    9  N   UNL     1      43.931 -14.031   6.180  1.00  0.00    -0.172 NA
HETATM   10  N   UNL     1      43.505 -15.076   5.497  1.00  0.00    -0.266 N 
HETATM   11  H   UNL     1      43.712 -15.996   5.877  1.00  0.00     0.190 HD
HETATM   12  C   UNL     1      42.817 -14.997   4.345  1.00  0.00     0.108 C 
HETATM   13  C   UNL     1      42.714 -13.721   3.722  1.00  0.00     0.016 A 
HETATM   14  C   UNL     1      43.199 -12.584   4.404  1.00  0.00     0.009 A 
HETATM   15  C   UNL     1      42.147 -13.538   2.435  1.00  0.00     0.016 A 
HETATM   16  C   UNL     1      43.116 -11.318   3.768  1.00  0.00     0.015 A 
HETATM   17  C   UNL     1      42.547 -11.170   2.504  1.00  0.00     0.001 A 
HETATM   18  C   UNL     1      42.060 -12.280   1.838  1.00  0.00     0.001 A 
BRANCH  12  19
HETATM   19  N   UNL     1      42.301 -16.142   3.724  1.00  0.00    -0.273 NA
HETATM   20  H   UNL     1      41.969 -16.810   4.422  1.00  0.00     0.129 HD
BRANCH  19  21
HETATM   21  C   UNL     1      43.001 -16.852   2.651  1.00  0.00     0.132 C 
BRANCH  21  22
HETATM   22  C   UNL     1      43.343 -18.264   3.053  1.00  0.00    -0.045 A 
HETATM   23  C   UNL     1      43.205 -19.319   2.137  1.00  0.00     0.008 A 
HETATM   24  C   UNL     1      43.533 -20.624   2.509  1.00  0.00     0.001 A 
HETATM   25  C   UNL     1      44.017 -20.887   3.789  1.00  0.00     0.000 A 
HETATM   26  C   UNL     1      44.182 -19.846   4.699  1.00  0.00     0.001 A 
HETATM   27  C   UNL     1      43.852 -18.542   4.333  1.00  0.00     0.008 A 
ENDBRANCH  21  22
ENDBRANCH  19  21
ENDBRANCH  12  19
ENDBRANCH   5   8
BRANCH   3  28
HETATM   28  S   UNL     1      42.139  -8.992   8.855  1.00  0.00     0.242 S 
HETATM   29  O   UNL     1      42.259  -9.103  10.293  1.00  0.00    -0.206 OA
HETATM   30  O   UNL     1      42.010  -7.713   8.201  1.00  0.00    -0.206 OA
BRANCH  28  31
HETATM   31  N   UNL     1      40.821  -9.943   8.359  1.00  0.00    -0.208 NA
HETATM   32  H   UNL     1      40.409 -10.429   9.158  1.00  0.00     0.140 HD
BRANCH  31  33
HETATM   33  C   UNL     1      39.814  -9.221   7.565  1.00  0.00     0.182 C 
BRANCH  33  34
HETATM   34  C   UNL     1      39.573  -9.959   6.295  1.00  0.00     0.119 A 
HETATM   35  N   UNL     1      39.688 -11.260   6.103  1.00  0.00    -0.232 NA
HETATM   36  C   UNL     1      39.300 -11.471   4.799  1.00  0.00     0.085 A 
HETATM   37  C   UNL     1      38.969 -10.271   4.178  1.00  0.00     0.062 A 
HETATM   38  C   UNL     1      39.196 -12.667   4.073  1.00  0.00     0.034 A 
HETATM   39  N   UNL     1      39.167  -9.322   5.147  1.00  0.00    -0.342 N 
HETATM   40  C   UNL     1      38.538 -10.186   2.853  1.00  0.00     0.032 A 
HETATM   41  H   UNL     1      39.029  -8.325   5.041  1.00  0.00     0.167 HD
HETATM   42  C   UNL     1      38.438 -11.389   2.146  1.00  0.00     0.002 A 
HETATM   43  C   UNL     1      38.759 -12.611   2.743  1.00  0.00     0.002 A 
ENDBRANCH  33  34
ENDBRANCH  31  33
ENDBRANCH  28  31
ENDBRANCH   3  28
TORSDOF 8
ENDMDL
MODEL 7
REMARK VINA RESULT:      -8.8      3.663      9.637
REMARK  8 active torsions:
REMARK  status: ('A' for Active; 'I' for Inactive)
REMARK    1  A    between atoms: C_3  and  S_4 
REMARK    2  A    between atoms: S_4  and  N_5 
REMARK    3  A    between atoms: N_5  and  C_6 
REMARK    4  A    between atoms: C_6  and  C_7 
REMARK    5  A    between atoms: C_20  and  C_21 
REMARK    6  A    between atoms: C_25  and  N_26 
REMARK    7  A    between atoms: N_26  and  C_27 
REMARK    8  A    between atoms: C_27  and  C_28 
ROOT
HETATM    1  C   UNL     1      45.729  -9.254   9.050  1.00  0.00     0.050 C 
HETATM    2  C   UNL     1      45.064 -10.100   8.000  1.00  0.00    -0.039 A 
HETATM    3  C   UNL     1      43.674 -10.211   7.838  1.00  0.00     0.081 A 
HETATM    4  C   UNL     1      43.139 -11.069   6.856  1.00  0.00     0.039 A 
HETATM    5  C   UNL     1      43.960 -11.775   5.961  1.00  0.00    -0.003 A 
HETATM    6  C   UNL     1      45.347 -11.629   6.112  1.00  0.00     0.014 A 
HETATM    7  C   UNL     1      45.887 -10.829   7.125  1.00  0.00     0.009 A 
ENDROOT
BRANCH   5   8
HETATM    8  C   UNL     1      43.371 -12.541   4.844  1.00  0.00     0.098 C 
HETATM    9  N   UNL     1      43.192 -11.790   3.738  1.00  0.00    -0.172 NA
HETATM   10  N   UNL     1      42.792 -12.367   2.622  1.00  0.00    -0.266 N 
HETATM   11  H   UNL     1      42.608 -11.762   1.826  1.00  0.00     0.190 HD
HETATM   12  C   UNL     1      42.620 -13.692   2.474  1.00  0.00     0.108 C 
HETATM   13  C   UNL     1      42.681 -14.501   3.644  1.00  0.00     0.016 A 
HETATM   14  C   UNL     1      43.063 -13.909   4.868  1.00  0.00     0.009 A 
HETATM   15  C   UNL     1      42.367 -15.884   3.639  1.00  0.00     0.016 A 
HETATM   16  C   UNL     1      43.098 -14.715   6.036  1.00  0.00     0.015 A 
HETATM   17  C   UNL     1      42.790 -16.074   5.997  1.00  0.00     0.001 A 
HETATM   18  C   UNL     1      42.427 -16.659   4.797  1.00  0.00     0.001 A 
BRANCH  12  19
HETATM   19  N   UNL     1      42.296 -14.252   1.232  1.00  0.00    -0.273 NA
HETATM   20  H   UNL     1      42.651 -13.669   0.472  1.00  0.00     0.129 HD
BRANCH  19  21
HETATM   21  C   UNL     1      40.954 -14.734   0.900  1.00  0.00     0.132 C 
BRANCH  21  22
HETATM   22  C   UNL     1      40.393 -14.027  -0.308  1.00  0.00    -0.045 A 
HETATM   23  C   UNL     1      39.463 -14.668  -1.141  1.00  0.00     0.008 A 
HETATM   24  C   UNL     1      38.938 -14.007  -2.252  1.00  0.00     0.001 A 
HETATM   25  C   UNL     1      39.321 -12.696  -2.533  1.00  0.00     0.000 A 
HETATM   26  C   UNL     1      40.224 -12.041  -1.701  1.00  0.00     0.001 A 
HETATM   27  C   UNL     1      40.754 -12.699  -0.591  1.00  0.00     0.008 A 
ENDBRANCH  21  22
ENDBRANCH  19  21
ENDBRANCH  12  19
ENDBRANCH   5   8
BRANCH   3  28
HETATM   28  S   UNL     1      42.489  -9.275   8.808  1.00  0.00     0.242 S 
HETATM   29  O   UNL     1      42.676  -9.643  10.195  1.00  0.00    -0.206 OA
HETATM   30  O   UNL     1      42.505  -7.898   8.380  1.00  0.00    -0.206 OA
BRANCH  28  31
HETATM   31  N   UNL     1      41.023  -9.949   8.275  1.00  0.00    -0.208 NA
HETATM   32  H   UNL     1      40.511 -10.359   9.058  1.00  0.00     0.140 HD
BRANCH  31  33
HETATM   33  C   UNL     1      40.187  -9.034   7.480  1.00  0.00     0.182 C 
BRANCH  33  34
HETATM   34  C   UNL     1      39.755  -9.726   6.234  1.00  0.00     0.119 A 
HETATM   35  N   UNL     1      39.179  -9.173   5.182  1.00  0.00    -0.232 NA
HETATM   36  C   UNL     1      39.033 -10.193   4.270  1.00  0.00     0.085 A 
HETATM   37  C   UNL     1      39.503 -11.395   4.788  1.00  0.00     0.062 A 
HETATM   38  C   UNL     1      38.511 -10.169   2.968  1.00  0.00     0.034 A 
HETATM   39  N   UNL     1      39.943 -11.074   6.045  1.00  0.00    -0.342 N 
HETATM   40  C   UNL     1      39.483 -12.598   4.079  1.00  0.00     0.032 A 
HETATM   41  H   UNL     1      40.346 -11.714   6.718  1.00  0.00     0.167 HD
HETATM   42  C   UNL     1      38.961 -12.553   2.781  1.00  0.00     0.002 A 
HETATM   43  C   UNL     1      38.484 -11.360   2.231  1.00  0.00     0.002 A 
ENDBRANCH  33  34
ENDBRANCH  31  33
ENDBRANCH  28  31
ENDBRANCH   3  28
TORSDOF 8
ENDMDL
MODEL 8
REMARK VINA RESULT:      -8.4      3.240      8.382
REMARK  8 active torsions:
REMARK  status: ('A' for Active; 'I' for Inactive)
REMARK    1  A    between atoms: C_3  and  S_4 
REMARK    2  A    between atoms: S_4  and  N_5 
REMARK    3  A    between atoms: N_5  and  C_6 
REMARK    4  A    between atoms: C_6  and  C_7 
REMARK    5  A    between atoms: C_20  and  C_21 
REMARK    6  A    between atoms: C_25  and  N_26 
REMARK    7  A    between atoms: N_26  and  C_27 
REMARK    8  A    between atoms: C_27  and  C_28 
ROOT
HETATM    1  C   UNL     1      42.865  -8.065  13.486  1.00  0.00     0.050 C 
HETATM    2  C   UNL     1      42.943  -8.731  12.141  1.00  0.00    -0.039 A 
HETATM    3  C   UNL     1      41.856  -9.345  11.499  1.00  0.00     0.081 A 
HETATM    4  C   UNL     1      42.034  -9.989  10.258  1.00  0.00     0.039 A 
HETATM    5  C   UNL     1      43.267  -9.974   9.585  1.00  0.00    -0.003 A 
HETATM    6  C   UNL     1      44.337  -9.327  10.221  1.00  0.00     0.014 A 
HETATM    7  C   UNL     1      44.185  -8.741  11.483  1.00  0.00     0.009 A 
ENDROOT
BRANCH   5   8
HETATM    8  C   UNL     1      43.385 -10.519   8.217  1.00  0.00     0.098 C 
HETATM    9  N   UNL     1      44.019 -11.709   8.186  1.00  0.00    -0.172 NA
HETATM   10  N   UNL     1      44.088 -12.376   7.051  1.00  0.00    -0.266 N 
HETATM   11  H   UNL     1      44.626 -13.238   7.051  1.00  0.00     0.190 HD
HETATM   12  C   UNL     1      43.490 -11.992   5.910  1.00  0.00     0.108 C 
HETATM   13  C   UNL     1      42.917 -10.689   5.870  1.00  0.00     0.016 A 
HETATM   14  C   UNL     1      42.866  -9.926   7.057  1.00  0.00     0.009 A 
HETATM   15  C   UNL     1      42.396 -10.116   4.683  1.00  0.00     0.016 A 
HETATM   16  C   UNL     1      42.315  -8.619   7.006  1.00  0.00     0.015 A 
HETATM   17  C   UNL     1      41.805  -8.085   5.825  1.00  0.00     0.001 A 
HETATM   18  C   UNL     1      41.843  -8.835   4.662  1.00  0.00     0.001 A 
BRANCH  12  19
HETATM   19  N   UNL     1      43.514 -12.800   4.766  1.00  0.00    -0.273 NA
HETATM   20  H   UNL     1      43.241 -12.263   3.941  1.00  0.00     0.129 HD
BRANCH  19  21
HETATM   21  C   UNL     1      42.902 -14.129   4.716  1.00  0.00     0.132 C 
BRANCH  21  22
HETATM   22  C   UNL     1      41.986 -14.274   3.527  1.00  0.00    -0.045 A 
HETATM   23  C   UNL     1      41.059 -15.325   3.465  1.00  0.00     0.008 A 
HETATM   24  C   UNL     1      40.206 -15.451   2.368  1.00  0.00     0.001 A 
HETATM   25  C   UNL     1      40.256 -14.520   1.332  1.00  0.00     0.000 A 
HETATM   26  C   UNL     1      41.154 -13.457   1.393  1.00  0.00     0.001 A 
HETATM   27  C   UNL     1      42.011 -13.331   2.486  1.00  0.00     0.008 A 
ENDBRANCH  21  22
ENDBRANCH  19  21
ENDBRANCH  12  19
ENDBRANCH   5   8
BRANCH   3  28
HETATM   28  S   UNL     1      40.186  -9.337  12.159  1.00  0.00     0.242 S 
HETATM   29  O   UNL     1      40.113 -10.372  13.167  1.00  0.00    -0.206 OA
HETATM   30  O   UNL     1      39.792  -7.978  12.436  1.00  0.00    -0.206 OA
BRANCH  28  31
HETATM   31  N   UNL     1      39.297  -9.851  10.806  1.00  0.00    -0.208 NA
HETATM   32  H   UNL     1      38.415 -10.279  11.097  1.00  0.00     0.140 HD
BRANCH  31  33
HETATM   33  C   UNL     1      39.100  -8.817   9.777  1.00  0.00     0.182 C 
BRANCH  33  34
HETATM   34  C   UNL     1      39.033  -9.465   8.439  1.00  0.00     0.119 A 
HETATM   35  N   UNL     1      38.632  -8.908   7.310  1.00  0.00    -0.232 NA
HETATM   36  C   UNL     1      38.812  -9.873   6.345  1.00  0.00     0.085 A 
HETATM   37  C   UNL     1      39.304 -11.048   6.902  1.00  0.00     0.062 A 
HETATM   38  C   UNL     1      38.582  -9.817   4.962  1.00  0.00     0.034 A 
HETATM   39  N   UNL     1      39.421 -10.768   8.238  1.00  0.00    -0.342 N 
HETATM   40  C   UNL     1      39.583 -12.194   6.155  1.00  0.00     0.032 A 
HETATM   41  H   UNL     1      39.746 -11.404   8.955  1.00  0.00     0.167 HD
HETATM   42  C   UNL     1      39.351 -12.118   4.777  1.00  0.00     0.002 A 
HETATM   43  C   UNL     1      38.860 -10.950   4.187  1.00  0.00     0.002 A 
ENDBRANCH  33  34
ENDBRANCH  31  33
ENDBRANCH  28  31
ENDBRANCH   3  28
TORSDOF 8
ENDMDL
MODEL 9
REMARK VINA RESULT:      -8.4      2.705      4.692
REMARK  8 active torsions:
REMARK  status: ('A' for Active; 'I' for Inactive)
REMARK    1  A    between atoms: C_3  and  S_4 
REMARK    2  A    between atoms: S_4  and  N_5 
REMARK    3  A    between atoms: N_5  and  C_6 
REMARK    4  A    between atoms: C_6  and  C_7 
REMARK    5  A    between atoms: C_20  and  C_21 
REMARK    6  A    between atoms: C_25  and  N_26 
REMARK    7  A    between atoms: N_26  and  C_27 
REMARK    8  A    between atoms: C_27  and  C_28 
ROOT
HETATM    1  C   UNL     1      39.906 -11.127   2.403  1.00  0.00     0.050 C 
HETATM    2  C   UNL     1      39.752 -10.869   3.876  1.00  0.00    -0.039 A 
HETATM    3  C   UNL     1      40.557 -11.451   4.868  1.00  0.00     0.081 A 
HETATM    4  C   UNL     1      40.309 -11.188   6.230  1.00  0.00     0.039 A 
HETATM    5  C   UNL     1      39.314 -10.286   6.641  1.00  0.00    -0.003 A 
HETATM    6  C   UNL     1      38.539  -9.686   5.639  1.00  0.00     0.014 A 
HETATM    7  C   UNL     1      38.737  -9.990   4.287  1.00  0.00     0.009 A 
ENDROOT
BRANCH   5   8
HETATM    8  C   UNL     1      39.180  -9.911   8.064  1.00  0.00     0.098 C 
HETATM    9  N   UNL     1      38.708 -10.920   8.824  1.00  0.00    -0.172 NA
HETATM   10  N   UNL     1      38.655 -10.774  10.133  1.00  0.00    -0.266 N 
HETATM   11  H   UNL     1      38.236 -11.530  10.669  1.00  0.00     0.190 HD
HETATM   12  C   UNL     1      39.119  -9.699  10.794  1.00  0.00     0.108 C 
HETATM   13  C   UNL     1      39.510  -8.568  10.024  1.00  0.00     0.016 A 
HETATM   14  C   UNL     1      39.538  -8.672   8.617  1.00  0.00     0.009 A 
HETATM   15  C   UNL     1      39.871  -7.328  10.610  1.00  0.00     0.016 A 
HETATM   16  C   UNL     1      39.905  -7.534   7.853  1.00  0.00     0.015 A 
HETATM   17  C   UNL     1      40.261  -6.330   8.458  1.00  0.00     0.001 A 
HETATM   18  C   UNL     1      40.247  -6.228   9.838  1.00  0.00     0.001 A 
BRANCH  12  19
HETATM   19  N   UNL     1      39.128  -9.652  12.194  1.00  0.00    -0.273 NA
HETATM   20  H   UNL     1      38.922  -8.706  12.523  1.00  0.00     0.129 HD
BRANCH  19  21
HETATM   21  C   UNL     1      40.198 -10.236  13.005  1.00  0.00     0.132 C 
BRANCH  21  22
HETATM   22  C   UNL     1      41.270  -9.224  13.321  1.00  0.00    -0.045 A 
HETATM   23  C   UNL     1      41.185  -8.432  14.475  1.00  0.00     0.008 A 
HETATM   24  C   UNL     1      42.185  -7.504  14.770  1.00  0.00     0.001 A 
HETATM   25  C   UNL     1      43.287  -7.370  13.928  1.00  0.00     0.000 A 
HETATM   26  C   UNL     1      43.396  -8.168  12.792  1.00  0.00     0.001 A 
HETATM   27  C   UNL     1      42.397  -9.093  12.492  1.00  0.00     0.008 A 
ENDBRANCH  21  22
ENDBRANCH  19  21
ENDBRANCH  12  19
ENDBRANCH   5   8
BRANCH   3  28
HETATM   28  S   UNL     1      41.954 -12.519   4.506  1.00  0.00     0.242 S 
HETATM   29  O   UNL     1      42.648 -11.955   3.368  1.00  0.00    -0.206 OA
HETATM   30  O   UNL     1      42.642 -12.835   5.733  1.00  0.00    -0.206 OA
BRANCH  28  31
HETATM   31  N   UNL     1      41.163 -13.933   3.996  1.00  0.00    -0.208 NA
HETATM   32  H   UNL     1      40.150 -13.792   3.980  1.00  0.00     0.140 HD
BRANCH  31  33
HETATM   33  C   UNL     1      41.667 -14.490   2.729  1.00  0.00     0.182 C 
BRANCH  33  34
HETATM   34  C   UNL     1      42.313 -15.804   2.997  1.00  0.00     0.119 A 
HETATM   35  N   UNL     1      42.928 -16.171   4.107  1.00  0.00    -0.232 NA
HETATM   36  C   UNL     1      43.294 -17.482   3.903  1.00  0.00     0.085 A 
HETATM   37  C   UNL     1      42.920 -17.911   2.634  1.00  0.00     0.062 A 
HETATM   38  C   UNL     1      43.947 -18.378   4.761  1.00  0.00     0.034 A 
HETATM   39  N   UNL     1      42.311 -16.820   2.072  1.00  0.00    -0.342 N 
HETATM   40  C   UNL     1      43.164 -19.200   2.156  1.00  0.00     0.032 A 
HETATM   41  H   UNL     1      41.919 -16.769   1.141  1.00  0.00     0.167 HD
HETATM   42  C   UNL     1      43.814 -20.081   3.029  1.00  0.00     0.002 A 
HETATM   43  C   UNL     1      44.199 -19.680   4.311  1.00  0.00     0.002 A 
ENDBRANCH  33  34
ENDBRANCH  31  33
ENDBRANCH  28  31
ENDBRANCH   3  28
TORSDOF 8
ENDMDL
MODEL 10
REMARK VINA RESULT:      -8.3      6.851     10.565
REMARK  8 active torsions:
REMARK  status: ('A' for Active; 'I' for Inactive)
REMARK    1  A    between atoms: C_3  and  S_4 
REMARK    2  A    between atoms: S_4  and  N_5 
REMARK    3  A    between atoms: N_5  and  C_6 
REMARK    4  A    between atoms: C_6  and  C_7 
REMARK    5  A    between atoms: C_20  and  C_21 
REMARK    6  A    between atoms: C_25  and  N_26 
REMARK    7  A    between atoms: N_26  and  C_27 
REMARK    8  A    between atoms: C_27  and  C_28 
ROOT
HETATM    1  C   UNL     1      38.096  -7.994  -0.169  1.00  0.00     0.050 C 
HETATM    2  C   UNL     1      38.656  -9.326   0.244  1.00  0.00    -0.039 A 
HETATM    3  C   UNL     1      40.001  -9.701   0.090  1.00  0.00     0.081 A 
HETATM    4  C   UNL     1      40.427 -10.992   0.462  1.00  0.00     0.039 A 
HETATM    5  C   UNL     1      39.556 -11.914   1.065  1.00  0.00    -0.003 A 
HETATM    6  C   UNL     1      38.223 -11.516   1.244  1.00  0.00     0.014 A 
HETATM    7  C   UNL     1      37.777 -10.259   0.820  1.00  0.00     0.009 A 
ENDROOT
BRANCH   5   8
HETATM    8  C   UNL     1      40.065 -13.200   1.587  1.00  0.00     0.098 C 
HETATM    9  N   UNL     1      39.662 -14.254   0.850  1.00  0.00    -0.172 NA
HETATM   10  N   UNL     1      40.140 -15.453   1.120  1.00  0.00    -0.266 N 
HETATM   11  H   UNL     1      39.768 -16.233   0.585  1.00  0.00     0.190 HD
HETATM   12  C   UNL     1      41.083 -15.701   2.046  1.00  0.00     0.108 C 
HETATM   13  C   UNL     1      41.443 -14.639   2.923  1.00  0.00     0.016 A 
HETATM   14  C   UNL     1      40.916 -13.350   2.692  1.00  0.00     0.009 A 
HETATM   15  C   UNL     1      42.309 -14.819   4.031  1.00  0.00     0.016 A 
HETATM   16  C   UNL     1      41.259 -12.300   3.583  1.00  0.00     0.015 A 
HETATM   17  C   UNL     1      42.119 -12.507   4.661  1.00  0.00     0.001 A 
HETATM   18  C   UNL     1      42.647 -13.767   4.883  1.00  0.00     0.001 A 
BRANCH  12  19
HETATM   19  N   UNL     1      41.624 -16.982   2.210  1.00  0.00    -0.273 NA
HETATM   20  H   UNL     1      41.223 -17.439   3.032  1.00  0.00     0.129 HD
BRANCH  19  21
HETATM   21  C   UNL     1      43.061 -17.255   2.144  1.00  0.00     0.132 C 
BRANCH  21  22
HETATM   22  C   UNL     1      43.440 -18.441   2.995  1.00  0.00    -0.045 A 
HETATM   23  C   UNL     1      43.521 -19.725   2.434  1.00  0.00     0.008 A 
HETATM   24  C   UNL     1      43.882 -20.818   3.222  1.00  0.00     0.001 A 
HETATM   25  C   UNL     1      44.183 -20.641   4.571  1.00  0.00     0.000 A 
HETATM   26  C   UNL     1      44.131 -19.369   5.134  1.00  0.00     0.001 A 
HETATM   27  C   UNL     1      43.766 -18.274   4.351  1.00  0.00     0.008 A 
ENDBRANCH  21  22
ENDBRANCH  19  21
ENDBRANCH  12  19
ENDBRANCH   5   8
BRANCH   3  28
HETATM   28  S   UNL     1      41.268  -8.595  -0.539  1.00  0.00     0.242 S 
HETATM   29  O   UNL     1      41.210  -7.379   0.244  1.00  0.00    -0.206 OA
HETATM   30  O   UNL     1      42.497  -9.330  -0.711  1.00  0.00    -0.206 OA
BRANCH  28  31
HETATM   31  N   UNL     1      40.666  -8.256  -2.091  1.00  0.00    -0.208 NA
HETATM   32  H   UNL     1      40.770  -7.262  -2.306  1.00  0.00     0.140 HD
BRANCH  31  33
HETATM   33  C   UNL     1      41.207  -9.117  -3.155  1.00  0.00     0.182 C 
BRANCH  33  34
HETATM   34  C   UNL     1      40.562 -10.456  -3.075  1.00  0.00     0.119 A 
HETATM   35  N   UNL     1      41.173 -11.626  -3.027  1.00  0.00    -0.232 NA
HETATM   36  C   UNL     1      40.167 -12.556  -2.892  1.00  0.00     0.085 A 
HETATM   37  C   UNL     1      38.919 -11.942  -2.885  1.00  0.00     0.062 A 
HETATM   38  C   UNL     1      40.242 -13.951  -2.761  1.00  0.00     0.034 A 
HETATM   39  N   UNL     1      39.197 -10.607  -3.019  1.00  0.00    -0.342 N 
HETATM   40  C   UNL     1      37.719 -12.643  -2.758  1.00  0.00     0.032 A 
HETATM   41  H   UNL     1      38.518  -9.858  -3.060  1.00  0.00     0.167 HD
HETATM   42  C   UNL     1      37.814 -14.033  -2.625  1.00  0.00     0.002 A 
HETATM   43  C   UNL     1      39.054 -14.679  -2.624  1.00  0.00     0.002 A 
ENDBRANCH  33  34
ENDBRANCH  31  33
ENDBRANCH  28  31
ENDBRANCH   3  28
TORSDOF 8
ENDMDL
