MODEL 1
REMARK VINA RESULT:      -9.7      0.000      0.000
REMARK  7 active torsions:
REMARK  status: ('A' for Active; 'I' for Inactive)
REMARK    1  A    between atoms: C_5  and  C_6 
REMARK    2  A    between atoms: C_6  and  N_7 
REMARK       I    between atoms: N_7  and  C_8 
REMARK    3  A    between atoms: C_8  and  C_9 
REMARK    4  A    between atoms: C_14  and  C_15 
REMARK    5  A    between atoms: C_15  and  S_16 
REMARK    6  A    between atoms: S_16  and  C_17 
REMARK    7  A    between atoms: C_17  and  C_18 
ROOT
HETATM    1  C   UNL     1      42.234 -13.299   4.250  1.00  0.00     0.034 A 
HETATM    2  C   UNL     1      43.188 -13.286   5.274  1.00  0.00     0.048 A 
HETATM    3  C   UNL     1      43.270 -12.177   6.123  1.00  0.00     0.057 A 
HETATM    4  C   UNL     1      42.412 -11.075   5.964  1.00  0.00     0.036 A 
HETATM    5  N   UNL     1      42.519  -9.918   6.757  1.00  0.00    -0.277 NA
HETATM    6  C   UNL     1      43.165 -10.135   8.074  1.00  0.00     0.162 C 
HETATM    7  C   UNL     1      44.361 -11.107   8.016  1.00  0.00     0.240 C 
HETATM    8  O   UNL     1      45.311 -11.059   8.794  1.00  0.00    -0.271 OA
HETATM    9  N   UNL     1      44.260 -12.138   7.113  1.00  0.00    -0.324 N 
HETATM   10  C   UNL     1      41.512 -11.071   4.899  1.00  0.00     0.027 A 
HETATM   11  C   UNL     1      41.414 -12.178   4.055  1.00  0.00     0.019 A 
HETATM   12  H   UNL     1      42.992  -9.184   6.226  1.00  0.00     0.128 HD
HETATM   13  H   UNL     1      44.986 -12.840   7.149  1.00  0.00     0.169 HD
ENDROOT
BRANCH   1  14
HETATM   14  C   UNL     1      42.052 -14.451   3.323  1.00  0.00     0.252 C 
HETATM   15  N   UNL     1      43.188 -15.007   2.775  1.00  0.00    -0.353 N 
HETATM   16  H   UNL     1      44.104 -14.714   3.078  1.00  0.00     0.163 HD
HETATM   17  O   UNL     1      40.924 -14.883   3.112  1.00  0.00    -0.268 OA
BRANCH  15  18
HETATM   18  C   UNL     1      43.117 -16.231   2.001  1.00  0.00     0.161 C 
BRANCH  18  19
HETATM   19  C   UNL     1      43.373 -17.455   2.840  1.00  0.00    -0.041 A 
HETATM   20  C   UNL     1      43.313 -18.733   2.269  1.00  0.00     0.009 A 
HETATM   21  C   UNL     1      43.639 -19.866   3.019  1.00  0.00     0.007 A 
HETATM   22  C   UNL     1      44.032 -19.742   4.355  1.00  0.00    -0.062 A 
HETATM   23  C   UNL     1      44.427 -20.946   5.159  1.00  0.00     0.048 C 
HETATM   24  C   UNL     1      44.094 -18.468   4.930  1.00  0.00     0.007 A 
HETATM   25  C   UNL     1      43.773 -17.336   4.178  1.00  0.00     0.009 A 
ENDBRANCH  18  19
ENDBRANCH  15  18
ENDBRANCH   1  14
BRANCH   6  26
HETATM   26  C   UNL     1      43.605  -8.804   8.711  1.00  0.00     0.103 C 
BRANCH  26  27
HETATM   27  S   UNL     1      42.433  -8.076   9.926  1.00  0.00    -0.162 SA
BRANCH  27  28
HETATM   28  C   UNL     1      42.503  -9.353  11.221  1.00  0.00     0.114 C 
BRANCH  28  29
HETATM   29  C   UNL     1      42.358  -8.760  12.602  1.00  0.00    -0.027 A 
HETATM   30  C   UNL     1      41.357  -9.155  13.504  1.00  0.00     0.041 A 
HETATM   31 CL   UNL     1      40.188 -10.363  13.104  1.00  0.00    -0.084 Cl
HETATM   32  C   UNL     1      41.271  -8.567  14.770  1.00  0.00     0.024 A 
HETATM   33  C   UNL     1      42.181  -7.585  15.156  1.00  0.00     0.002 A 
HETATM   34  C   UNL     1      43.186  -7.190  14.278  1.00  0.00     0.001 A 
HETATM   35  C   UNL     1      43.277  -7.776  13.014  1.00  0.00     0.009 A 
ENDBRANCH  28  29
ENDBRANCH  27  28
ENDBRANCH  26  27
ENDBRANCH   6  26
TORSDOF 7
ENDMDL
MODEL 2
REMARK VINA RESULT:      -9.6      6.458     10.461
REMARK  7 active torsions:
REMARK  status: ('A' for Active; 'I' for Inactive)
REMARK    1  A    between atoms: C_5  and  C_6 
REMARK    2  A    between atoms: C_6  and  N_7 
REMARK       I    between atoms: N_7  and  C_8 
REMARK    3  A    between atoms: C_8  and  C_9 
REMARK    4  A    between atoms: C_14  and  C_15 
REMARK    5  A    between atoms: C_15  and  S_16 
REMARK    6  A    between atoms: S_16  and  C_17 
REMARK    7  A    between atoms: C_17  and  C_18 
ROOT
HETATM    1  C   UNL     1      39.680 -13.374   0.528  1.00  0.00     0.034 A 
HETATM    2  C   UNL     1      39.611 -12.937   1.856  1.00  0.00     0.048 A 
HETATM    3  C   UNL     1      40.000 -13.802   2.885  1.00  0.00     0.057 A 
HETATM    4  C   UNL     1      40.459 -15.102   2.608  1.00  0.00     0.036 A 
HETATM    5  N   UNL     1      40.789 -16.015   3.625  1.00  0.00    -0.277 NA
HETATM    6  C   UNL     1      41.160 -15.386   4.916  1.00  0.00     0.162 C 
HETATM    7  C   UNL     1      40.295 -14.161   5.273  1.00  0.00     0.240 C 
HETATM    8  O   UNL     1      40.066 -13.806   6.427  1.00  0.00    -0.271 OA
HETATM    9  N   UNL     1      39.878 -13.386   4.217  1.00  0.00    -0.324 N 
HETATM   10  C   UNL     1      40.460 -15.547   1.287  1.00  0.00     0.027 A 
HETATM   11  C   UNL     1      40.085 -14.688   0.253  1.00  0.00     0.019 A 
HETATM   12  H   UNL     1      40.026 -16.684   3.743  1.00  0.00     0.128 HD
HETATM   13  H   UNL     1      39.408 -12.523   4.451  1.00  0.00     0.169 HD
ENDROOT
BRANCH   1  14
HETATM   14  C   UNL     1      39.320 -12.511  -0.632  1.00  0.00     0.252 C 
HETATM   15  N   UNL     1      40.335 -12.152  -1.492  1.00  0.00    -0.353 N 
HETATM   16  H   UNL     1      41.257 -12.550  -1.398  1.00  0.00     0.163 HD
HETATM   17  O   UNL     1      38.150 -12.187  -0.802  1.00  0.00    -0.268 OA
BRANCH  15  18
HETATM   18  C   UNL     1      40.048 -11.459  -2.733  1.00  0.00     0.161 C 
BRANCH  18  19
HETATM   19  C   UNL     1      40.752 -10.131  -2.824  1.00  0.00    -0.041 A 
HETATM   20  C   UNL     1      41.510  -9.653  -1.747  1.00  0.00     0.009 A 
HETATM   21  C   UNL     1      42.240  -8.467  -1.859  1.00  0.00     0.007 A 
HETATM   22  C   UNL     1      42.227  -7.736  -3.051  1.00  0.00    -0.062 A 
HETATM   23  C   UNL     1      43.040  -6.484  -3.199  1.00  0.00     0.048 C 
HETATM   24  C   UNL     1      41.471  -8.209  -4.130  1.00  0.00     0.007 A 
HETATM   25  C   UNL     1      40.747  -9.398  -4.019  1.00  0.00     0.009 A 
ENDBRANCH  18  19
ENDBRANCH  15  18
ENDBRANCH   1  14
BRANCH   6  26
HETATM   26  C   UNL     1      41.122 -16.406   6.069  1.00  0.00     0.103 C 
BRANCH  26  27
HETATM   27  S   UNL     1      42.754 -16.865   6.783  1.00  0.00    -0.162 SA
BRANCH  27  28
HETATM   28  C   UNL     1      43.750 -16.915   5.260  1.00  0.00     0.114 C 
BRANCH  28  29
HETATM   29  C   UNL     1      43.788 -18.300   4.660  1.00  0.00    -0.027 A 
HETATM   30  C   UNL     1      43.718 -18.538   3.279  1.00  0.00     0.041 A 
HETATM   31 CL   UNL     1      43.574 -17.252   2.133  1.00  0.00    -0.084 Cl
HETATM   32  C   UNL     1      43.756 -19.845   2.780  1.00  0.00     0.024 A 
HETATM   33  C   UNL     1      43.870 -20.928   3.651  1.00  0.00     0.002 A 
HETATM   34  C   UNL     1      43.952 -20.708   5.022  1.00  0.00     0.001 A 
HETATM   35  C   UNL     1      43.916 -19.405   5.522  1.00  0.00     0.009 A 
ENDBRANCH  28  29
ENDBRANCH  27  28
ENDBRANCH  26  27
ENDBRANCH   6  26
TORSDOF 7
ENDMDL
MODEL 3
REMARK VINA RESULT:      -9.4      3.328     11.054
REMARK  7 active torsions:
REMARK  status: ('A' for Active; 'I' for Inactive)
REMARK    1  A    between atoms: C_5  and  C_6 
REMARK    2  A    between atoms: C_6  and  N_7 
REMARK       I    between atoms: N_7  and  C_8 
REMARK    3  A    between atoms: C_8  and  C_9 
REMARK    4  A    between atoms: C_14  and  C_15 
REMARK    5  A    between atoms: C_15  and  S_16 
REMARK    6  A    between atoms: S_16  and  C_17 
REMARK    7  A    between atoms: C_17  and  C_18 
ROOT
HETATM    1  C   UNL     1      44.214 -11.554   7.058  1.00  0.00     0.034 A 
HETATM    2  C   UNL     1      43.397 -12.629   7.427  1.00  0.00     0.048 A 
HETATM    3  C   UNL     1      42.785 -13.400   6.433  1.00  0.00     0.057 A 
HETATM    4  C   UNL     1      42.974 -13.112   5.070  1.00  0.00     0.036 A 
HETATM    5  N   UNL     1      42.315 -13.826   4.052  1.00  0.00    -0.277 NA
HETATM    6  C   UNL     1      41.883 -15.190   4.441  1.00  0.00     0.162 C 
HETATM    7  C   UNL     1      41.334 -15.273   5.879  1.00  0.00     0.240 C 
HETATM    8  O   UNL     1      40.498 -16.100   6.239  1.00  0.00    -0.271 OA
HETATM    9  N   UNL     1      41.922 -14.441   6.801  1.00  0.00    -0.324 N 
HETATM   10  C   UNL     1      43.735 -11.999   4.717  1.00  0.00     0.027 A 
HETATM   11  C   UNL     1      44.360 -11.232   5.701  1.00  0.00     0.019 A 
HETATM   12  H   UNL     1      41.529 -13.273   3.702  1.00  0.00     0.128 HD
HETATM   13  H   UNL     1      41.646 -14.570   7.764  1.00  0.00     0.169 HD
ENDROOT
BRANCH   1  14
HETATM   14  C   UNL     1      44.933 -10.702   8.046  1.00  0.00     0.252 C 
HETATM   15  N   UNL     1      44.179 -10.103   9.032  1.00  0.00    -0.353 N 
HETATM   16  H   UNL     1      43.201 -10.325   9.140  1.00  0.00     0.163 HD
HETATM   17  O   UNL     1      46.153 -10.596   7.975  1.00  0.00    -0.268 OA
BRANCH  15  18
HETATM   18  C   UNL     1      44.814  -9.400  10.129  1.00  0.00     0.161 C 
BRANCH  18  19
HETATM   19  C   UNL     1      43.866  -8.468  10.837  1.00  0.00    -0.041 A 
HETATM   20  C   UNL     1      43.640  -8.596  12.214  1.00  0.00     0.009 A 
HETATM   21  C   UNL     1      42.835  -7.678  12.894  1.00  0.00     0.007 A 
HETATM   22  C   UNL     1      42.240  -6.614  12.208  1.00  0.00    -0.062 A 
HETATM   23  C   UNL     1      41.408  -5.597  12.933  1.00  0.00     0.048 C 
HETATM   24  C   UNL     1      42.462  -6.482  10.833  1.00  0.00     0.007 A 
HETATM   25  C   UNL     1      43.272  -7.397  10.156  1.00  0.00     0.009 A 
ENDBRANCH  18  19
ENDBRANCH  15  18
ENDBRANCH   1  14
BRANCH   6  26
HETATM   26  C   UNL     1      40.847 -15.755   3.452  1.00  0.00     0.103 C 
BRANCH  26  27
HETATM   27  S   UNL     1      41.534 -16.548   1.942  1.00  0.00    -0.162 SA
BRANCH  27  28
HETATM   28  C   UNL     1      43.260 -16.777   2.475  1.00  0.00     0.114 C 
BRANCH  28  29
HETATM   29  C   UNL     1      43.517 -18.185   2.952  1.00  0.00    -0.027 A 
HETATM   30  C   UNL     1      44.052 -18.480   4.216  1.00  0.00     0.041 A 
HETATM   31 CL   UNL     1      44.474 -17.241   5.345  1.00  0.00    -0.084 Cl
HETATM   32  C   UNL     1      44.271 -19.807   4.603  1.00  0.00     0.024 A 
HETATM   33  C   UNL     1      43.955 -20.855   3.739  1.00  0.00     0.002 A 
HETATM   34  C   UNL     1      43.412 -20.580   2.488  1.00  0.00     0.001 A 
HETATM   35  C   UNL     1      43.191 -19.257   2.099  1.00  0.00     0.009 A 
ENDBRANCH  28  29
ENDBRANCH  27  28
ENDBRANCH  26  27
ENDBRANCH   6  26
TORSDOF 7
ENDMDL
MODEL 4
REMARK VINA RESULT:      -9.4      2.368      3.238
REMARK  7 active torsions:
REMARK  status: ('A' for Active; 'I' for Inactive)
REMARK    1  A    between atoms: C_5  and  C_6 
REMARK    2  A    between atoms: C_6  and  N_7 
REMARK       I    between atoms: N_7  and  C_8 
REMARK    3  A    between atoms: C_8  and  C_9 
REMARK    4  A    between atoms: C_14  and  C_15 
REMARK    5  A    between atoms: C_15  and  S_16 
REMARK    6  A    between atoms: S_16  and  C_17 
REMARK    7  A    between atoms: C_17  and  C_18 
ROOT
HETATM    1  C   UNL     1      42.391 -12.822   4.278  1.00  0.00     0.034 A 
HETATM    2  C   UNL     1      41.149 -12.680   4.907  1.00  0.00     0.048 A 
HETATM    3  C   UNL     1      41.005 -11.751   5.943  1.00  0.00     0.057 A 
HETATM    4  C   UNL     1      42.087 -10.957   6.363  1.00  0.00     0.036 A 
HETATM    5  N   UNL     1      41.990 -10.066   7.447  1.00  0.00    -0.277 NA
HETATM    6  C   UNL     1      40.611  -9.607   7.741  1.00  0.00     0.162 C 
HETATM    7  C   UNL     1      39.552 -10.717   7.597  1.00  0.00     0.240 C 
HETATM    8  O   UNL     1      38.499 -10.736   8.233  1.00  0.00    -0.271 OA
HETATM    9  N   UNL     1      39.779 -11.648   6.611  1.00  0.00    -0.324 N 
HETATM   10  C   UNL     1      43.335 -11.155   5.774  1.00  0.00     0.027 A 
HETATM   11  C   UNL     1      43.485 -12.071   4.731  1.00  0.00     0.019 A 
HETATM   12  H   UNL     1      42.427 -10.484   8.271  1.00  0.00     0.128 HD
HETATM   13  H   UNL     1      39.035 -12.309   6.438  1.00  0.00     0.169 HD
ENDROOT
BRANCH   1  14
HETATM   14  C   UNL     1      42.626 -13.760   3.144  1.00  0.00     0.252 C 
HETATM   15  N   UNL     1      43.078 -15.024   3.453  1.00  0.00    -0.353 N 
HETATM   16  H   UNL     1      43.139 -15.331   4.412  1.00  0.00     0.163 HD
HETATM   17  O   UNL     1      42.377 -13.397   2.000  1.00  0.00    -0.268 OA
BRANCH  15  18
HETATM   18  C   UNL     1      43.171 -16.051   2.434  1.00  0.00     0.161 C 
BRANCH  18  19
HETATM   19  C   UNL     1      43.495 -17.404   3.011  1.00  0.00    -0.041 A 
HETATM   20  C   UNL     1      43.883 -17.530   4.351  1.00  0.00     0.009 A 
HETATM   21  C   UNL     1      44.095 -18.790   4.917  1.00  0.00     0.007 A 
HETATM   22  C   UNL     1      43.923 -19.948   4.152  1.00  0.00    -0.062 A 
HETATM   23  C   UNL     1      44.105 -21.309   4.759  1.00  0.00     0.048 C 
HETATM   24  C   UNL     1      43.535 -19.827   2.813  1.00  0.00     0.007 A 
HETATM   25  C   UNL     1      43.318 -18.568   2.250  1.00  0.00     0.009 A 
ENDBRANCH  18  19
ENDBRANCH  15  18
ENDBRANCH   1  14
BRANCH   6  26
HETATM   26  C   UNL     1      40.517  -8.972   9.141  1.00  0.00     0.103 C 
BRANCH  26  27
HETATM   27  S   UNL     1      40.935  -7.184   9.236  1.00  0.00    -0.162 SA
BRANCH  27  28
HETATM   28  C   UNL     1      42.197  -7.235  10.547  1.00  0.00     0.114 C 
BRANCH  28  29
HETATM   29  C   UNL     1      43.387  -8.073  10.149  1.00  0.00    -0.027 A 
HETATM   30  C   UNL     1      43.820  -9.187  10.885  1.00  0.00     0.041 A 
HETATM   31 CL   UNL     1      43.023  -9.696  12.332  1.00  0.00    -0.084 Cl
HETATM   32  C   UNL     1      44.933  -9.926  10.468  1.00  0.00     0.024 A 
HETATM   33  C   UNL     1      45.623  -9.568   9.311  1.00  0.00     0.002 A 
HETATM   34  C   UNL     1      45.199  -8.473   8.563  1.00  0.00     0.001 A 
HETATM   35  C   UNL     1      44.088  -7.735   8.976  1.00  0.00     0.009 A 
ENDBRANCH  28  29
ENDBRANCH  27  28
ENDBRANCH  26  27
ENDBRANCH   6  26
TORSDOF 7
ENDMDL
MODEL 5
REMARK VINA RESULT:      -8.8      2.203      2.628
REMARK  7 active torsions:
REMARK  status: ('A' for Active; 'I' for Inactive)
REMARK    1  A    between atoms: C_5  and  C_6 
REMARK    2  A    between atoms: C_6  and  N_7 
REMARK       I    between atoms: N_7  and  C_8 
REMARK    3  A    between atoms: C_8  and  C_9 
REMARK    4  A    between atoms: C_14  and  C_15 
REMARK    5  A    between atoms: C_15  and  S_16 
REMARK    6  A    between atoms: S_16  and  C_17 
REMARK    7  A    between atoms: C_17  and  C_18 
ROOT
HETATM    1  C   UNL     1      41.868 -13.493   4.389  1.00  0.00     0.034 A 
HETATM    2  C   UNL     1      40.710 -13.035   5.028  1.00  0.00     0.048 A 
HETATM    3  C   UNL     1      40.803 -11.988   5.951  1.00  0.00     0.057 A 
HETATM    4  C   UNL     1      42.040 -11.389   6.249  1.00  0.00     0.036 A 
HETATM    5  N   UNL     1      42.174 -10.384   7.224  1.00  0.00    -0.277 NA
HETATM    6  C   UNL     1      40.929  -9.624   7.496  1.00  0.00     0.162 C 
HETATM    7  C   UNL     1      39.665 -10.506   7.509  1.00  0.00     0.240 C 
HETATM    8  O   UNL     1      38.661 -10.241   8.169  1.00  0.00    -0.271 OA
HETATM    9  N   UNL     1      39.655 -11.565   6.633  1.00  0.00    -0.324 N 
HETATM   10  C   UNL     1      43.194 -11.899   5.656  1.00  0.00     0.027 A 
HETATM   11  C   UNL     1      43.110 -12.935   4.725  1.00  0.00     0.019 A 
HETATM   12  H   UNL     1      42.558 -10.788   8.080  1.00  0.00     0.128 HD
HETATM   13  H   UNL     1      38.787 -12.077   6.557  1.00  0.00     0.169 HD
ENDROOT
BRANCH   1  14
HETATM   14  C   UNL     1      41.857 -14.578   3.368  1.00  0.00     0.252 C 
HETATM   15  N   UNL     1      43.075 -15.092   2.979  1.00  0.00    -0.353 N 
HETATM   16  H   UNL     1      43.925 -14.820   3.450  1.00  0.00     0.163 HD
HETATM   17  O   UNL     1      40.785 -14.996   2.944  1.00  0.00    -0.268 OA
BRANCH  15  18
HETATM   18  C   UNL     1      43.150 -16.259   2.122  1.00  0.00     0.161 C 
BRANCH  18  19
HETATM   19  C   UNL     1      43.391 -17.527   2.900  1.00  0.00    -0.041 A 
HETATM   20  C   UNL     1      43.361 -18.771   2.256  1.00  0.00     0.009 A 
HETATM   21  C   UNL     1      43.674 -19.942   2.952  1.00  0.00     0.007 A 
HETATM   22  C   UNL     1      44.024 -19.890   4.305  1.00  0.00    -0.062 A 
HETATM   23  C   UNL     1      44.405 -21.134   5.053  1.00  0.00     0.048 C 
HETATM   24  C   UNL     1      44.056 -18.649   4.952  1.00  0.00     0.007 A 
HETATM   25  C   UNL     1      43.748 -17.479   4.254  1.00  0.00     0.009 A 
ENDBRANCH  18  19
ENDBRANCH  15  18
ENDBRANCH   1  14
BRANCH   6  26
HETATM   26  C   UNL     1      41.030  -8.834   8.814  1.00  0.00     0.103 C 
BRANCH  26  27
HETATM   27  S   UNL     1      41.100  -7.005   8.644  1.00  0.00    -0.162 SA
BRANCH  27  28
HETATM   28  C   UNL     1      42.754  -6.697   9.338  1.00  0.00     0.114 C 
BRANCH  28  29
HETATM   29  C   UNL     1      42.774  -6.871  10.837  1.00  0.00    -0.027 A 
HETATM   30  C   UNL     1      42.293  -5.899  11.728  1.00  0.00     0.041 A 
HETATM   31 CL   UNL     1      41.634  -4.398  11.179  1.00  0.00    -0.084 Cl
HETATM   32  C   UNL     1      42.339  -6.116  13.110  1.00  0.00     0.024 A 
HETATM   33  C   UNL     1      42.860  -7.304  13.620  1.00  0.00     0.002 A 
HETATM   34  C   UNL     1      43.331  -8.283  12.750  1.00  0.00     0.001 A 
HETATM   35  C   UNL     1      43.284  -8.070  11.371  1.00  0.00     0.009 A 
ENDBRANCH  28  29
ENDBRANCH  27  28
ENDBRANCH  26  27
ENDBRANCH   6  26
TORSDOF 7
ENDMDL
MODEL 6
REMARK VINA RESULT:      -8.8      2.525      3.148
REMARK  7 active torsions:
REMARK  status: ('A' for Active; 'I' for Inactive)
REMARK    1  A    between atoms: C_5  and  C_6 
REMARK    2  A    between atoms: C_6  and  N_7 
REMARK       I    between atoms: N_7  and  C_8 
REMARK    3  A    between atoms: C_8  and  C_9 
REMARK    4  A    between atoms: C_14  and  C_15 
REMARK    5  A    between atoms: C_15  and  S_16 
REMARK    6  A    between atoms: S_16  and  C_17 
REMARK    7  A    between atoms: C_17  and  C_18 
ROOT
HETATM    1  C   UNL     1      41.176 -13.649   3.881  1.00  0.00     0.034 A 
HETATM    2  C   UNL     1      41.460 -12.316   3.558  1.00  0.00     0.048 A 
HETATM    3  C   UNL     1      41.256 -11.319   4.518  1.00  0.00     0.057 A 
HETATM    4  C   UNL     1      40.770 -11.631   5.800  1.00  0.00     0.036 A 
HETATM    5  N   UNL     1      40.489 -10.642   6.760  1.00  0.00    -0.277 NA
HETATM    6  C   UNL     1      41.233  -9.374   6.568  1.00  0.00     0.162 C 
HETATM    7  C   UNL     1      41.362  -8.957   5.089  1.00  0.00     0.240 C 
HETATM    8  O   UNL     1      41.464  -7.788   4.722  1.00  0.00    -0.271 OA
HETATM    9  N   UNL     1      41.486  -9.979   4.180  1.00  0.00    -0.324 N 
HETATM   10  C   UNL     1      40.428 -12.952   6.086  1.00  0.00     0.027 A 
HETATM   11  C   UNL     1      40.639 -13.956   5.140  1.00  0.00     0.019 A 
HETATM   12  H   UNL     1      39.481 -10.480   6.797  1.00  0.00     0.128 HD
HETATM   13  H   UNL     1      41.684  -9.711   3.226  1.00  0.00     0.169 HD
ENDROOT
BRANCH   1  14
HETATM   14  C   UNL     1      41.395 -14.778   2.935  1.00  0.00     0.252 C 
HETATM   15  N   UNL     1      42.699 -15.129   2.661  1.00  0.00    -0.353 N 
HETATM   16  H   UNL     1      43.464 -14.710   3.166  1.00  0.00     0.163 HD
HETATM   17  O   UNL     1      40.428 -15.373   2.471  1.00  0.00    -0.268 OA
BRANCH  15  18
HETATM   18  C   UNL     1      43.003 -16.319   1.889  1.00  0.00     0.161 C 
BRANCH  18  19
HETATM   19  C   UNL     1      43.298 -17.509   2.763  1.00  0.00    -0.041 A 
HETATM   20  C   UNL     1      43.295 -18.803   2.226  1.00  0.00     0.009 A 
HETATM   21  C   UNL     1      43.659 -19.902   3.009  1.00  0.00     0.007 A 
HETATM   22  C   UNL     1      44.033 -19.727   4.346  1.00  0.00    -0.062 A 
HETATM   23  C   UNL     1      44.467 -20.892   5.185  1.00  0.00     0.048 C 
HETATM   24  C   UNL     1      44.037 -18.436   4.886  1.00  0.00     0.007 A 
HETATM   25  C   UNL     1      43.680 -17.338   4.102  1.00  0.00     0.009 A 
ENDBRANCH  18  19
ENDBRANCH  15  18
ENDBRANCH   1  14
BRANCH   6  26
HETATM   26  C   UNL     1      40.607  -8.226   7.382  1.00  0.00     0.103 C 
BRANCH  26  27
HETATM   27  S   UNL     1      41.766  -6.904   7.918  1.00  0.00    -0.162 SA
BRANCH  27  28
HETATM   28  C   UNL     1      42.110  -7.467   9.615  1.00  0.00     0.114 C 
BRANCH  28  29
HETATM   29  C   UNL     1      43.337  -8.343   9.677  1.00  0.00    -0.027 A 
HETATM   30  C   UNL     1      43.481  -9.395  10.596  1.00  0.00     0.041 A 
HETATM   31 CL   UNL     1      42.254  -9.777  11.752  1.00  0.00    -0.084 Cl
HETATM   32  C   UNL     1      44.643 -10.173  10.608  1.00  0.00     0.024 A 
HETATM   33  C   UNL     1      45.673  -9.917   9.704  1.00  0.00     0.002 A 
HETATM   34  C   UNL     1      45.541  -8.886   8.780  1.00  0.00     0.001 A 
HETATM   35  C   UNL     1      44.381  -8.108   8.763  1.00  0.00     0.009 A 
ENDBRANCH  28  29
ENDBRANCH  27  28
ENDBRANCH  26  27
ENDBRANCH   6  26
TORSDOF 7
ENDMDL
MODEL 7
REMARK VINA RESULT:      -8.7      2.018      2.298
REMARK  7 active torsions:
REMARK  status: ('A' for Active; 'I' for Inactive)
REMARK    1  A    between atoms: C_5  and  C_6 
REMARK    2  A    between atoms: C_6  and  N_7 
REMARK       I    between atoms: N_7  and  C_8 
REMARK    3  A    between atoms: C_8  and  C_9 
REMARK    4  A    between atoms: C_14  and  C_15 
REMARK    5  A    between atoms: C_15  and  S_16 
REMARK    6  A    between atoms: S_16  and  C_17 
REMARK    7  A    between atoms: C_17  and  C_18 
ROOT
HETATM    1  C   UNL     1      42.202 -13.245   4.578  1.00  0.00     0.034 A 
HETATM    2  C   UNL     1      43.295 -13.176   5.450  1.00  0.00     0.048 A 
HETATM    3  C   UNL     1      43.391 -12.108   6.348  1.00  0.00     0.057 A 
HETATM    4  C   UNL     1      42.409 -11.102   6.390  1.00  0.00     0.036 A 
HETATM    5  N   UNL     1      42.517  -9.981   7.232  1.00  0.00    -0.277 NA
HETATM    6  C   UNL     1      43.377 -10.188   8.422  1.00  0.00     0.162 C 
HETATM    7  C   UNL     1      44.643 -11.017   8.126  1.00  0.00     0.240 C 
HETATM    8  O   UNL     1      45.692 -10.900   8.757  1.00  0.00    -0.271 OA
HETATM    9  N   UNL     1      44.512 -12.007   7.182  1.00  0.00    -0.324 N 
HETATM   10  C   UNL     1      41.362 -11.147   5.471  1.00  0.00     0.027 A 
HETATM   11  C   UNL     1      41.250 -12.215   4.580  1.00  0.00     0.019 A 
HETATM   12  H   UNL     1      42.825  -9.173   6.687  1.00  0.00     0.128 HD
HETATM   13  H   UNL     1      45.304 -12.624   7.065  1.00  0.00     0.169 HD
ENDROOT
BRANCH   1  14
HETATM   14  C   UNL     1      42.000 -14.364   3.615  1.00  0.00     0.252 C 
HETATM   15  N   UNL     1      43.123 -14.899   3.023  1.00  0.00    -0.353 N 
HETATM   16  H   UNL     1      44.046 -14.616   3.316  1.00  0.00     0.163 HD
HETATM   17  O   UNL     1      40.868 -14.789   3.414  1.00  0.00    -0.268 OA
BRANCH  15  18
HETATM   18  C   UNL     1      43.036 -16.094   2.207  1.00  0.00     0.161 C 
BRANCH  18  19
HETATM   19  C   UNL     1      43.320 -17.347   2.994  1.00  0.00    -0.041 A 
HETATM   20  C   UNL     1      43.299 -18.600   2.367  1.00  0.00     0.009 A 
HETATM   21  C   UNL     1      43.651 -19.755   3.069  1.00  0.00     0.007 A 
HETATM   22  C   UNL     1      44.031 -19.679   4.413  1.00  0.00    -0.062 A 
HETATM   23  C   UNL     1      44.453 -20.906   5.167  1.00  0.00     0.048 C 
HETATM   24  C   UNL     1      44.053 -18.430   5.044  1.00  0.00     0.007 A 
HETATM   25  C   UNL     1      43.707 -17.275   4.340  1.00  0.00     0.009 A 
ENDBRANCH  18  19
ENDBRANCH  15  18
ENDBRANCH   1  14
BRANCH   6  26
HETATM   26  C   UNL     1      43.768  -8.849   9.073  1.00  0.00     0.103 C 
BRANCH  26  27
HETATM   27  S   UNL     1      43.475  -8.726  10.884  1.00  0.00    -0.162 SA
BRANCH  27  28
HETATM   28  C   UNL     1      41.904  -7.807  10.877  1.00  0.00     0.114 C 
BRANCH  28  29
HETATM   29  C   UNL     1      42.110  -6.341  11.171  1.00  0.00    -0.027 A 
HETATM   30  C   UNL     1      42.184  -5.362  10.167  1.00  0.00     0.041 A 
HETATM   31 CL   UNL     1      42.049  -5.756   8.490  1.00  0.00    -0.084 Cl
HETATM   32  C   UNL     1      42.379  -4.017  10.500  1.00  0.00     0.024 A 
HETATM   33  C   UNL     1      42.499  -3.631  11.834  1.00  0.00     0.002 A 
HETATM   34  C   UNL     1      42.416  -4.587  12.841  1.00  0.00     0.001 A 
HETATM   35  C   UNL     1      42.219  -5.930  12.513  1.00  0.00     0.009 A 
ENDBRANCH  28  29
ENDBRANCH  27  28
ENDBRANCH  26  27
ENDBRANCH   6  26
TORSDOF 7
ENDMDL
MODEL 8
REMARK VINA RESULT:      -8.7      7.157     10.154
REMARK  7 active torsions:
REMARK  status: ('A' for Active; 'I' for Inactive)
REMARK    1  A    between atoms: C_5  and  C_6 
REMARK    2  A    between atoms: C_6  and  N_7 
REMARK       I    between atoms: N_7  and  C_8 
REMARK    3  A    between atoms: C_8  and  C_9 
REMARK    4  A    between atoms: C_14  and  C_15 
REMARK    5  A    between atoms: C_15  and  S_16 
REMARK    6  A    between atoms: S_16  and  C_17 
REMARK    7  A    between atoms: C_17  and  C_18 
ROOT
HETATM    1  C   UNL     1      40.564 -14.382   3.356  1.00  0.00     0.034 A 
HETATM    2  C   UNL     1      40.463 -14.910   2.064  1.00  0.00     0.048 A 
HETATM    3  C   UNL     1      39.823 -14.167   1.066  1.00  0.00     0.057 A 
HETATM    4  C   UNL     1      39.279 -12.900   1.339  1.00  0.00     0.036 A 
HETATM    5  N   UNL     1      38.569 -12.162   0.375  1.00  0.00    -0.277 NA
HETATM    6  C   UNL     1      38.900 -12.509  -1.028  1.00  0.00     0.162 C 
HETATM    7  C   UNL     1      39.104 -14.021  -1.254  1.00  0.00     0.240 C 
HETATM    8  O   UNL     1      38.890 -14.581  -2.327  1.00  0.00    -0.271 OA
HETATM    9  N   UNL     1      39.671 -14.717  -0.213  1.00  0.00    -0.324 N 
HETATM   10  C   UNL     1      39.327 -12.415   2.646  1.00  0.00     0.027 A 
HETATM   11  C   UNL     1      39.975 -13.143   3.645  1.00  0.00     0.019 A 
HETATM   12  H   UNL     1      37.566 -12.246   0.552  1.00  0.00     0.128 HD
HETATM   13  H   UNL     1      39.910 -15.682  -0.395  1.00  0.00     0.169 HD
ENDROOT
BRANCH   1  14
HETATM   14  C   UNL     1      41.259 -15.087   4.470  1.00  0.00     0.252 C 
HETATM   15  N   UNL     1      42.627 -14.948   4.551  1.00  0.00    -0.353 N 
HETATM   16  H   UNL     1      43.118 -14.307   3.946  1.00  0.00     0.163 HD
HETATM   17  O   UNL     1      40.599 -15.722   5.285  1.00  0.00    -0.268 OA
BRANCH  15  18
HETATM   18  C   UNL     1      43.360 -15.456   5.693  1.00  0.00     0.161 C 
BRANCH  18  19
HETATM   19  C   UNL     1      43.634 -16.934   5.589  1.00  0.00    -0.041 A 
HETATM   20  C   UNL     1      43.304 -17.794   6.645  1.00  0.00     0.009 A 
HETATM   21  C   UNL     1      43.470 -19.176   6.518  1.00  0.00     0.007 A 
HETATM   22  C   UNL     1      43.968 -19.724   5.331  1.00  0.00    -0.062 A 
HETATM   23  C   UNL     1      44.109 -21.208   5.166  1.00  0.00     0.048 C 
HETATM   24  C   UNL     1      44.297 -18.869   4.274  1.00  0.00     0.007 A 
HETATM   25  C   UNL     1      44.126 -17.489   4.399  1.00  0.00     0.009 A 
ENDBRANCH  18  19
ENDBRANCH  15  18
ENDBRANCH   1  14
BRANCH   6  26
HETATM   26  C   UNL     1      37.838 -11.974  -2.006  1.00  0.00     0.103 C 
BRANCH  26  27
HETATM   27  S   UNL     1      38.321 -10.487  -2.973  1.00  0.00    -0.162 SA
BRANCH  27  28
HETATM   28  C   UNL     1      40.064 -10.892  -3.308  1.00  0.00     0.114 C 
BRANCH  28  29
HETATM   29  C   UNL     1      40.982  -9.743  -2.970  1.00  0.00    -0.027 A 
HETATM   30  C   UNL     1      41.214  -8.667  -3.841  1.00  0.00     0.041 A 
HETATM   31 CL   UNL     1      40.465  -8.567  -5.395  1.00  0.00    -0.084 Cl
HETATM   32  C   UNL     1      42.078  -7.630  -3.474  1.00  0.00     0.024 A 
HETATM   33  C   UNL     1      42.717  -7.649  -2.235  1.00  0.00     0.002 A 
HETATM   34  C   UNL     1      42.489  -8.703  -1.356  1.00  0.00     0.001 A 
HETATM   35  C   UNL     1      41.625  -9.739  -1.718  1.00  0.00     0.009 A 
ENDBRANCH  28  29
ENDBRANCH  27  28
ENDBRANCH  26  27
ENDBRANCH   6  26
TORSDOF 7
ENDMDL
MODEL 9
REMARK VINA RESULT:      -8.5      2.066      2.520
REMARK  7 active torsions:
REMARK  status: ('A' for Active; 'I' for Inactive)
REMARK    1  A    between atoms: C_5  and  C_6 
REMARK    2  A    between atoms: C_6  and  N_7 
REMARK       I    between atoms: N_7  and  C_8 
REMARK    3  A    between atoms: C_8  and  C_9 
REMARK    4  A    between atoms: C_14  and  C_15 
REMARK    5  A    between atoms: C_15  and  S_16 
REMARK    6  A    between atoms: S_16  and  C_17 
REMARK    7  A    between atoms: C_17  and  C_18 
ROOT
HETATM    1  C   UNL     1      41.093 -13.648   3.450  1.00  0.00     0.034 A 
HETATM    2  C   UNL     1      42.042 -13.051   4.288  1.00  0.00     0.048 A 
HETATM    3  C   UNL     1      41.665 -11.971   5.093  1.00  0.00     0.057 A 
HETATM    4  C   UNL     1      40.350 -11.473   5.074  1.00  0.00     0.036 A 
HETATM    5  N   UNL     1      39.962 -10.345   5.819  1.00  0.00    -0.277 NA
HETATM    6  C   UNL     1      40.812 -10.070   7.002  1.00  0.00     0.162 C 
HETATM    7  C   UNL     1      42.313 -10.308   6.747  1.00  0.00     0.240 C 
HETATM    8  O   UNL     1      43.205  -9.708   7.343  1.00  0.00    -0.271 OA
HETATM    9  N   UNL     1      42.626 -11.336   5.890  1.00  0.00    -0.324 N 
HETATM   10  C   UNL     1      39.432 -12.033   4.186  1.00  0.00     0.027 A 
HETATM   11  C   UNL     1      39.795 -13.119   3.388  1.00  0.00     0.019 A 
HETATM   12  H   UNL     1      39.908  -9.532   5.202  1.00  0.00     0.128 HD
HETATM   13  H   UNL     1      43.606 -11.570   5.807  1.00  0.00     0.169 HD
ENDROOT
BRANCH   1  14
HETATM   14  C   UNL     1      41.396 -14.823   2.586  1.00  0.00     0.252 C 
HETATM   15  N   UNL     1      42.722 -15.144   2.398  1.00  0.00    -0.353 N 
HETATM   16  H   UNL     1      43.447 -14.669   2.914  1.00  0.00     0.163 HD
HETATM   17  O   UNL     1      40.473 -15.477   2.112  1.00  0.00    -0.268 OA
BRANCH  15  18
HETATM   18  C   UNL     1      43.102 -16.366   1.716  1.00  0.00     0.161 C 
BRANCH  18  19
HETATM   19  C   UNL     1      43.349 -17.503   2.672  1.00  0.00    -0.041 A 
HETATM   20  C   UNL     1      43.322 -18.829   2.220  1.00  0.00     0.009 A 
HETATM   21  C   UNL     1      43.640 -19.883   3.081  1.00  0.00     0.007 A 
HETATM   22  C   UNL     1      43.993 -19.630   4.410  1.00  0.00    -0.062 A 
HETATM   23  C   UNL     1      44.379 -20.748   5.333  1.00  0.00     0.048 C 
HETATM   24  C   UNL     1      44.021 -18.307   4.866  1.00  0.00     0.007 A 
HETATM   25  C   UNL     1      43.708 -17.254   4.004  1.00  0.00     0.009 A 
ENDBRANCH  18  19
ENDBRANCH  15  18
ENDBRANCH   1  14
BRANCH   6  26
HETATM   26  C   UNL     1      40.592  -8.641   7.532  1.00  0.00     0.103 C 
BRANCH  26  27
HETATM   27  S   UNL     1      39.403  -8.481   8.926  1.00  0.00    -0.162 SA
BRANCH  27  28
HETATM   28  C   UNL     1      40.403  -7.475  10.067  1.00  0.00     0.114 C 
BRANCH  28  29
HETATM   29  C   UNL     1      41.493  -8.287  10.722  1.00  0.00    -0.027 A 
HETATM   30  C   UNL     1      42.859  -8.081  10.468  1.00  0.00     0.041 A 
HETATM   31 CL   UNL     1      43.414  -6.870   9.367  1.00  0.00    -0.084 Cl
HETATM   32  C   UNL     1      43.826  -8.867  11.104  1.00  0.00     0.024 A 
HETATM   33  C   UNL     1      43.446  -9.863  12.002  1.00  0.00     0.002 A 
HETATM   34  C   UNL     1      42.098 -10.073  12.273  1.00  0.00     0.001 A 
HETATM   35  C   UNL     1      41.130  -9.289  11.642  1.00  0.00     0.009 A 
ENDBRANCH  28  29
ENDBRANCH  27  28
ENDBRANCH  26  27
ENDBRANCH   6  26
TORSDOF 7
ENDMDL
MODEL 10
REMARK VINA RESULT:      -8.4      2.710      3.681
REMARK  7 active torsions:
REMARK  status: ('A' for Active; 'I' for Inactive)
REMARK    1  A    between atoms: C_5  and  C_6 
REMARK    2  A    between atoms: C_6  and  N_7 
REMARK       I    between atoms: N_7  and  C_8 
REMARK    3  A    between atoms: C_8  and  C_9 
REMARK    4  A    between atoms: C_14  and  C_15 
REMARK    5  A    between atoms: C_15  and  S_16 
REMARK    6  A    between atoms: S_16  and  C_17 
REMARK    7  A    between atoms: C_17  and  C_18 
ROOT
HETATM    1  C   UNL     1      41.187 -11.428   4.467  1.00  0.00     0.034 A 
HETATM    2  C   UNL     1      40.553 -11.543   5.710  1.00  0.00     0.048 A 
HETATM    3  C   UNL     1      40.354 -10.397   6.488  1.00  0.00     0.057 A 
HETATM    4  C   UNL     1      40.781  -9.134   6.045  1.00  0.00     0.036 A 
HETATM    5  N   UNL     1      40.658  -7.978   6.836  1.00  0.00    -0.277 NA
HETATM    6  C   UNL     1      39.593  -8.050   7.866  1.00  0.00     0.162 C 
HETATM    7  C   UNL     1      39.493  -9.430   8.547  1.00  0.00     0.240 C 
HETATM    8  O   UNL     1      39.085  -9.589   9.696  1.00  0.00    -0.271 OA
HETATM    9  N   UNL     1      39.770 -10.518   7.756  1.00  0.00    -0.324 N 
HETATM   10  C   UNL     1      41.471  -9.043   4.837  1.00  0.00     0.027 A 
HETATM   11  C   UNL     1      41.663 -10.177   4.047  1.00  0.00     0.019 A 
HETATM   12  H   UNL     1      41.564  -7.752   7.253  1.00  0.00     0.128 HD
HETATM   13  H   UNL     1      39.597 -11.426   8.163  1.00  0.00     0.169 HD
ENDROOT
BRANCH   1  14
HETATM   14  C   UNL     1      41.409 -12.587   3.557  1.00  0.00     0.252 C 
HETATM   15  N   UNL     1      40.695 -13.737   3.813  1.00  0.00    -0.353 N 
HETATM   16  H   UNL     1      39.973 -13.751   4.518  1.00  0.00     0.163 HD
HETATM   17  O   UNL     1      42.175 -12.469   2.607  1.00  0.00    -0.268 OA
BRANCH  15  18
HETATM   18  C   UNL     1      40.720 -14.850   2.884  1.00  0.00     0.161 C 
BRANCH  18  19
HETATM   19  C   UNL     1      41.762 -15.875   3.246  1.00  0.00    -0.041 A 
HETATM   20  C   UNL     1      42.168 -16.036   4.577  1.00  0.00     0.009 A 
HETATM   21  C   UNL     1      43.065 -17.047   4.933  1.00  0.00     0.007 A 
HETATM   22  C   UNL     1      43.573 -17.916   3.962  1.00  0.00    -0.062 A 
HETATM   23  C   UNL     1      44.504 -19.032   4.337  1.00  0.00     0.048 C 
HETATM   24  C   UNL     1      43.171 -17.759   2.631  1.00  0.00     0.007 A 
HETATM   25  C   UNL     1      42.270 -16.753   2.278  1.00  0.00     0.009 A 
ENDBRANCH  18  19
ENDBRANCH  15  18
ENDBRANCH   1  14
BRANCH   6  26
HETATM   26  C   UNL     1      39.765  -6.952   8.931  1.00  0.00     0.103 C 
BRANCH  26  27
HETATM   27  S   UNL     1      41.464  -6.270   9.106  1.00  0.00    -0.162 SA
BRANCH  27  28
HETATM   28  C   UNL     1      42.058  -7.284  10.496  1.00  0.00     0.114 C 
BRANCH  28  29
HETATM   29  C   UNL     1      43.293  -8.071  10.129  1.00  0.00    -0.027 A 
HETATM   30  C   UNL     1      43.813  -9.099  10.931  1.00  0.00     0.041 A 
HETATM   31 CL   UNL     1      43.080  -9.553  12.429  1.00  0.00    -0.084 Cl
HETATM   32  C   UNL     1      44.963  -9.793  10.539  1.00  0.00     0.024 A 
HETATM   33  C   UNL     1      45.605  -9.475   9.343  1.00  0.00     0.002 A 
HETATM   34  C   UNL     1      45.095  -8.467   8.531  1.00  0.00     0.001 A 
HETATM   35  C   UNL     1      43.947  -7.774   8.918  1.00  0.00     0.009 A 
ENDBRANCH  28  29
ENDBRANCH  27  28
ENDBRANCH  26  27
ENDBRANCH   6  26
TORSDOF 7
ENDMDL
