MODEL 1
REMARK VINA RESULT:      -7.7      0.000      0.000
REMARK  6 active torsions:
REMARK  status: ('A' for Active; 'I' for Inactive)
REMARK    1  A    between atoms: C_3  and  N_4 
REMARK    2  A    between atoms: N_4  and  C_5 
REMARK    3  A    between atoms: C_5  and  C_6 
REMARK    4  A    between atoms: N_8  and  C_10 
REMARK    5  A    between atoms: C_10  and  C_11 
REMARK    6  A    between atoms: C_12  and  O_13 
ROOT
HETATM    1  C   UNL     1      42.756 -15.733   6.012  1.00  0.00     0.031 C 
HETATM    2  C   UNL     1      43.349 -14.660   6.920  1.00  0.00     0.241 C 
HETATM    3  N   UNL     1      42.451 -13.469   6.705  1.00  0.00    -0.067 N 
HETATM    4  H   UNL     1      42.266 -13.022   7.624  1.00  0.00     0.280 HD
HETATM    5  C   UNL     1      41.135 -13.968   6.151  1.00  0.00     0.235 C 
HETATM    6  C   UNL     1      41.260 -15.486   6.187  1.00  0.00     0.035 C 
ENDROOT
BRANCH   3   7
HETATM    7  C   UNL     1      43.077 -12.349   5.908  1.00  0.00     0.276 C 
BRANCH   7   8
HETATM    8  C   UNL     1      44.010 -11.490   6.714  1.00  0.00     0.002 A 
HETATM    9  C   UNL     1      43.519 -10.616   7.692  1.00  0.00     0.091 A 
HETATM   10  C   UNL     1      44.387  -9.856   8.480  1.00  0.00     0.044 A 
HETATM   11 BR   UNL     1      43.713  -8.682   9.803  1.00  0.00    -0.048 Br
HETATM   12  C   UNL     1      45.763  -9.956   8.293  1.00  0.00     0.022 A 
HETATM   13  C   UNL     1      46.267 -10.820   7.320  1.00  0.00     0.002 A 
HETATM   14  C   UNL     1      45.399 -11.587   6.538  1.00  0.00     0.012 A 
BRANCH   9  15
HETATM   15  O   UNL     1      42.154 -10.525   7.834  1.00  0.00    -0.359 OA
HETATM   16  H   UNL     1      41.985 -10.464   8.802  1.00  0.00     0.218 HD
ENDBRANCH   9  15
ENDBRANCH   7   8
ENDBRANCH   3   7
BRANCH   1  17
HETATM   17  C   UNL     1      43.183 -17.155   6.380  1.00  0.00     0.127 C 
BRANCH  17  18
HETATM   18  N   UNL     1      44.195 -17.637   5.449  1.00  0.00    -0.376 N 
HETATM   19  H   UNL     1      45.081 -17.857   5.922  1.00  0.00     0.161 HD
BRANCH  18  20
HETATM   20  C   UNL     1      43.982 -18.555   4.424  1.00  0.00     0.100 A 
HETATM   21  C   UNL     1      43.498 -18.093   3.191  1.00  0.00     0.048 A 
HETATM   22  C   UNL     1      43.213 -18.988   2.162  1.00  0.00     0.005 A 
HETATM   23  C   UNL     1      43.406 -20.346   2.370  1.00  0.00     0.017 A 
HETATM   24  C   UNL     1      43.881 -20.772   3.601  1.00  0.00     0.089 A 
HETATM   25  N   UNL     1      44.142 -19.881   4.574  1.00  0.00    -0.353 N 
HETATM   26  H   UNL     1      44.502 -20.237   5.452  1.00  0.00     0.166 HD
ENDBRANCH  18  20
ENDBRANCH  17  18
ENDBRANCH   1  17
TORSDOF 6
ENDMDL
MODEL 2
REMARK VINA RESULT:      -7.4      4.245      5.426
REMARK  6 active torsions:
REMARK  status: ('A' for Active; 'I' for Inactive)
REMARK    1  A    between atoms: C_3  and  N_4 
REMARK    2  A    between atoms: N_4  and  C_5 
REMARK    3  A    between atoms: C_5  and  C_6 
REMARK    4  A    between atoms: N_8  and  C_10 
REMARK    5  A    between atoms: C_10  and  C_11 
REMARK    6  A    between atoms: C_12  and  O_13 
ROOT
HETATM    1  C   UNL     1      42.506 -16.666   5.808  1.00  0.00     0.031 C 
HETATM    2  C   UNL     1      42.322 -15.684   4.656  1.00  0.00     0.241 C 
HETATM    3  N   UNL     1      40.872 -15.287   4.749  1.00  0.00    -0.067 N 
HETATM    4  H   UNL     1      40.796 -14.263   4.588  1.00  0.00     0.280 HD
HETATM    5  C   UNL     1      40.394 -15.579   6.154  1.00  0.00     0.235 C 
HETATM    6  C   UNL     1      41.649 -16.024   6.895  1.00  0.00     0.035 C 
ENDROOT
BRANCH   3   7
HETATM    7  C   UNL     1      39.995 -15.861   3.662  1.00  0.00     0.276 C 
BRANCH   7   8
HETATM    8  C   UNL     1      39.897 -14.983   2.446  1.00  0.00     0.002 A 
HETATM    9  C   UNL     1      39.544 -13.632   2.562  1.00  0.00     0.091 A 
HETATM   10  C   UNL     1      39.504 -12.800   1.440  1.00  0.00     0.044 A 
HETATM   11 BR   UNL     1      39.033 -10.975   1.608  1.00  0.00    -0.048 Br
HETATM   12  C   UNL     1      39.810 -13.313   0.182  1.00  0.00     0.022 A 
HETATM   13  C   UNL     1      40.160 -14.658   0.051  1.00  0.00     0.002 A 
HETATM   14  C   UNL     1      40.209 -15.488   1.174  1.00  0.00     0.012 A 
BRANCH   9  15
HETATM   15  O   UNL     1      39.225 -13.164   3.814  1.00  0.00    -0.359 OA
HETATM   16  H   UNL     1      38.859 -13.932   4.308  1.00  0.00     0.218 HD
ENDBRANCH   9  15
ENDBRANCH   7   8
ENDBRANCH   3   7
BRANCH   1  17
HETATM   17  C   UNL     1      43.966 -16.862   6.223  1.00  0.00     0.127 C 
BRANCH  17  18
HETATM   18  N   UNL     1      44.735 -17.424   5.120  1.00  0.00    -0.376 N 
HETATM   19  H   UNL     1      45.746 -17.404   5.306  1.00  0.00     0.161 HD
BRANCH  18  20
HETATM   20  C   UNL     1      44.420 -18.585   4.421  1.00  0.00     0.100 A 
HETATM   21  C   UNL     1      44.080 -18.487   3.063  1.00  0.00     0.048 A 
HETATM   22  C   UNL     1      43.697 -19.618   2.345  1.00  0.00     0.005 A 
HETATM   23  C   UNL     1      43.649 -20.846   2.988  1.00  0.00     0.017 A 
HETATM   24  C   UNL     1      43.987 -20.910   4.331  1.00  0.00     0.089 A 
HETATM   25  N   UNL     1      44.347 -19.798   4.995  1.00  0.00    -0.353 N 
HETATM   26  H   UNL     1      44.600 -19.896   5.971  1.00  0.00     0.166 HD
ENDBRANCH  18  20
ENDBRANCH  17  18
ENDBRANCH   1  17
TORSDOF 6
ENDMDL
MODEL 3
REMARK VINA RESULT:      -7.3      1.688      2.460
REMARK  6 active torsions:
REMARK  status: ('A' for Active; 'I' for Inactive)
REMARK    1  A    between atoms: C_3  and  N_4 
REMARK    2  A    between atoms: N_4  and  C_5 
REMARK    3  A    between atoms: C_5  and  C_6 
REMARK    4  A    between atoms: N_8  and  C_10 
REMARK    5  A    between atoms: C_10  and  C_11 
REMARK    6  A    between atoms: C_12  and  O_13 
ROOT
HETATM    1  C   UNL     1      42.818 -13.698   3.743  1.00  0.00     0.031 C 
HETATM    2  C   UNL     1      42.259 -13.185   5.066  1.00  0.00     0.241 C 
HETATM    3  N   UNL     1      43.169 -12.038   5.421  1.00  0.00    -0.067 N 
HETATM    4  H   UNL     1      42.592 -11.254   5.782  1.00  0.00     0.280 HD
HETATM    5  C   UNL     1      43.855 -11.573   4.155  1.00  0.00     0.235 C 
HETATM    6  C   UNL     1      43.205 -12.395   3.049  1.00  0.00     0.035 C 
ENDROOT
BRANCH   3   7
HETATM    7  C   UNL     1      44.109 -12.318   6.570  1.00  0.00     0.276 C 
BRANCH   7   8
HETATM    8  C   UNL     1      44.618 -11.075   7.244  1.00  0.00     0.002 A 
HETATM    9  C   UNL     1      43.740 -10.207   7.906  1.00  0.00     0.091 A 
HETATM   10  C   UNL     1      44.216  -9.079   8.580  1.00  0.00     0.044 A 
HETATM   11 BR   UNL     1      43.024  -7.915   9.477  1.00  0.00    -0.048 Br
HETATM   12  C   UNL     1      45.580  -8.801   8.592  1.00  0.00     0.022 A 
HETATM   13  C   UNL     1      46.466  -9.655   7.934  1.00  0.00     0.002 A 
HETATM   14  C   UNL     1      45.991 -10.788   7.268  1.00  0.00     0.012 A 
BRANCH   9  15
HETATM   15  O   UNL     1      42.398 -10.498   7.854  1.00  0.00    -0.359 OA
HETATM   16  H   UNL     1      42.028  -9.950   7.126  1.00  0.00     0.218 HD
ENDBRANCH   9  15
ENDBRANCH   7   8
ENDBRANCH   3   7
BRANCH   1  17
HETATM   17  C   UNL     1      41.825 -14.542   2.941  1.00  0.00     0.127 C 
BRANCH  17  18
HETATM   18  N   UNL     1      41.612 -15.829   3.590  1.00  0.00    -0.376 N 
HETATM   19  H   UNL     1      40.700 -16.237   3.348  1.00  0.00     0.161 HD
BRANCH  18  20
HETATM   20  C   UNL     1      42.556 -16.846   3.701  1.00  0.00     0.100 A 
HETATM   21  C   UNL     1      42.780 -17.686   2.600  1.00  0.00     0.048 A 
HETATM   22  C   UNL     1      43.671 -18.752   2.693  1.00  0.00     0.005 A 
HETATM   23  C   UNL     1      44.332 -18.983   3.890  1.00  0.00     0.017 A 
HETATM   24  C   UNL     1      44.086 -18.139   4.962  1.00  0.00     0.089 A 
HETATM   25  N   UNL     1      43.217 -17.121   4.839  1.00  0.00    -0.353 N 
HETATM   26  H   UNL     1      43.080 -16.521   5.644  1.00  0.00     0.166 HD
ENDBRANCH  18  20
ENDBRANCH  17  18
ENDBRANCH   1  17
TORSDOF 6
ENDMDL
MODEL 4
REMARK VINA RESULT:      -7.1      5.577      7.045
REMARK  6 active torsions:
REMARK  status: ('A' for Active; 'I' for Inactive)
REMARK    1  A    between atoms: C_3  and  N_4 
REMARK    2  A    between atoms: N_4  and  C_5 
REMARK    3  A    between atoms: C_5  and  C_6 
REMARK    4  A    between atoms: N_8  and  C_10 
REMARK    5  A    between atoms: C_10  and  C_11 
REMARK    6  A    between atoms: C_12  and  O_13 
ROOT
HETATM    1  C   UNL     1      41.889 -15.683   3.172  1.00  0.00     0.031 C 
HETATM    2  C   UNL     1      41.820 -14.174   2.959  1.00  0.00     0.241 C 
HETATM    3  N   UNL     1      40.660 -13.997   2.014  1.00  0.00    -0.067 N 
HETATM    4  H   UNL     1      40.098 -13.181   2.326  1.00  0.00     0.280 HD
HETATM    5  C   UNL     1      39.788 -15.230   2.103  1.00  0.00     0.235 C 
HETATM    6  C   UNL     1      40.410 -16.052   3.225  1.00  0.00     0.035 C 
ENDROOT
BRANCH   3   7
HETATM    7  C   UNL     1      41.053 -13.613   0.607  1.00  0.00     0.276 C 
BRANCH   7   8
HETATM    8  C   UNL     1      39.879 -13.412  -0.309  1.00  0.00     0.002 A 
HETATM    9  C   UNL     1      39.079 -12.266  -0.211  1.00  0.00     0.091 A 
HETATM   10  C   UNL     1      38.019 -12.050  -1.096  1.00  0.00     0.044 A 
HETATM   11 BR   UNL     1      36.949 -10.495  -0.959  1.00  0.00    -0.048 Br
HETATM   12  C   UNL     1      37.741 -12.985  -2.088  1.00  0.00     0.022 A 
HETATM   13  C   UNL     1      38.526 -14.134  -2.196  1.00  0.00     0.002 A 
HETATM   14  C   UNL     1      39.592 -14.345  -1.317  1.00  0.00     0.012 A 
BRANCH   9  15
HETATM   15  O   UNL     1      39.367 -11.374   0.795  1.00  0.00    -0.359 OA
HETATM   16  H   UNL     1      39.502 -10.503   0.357  1.00  0.00     0.218 HD
ENDBRANCH   9  15
ENDBRANCH   7   8
ENDBRANCH   3   7
BRANCH   1  17
HETATM   17  C   UNL     1      42.663 -16.093   4.426  1.00  0.00     0.127 C 
BRANCH  17  18
HETATM   18  N   UNL     1      43.846 -16.863   4.064  1.00  0.00    -0.376 N 
HETATM   19  H   UNL     1      44.683 -16.545   4.570  1.00  0.00     0.161 HD
BRANCH  18  20
HETATM   20  C   UNL     1      43.898 -18.245   3.913  1.00  0.00     0.100 A 
HETATM   21  C   UNL     1      43.549 -18.806   2.675  1.00  0.00     0.048 A 
HETATM   22  C   UNL     1      43.528 -20.188   2.504  1.00  0.00     0.005 A 
HETATM   23  C   UNL     1      43.849 -21.010   3.574  1.00  0.00     0.017 A 
HETATM   24  C   UNL     1      44.186 -20.427   4.786  1.00  0.00     0.089 A 
HETATM   25  N   UNL     1      44.192 -19.088   4.918  1.00  0.00    -0.353 N 
HETATM   26  H   UNL     1      44.459 -18.707   5.818  1.00  0.00     0.166 HD
ENDBRANCH  18  20
ENDBRANCH  17  18
ENDBRANCH   1  17
TORSDOF 6
ENDMDL
MODEL 5
REMARK VINA RESULT:      -7.0      4.056      8.333
REMARK  6 active torsions:
REMARK  status: ('A' for Active; 'I' for Inactive)
REMARK    1  A    between atoms: C_3  and  N_4 
REMARK    2  A    between atoms: N_4  and  C_5 
REMARK    3  A    between atoms: C_5  and  C_6 
REMARK    4  A    between atoms: N_8  and  C_10 
REMARK    5  A    between atoms: C_10  and  C_11 
REMARK    6  A    between atoms: C_12  and  O_13 
ROOT
HETATM    1  C   UNL     1      41.958 -11.669   5.092  1.00  0.00     0.031 C 
HETATM    2  C   UNL     1      42.518 -12.999   5.587  1.00  0.00     0.241 C 
HETATM    3  N   UNL     1      43.103 -13.626   4.348  1.00  0.00    -0.067 N 
HETATM    4  H   UNL     1      44.016 -14.056   4.593  1.00  0.00     0.280 HD
HETATM    5  C   UNL     1      43.355 -12.528   3.339  1.00  0.00     0.235 C 
HETATM    6  C   UNL     1      43.026 -11.243   4.089  1.00  0.00     0.035 C 
ENDROOT
BRANCH   3   7
HETATM    7  C   UNL     1      42.316 -14.798   3.810  1.00  0.00     0.276 C 
BRANCH   7   8
HETATM    8  C   UNL     1      42.977 -16.125   4.052  1.00  0.00     0.002 A 
HETATM    9  C   UNL     1      42.836 -17.176   3.137  1.00  0.00     0.091 A 
HETATM   10  C   UNL     1      43.492 -18.394   3.332  1.00  0.00     0.044 A 
HETATM   11 BR   UNL     1      43.300 -19.806   2.086  1.00  0.00    -0.048 Br
HETATM   12  C   UNL     1      44.296 -18.578   4.454  1.00  0.00     0.022 A 
HETATM   13  C   UNL     1      44.444 -17.542   5.376  1.00  0.00     0.002 A 
HETATM   14  C   UNL     1      43.794 -16.320   5.176  1.00  0.00     0.012 A 
BRANCH   9  15
HETATM   15  O   UNL     1      42.017 -16.969   2.053  1.00  0.00    -0.359 OA
HETATM   16  H   UNL     1      41.275 -16.408   2.374  1.00  0.00     0.218 HD
ENDBRANCH   9  15
ENDBRANCH   7   8
ENDBRANCH   3   7
BRANCH   1  17
HETATM   17  C   UNL     1      41.729 -10.645   6.206  1.00  0.00     0.127 C 
BRANCH  17  18
HETATM   18  N   UNL     1      42.586 -10.937   7.348  1.00  0.00    -0.376 N 
HETATM   19  H   UNL     1      42.660 -11.946   7.527  1.00  0.00     0.161 HD
BRANCH  18  20
HETATM   20  C   UNL     1      43.810 -10.331   7.617  1.00  0.00     0.100 A 
HETATM   21  C   UNL     1      44.990 -11.049   7.369  1.00  0.00     0.048 A 
HETATM   22  C   UNL     1      46.231 -10.500   7.683  1.00  0.00     0.005 A 
HETATM   23  C   UNL     1      46.292  -9.237   8.252  1.00  0.00     0.017 A 
HETATM   24  C   UNL     1      45.108  -8.555   8.490  1.00  0.00     0.089 A 
HETATM   25  N   UNL     1      43.927  -9.116   8.178  1.00  0.00    -0.353 N 
HETATM   26  H   UNL     1      43.089  -8.573   8.355  1.00  0.00     0.166 HD
ENDBRANCH  18  20
ENDBRANCH  17  18
ENDBRANCH   1  17
TORSDOF 6
ENDMDL
MODEL 6
REMARK VINA RESULT:      -6.9      3.670      7.897
REMARK  6 active torsions:
REMARK  status: ('A' for Active; 'I' for Inactive)
REMARK    1  A    between atoms: C_3  and  N_4 
REMARK    2  A    between atoms: N_4  and  C_5 
REMARK    3  A    between atoms: C_5  and  C_6 
REMARK    4  A    between atoms: N_8  and  C_10 
REMARK    5  A    between atoms: C_10  and  C_11 
REMARK    6  A    between atoms: C_12  and  O_13 
ROOT
HETATM    1  C   UNL     1      42.859 -14.047   5.964  1.00  0.00     0.031 C 
HETATM    2  C   UNL     1      41.337 -14.089   5.871  1.00  0.00     0.241 C 
HETATM    3  N   UNL     1      40.986 -15.473   6.353  1.00  0.00    -0.067 N 
HETATM    4  H   UNL     1      40.155 -15.408   6.973  1.00  0.00     0.280 HD
HETATM    5  C   UNL     1      42.145 -15.994   7.172  1.00  0.00     0.235 C 
HETATM    6  C   UNL     1      43.107 -14.816   7.258  1.00  0.00     0.035 C 
ENDROOT
BRANCH   3   7
HETATM    7  C   UNL     1      40.519 -16.413   5.267  1.00  0.00     0.276 C 
BRANCH   7   8
HETATM    8  C   UNL     1      41.259 -16.244   3.970  1.00  0.00     0.002 A 
HETATM    9  C   UNL     1      40.695 -15.524   2.909  1.00  0.00     0.091 A 
HETATM   10  C   UNL     1      41.402 -15.319   1.721  1.00  0.00     0.044 A 
HETATM   11 BR   UNL     1      40.634 -14.339   0.297  1.00  0.00    -0.048 Br
HETATM   12  C   UNL     1      42.685 -15.842   1.578  1.00  0.00     0.022 A 
HETATM   13  C   UNL     1      43.258 -16.565   2.625  1.00  0.00     0.002 A 
HETATM   14  C   UNL     1      42.554 -16.761   3.816  1.00  0.00     0.012 A 
BRANCH   9  15
HETATM   15  O   UNL     1      39.419 -15.041   3.076  1.00  0.00    -0.359 OA
HETATM   16  H   UNL     1      38.890 -15.406   2.331  1.00  0.00     0.218 HD
ENDBRANCH   9  15
ENDBRANCH   7   8
ENDBRANCH   3   7
BRANCH   1  17
HETATM   17  C   UNL     1      43.435 -12.630   5.979  1.00  0.00     0.127 C 
BRANCH  17  18
HETATM   18  N   UNL     1      43.360 -12.065   7.320  1.00  0.00    -0.376 N 
HETATM   19  H   UNL     1      43.115 -12.774   8.024  1.00  0.00     0.161 HD
BRANCH  18  20
HETATM   20  C   UNL     1      44.267 -11.165   7.872  1.00  0.00     0.100 A 
HETATM   21  C   UNL     1      43.966 -10.570   9.106  1.00  0.00     0.048 A 
HETATM   22  C   UNL     1      44.818  -9.618   9.660  1.00  0.00     0.005 A 
HETATM   23  C   UNL     1      45.970  -9.257   8.977  1.00  0.00     0.017 A 
HETATM   24  C   UNL     1      46.238  -9.860   7.757  1.00  0.00     0.089 A 
HETATM   25  N   UNL     1      45.391 -10.772   7.249  1.00  0.00    -0.353 N 
HETATM   26  H   UNL     1      45.637 -11.197   6.362  1.00  0.00     0.166 HD
ENDBRANCH  18  20
ENDBRANCH  17  18
ENDBRANCH   1  17
TORSDOF 6
ENDMDL
MODEL 7
REMARK VINA RESULT:      -6.8      2.542      4.254
REMARK  6 active torsions:
REMARK  status: ('A' for Active; 'I' for Inactive)
REMARK    1  A    between atoms: C_3  and  N_4 
REMARK    2  A    between atoms: N_4  and  C_5 
REMARK    3  A    between atoms: C_5  and  C_6 
REMARK    4  A    between atoms: N_8  and  C_10 
REMARK    5  A    between atoms: C_10  and  C_11 
REMARK    6  A    between atoms: C_12  and  O_13 
ROOT
HETATM    1  C   UNL     1      43.935 -12.541   6.786  1.00  0.00     0.031 C 
HETATM    2  C   UNL     1      43.544 -11.229   7.460  1.00  0.00     0.241 C 
HETATM    3  N   UNL     1      44.846 -10.480   7.573  1.00  0.00    -0.067 N 
HETATM    4  H   UNL     1      44.679  -9.485   7.326  1.00  0.00     0.280 HD
HETATM    5  C   UNL     1      45.811 -11.060   6.563  1.00  0.00     0.235 C 
HETATM    6  C   UNL     1      44.979 -12.066   5.779  1.00  0.00     0.035 C 
ENDROOT
BRANCH   3   7
HETATM    7  C   UNL     1      45.394 -10.388   8.977  1.00  0.00     0.276 C 
BRANCH   7   8
HETATM    8  C   UNL     1      44.497  -9.641   9.923  1.00  0.00     0.002 A 
HETATM    9  C   UNL     1      44.078  -8.336   9.636  1.00  0.00     0.091 A 
HETATM   10  C   UNL     1      43.201  -7.657  10.486  1.00  0.00     0.044 A 
HETATM   11 BR   UNL     1      42.636  -5.896  10.086  1.00  0.00    -0.048 Br
HETATM   12  C   UNL     1      42.736  -8.278  11.643  1.00  0.00     0.022 A 
HETATM   13  C   UNL     1      43.148  -9.577  11.944  1.00  0.00     0.002 A 
HETATM   14  C   UNL     1      44.018 -10.258  11.089  1.00  0.00     0.012 A 
BRANCH   9  15
HETATM   15  O   UNL     1      44.574  -7.745   8.498  1.00  0.00    -0.359 OA
HETATM   16  H   UNL     1      45.313  -8.318   8.193  1.00  0.00     0.218 HD
ENDBRANCH   9  15
ENDBRANCH   7   8
ENDBRANCH   3   7
BRANCH   1  17
HETATM   17  C   UNL     1      42.759 -13.277   6.141  1.00  0.00     0.127 C 
BRANCH  17  18
HETATM   18  N   UNL     1      43.188 -14.574   5.635  1.00  0.00    -0.376 N 
HETATM   19  H   UNL     1      42.876 -15.346   6.238  1.00  0.00     0.161 HD
BRANCH  18  20
HETATM   20  C   UNL     1      43.138 -14.981   4.305  1.00  0.00     0.100 A 
HETATM   21  C   UNL     1      43.182 -16.353   4.014  1.00  0.00     0.048 A 
HETATM   22  C   UNL     1      43.197 -16.796   2.693  1.00  0.00     0.005 A 
HETATM   23  C   UNL     1      43.175 -15.866   1.664  1.00  0.00     0.017 A 
HETATM   24  C   UNL     1      43.136 -14.518   1.983  1.00  0.00     0.089 A 
HETATM   25  N   UNL     1      43.127 -14.124   3.269  1.00  0.00    -0.353 N 
HETATM   26  H   UNL     1      43.083 -13.129   3.454  1.00  0.00     0.166 HD
ENDBRANCH  18  20
ENDBRANCH  17  18
ENDBRANCH   1  17
TORSDOF 6
ENDMDL
MODEL 8
REMARK VINA RESULT:      -6.6      5.932      8.009
REMARK  6 active torsions:
REMARK  status: ('A' for Active; 'I' for Inactive)
REMARK    1  A    between atoms: C_3  and  N_4 
REMARK    2  A    between atoms: N_4  and  C_5 
REMARK    3  A    between atoms: C_5  and  C_6 
REMARK    4  A    between atoms: N_8  and  C_10 
REMARK    5  A    between atoms: C_10  and  C_11 
REMARK    6  A    between atoms: C_12  and  O_13 
ROOT
HETATM    1  C   UNL     1      40.231 -12.992   1.320  1.00  0.00     0.031 C 
HETATM    2  C   UNL     1      39.791 -13.766   2.558  1.00  0.00     0.241 C 
HETATM    3  N   UNL     1      41.028 -14.522   2.968  1.00  0.00    -0.067 N 
HETATM    4  H   UNL     1      41.119 -14.476   4.001  1.00  0.00     0.280 HD
HETATM    5  C   UNL     1      42.226 -13.830   2.358  1.00  0.00     0.235 C 
HETATM    6  C   UNL     1      41.648 -12.580   1.705  1.00  0.00     0.035 C 
ENDROOT
BRANCH   3   7
HETATM    7  C   UNL     1      40.968 -16.009   2.704  1.00  0.00     0.276 C 
BRANCH   7   8
HETATM    8  C   UNL     1      42.103 -16.773   3.325  1.00  0.00     0.002 A 
HETATM    9  C   UNL     1      42.399 -16.640   4.688  1.00  0.00     0.091 A 
HETATM   10  C   UNL     1      43.419 -17.390   5.279  1.00  0.00     0.044 A 
HETATM   11 BR   UNL     1      43.807 -17.208   7.123  1.00  0.00    -0.048 Br
HETATM   12  C   UNL     1      44.164 -18.279   4.509  1.00  0.00     0.022 A 
HETATM   13  C   UNL     1      43.884 -18.419   3.149  1.00  0.00     0.002 A 
HETATM   14  C   UNL     1      42.857 -17.677   2.560  1.00  0.00     0.012 A 
BRANCH   9  15
HETATM   15  O   UNL     1      41.659 -15.737   5.413  1.00  0.00    -0.359 OA
HETATM   16  H   UNL     1      40.967 -16.261   5.876  1.00  0.00     0.218 HD
ENDBRANCH   9  15
ENDBRANCH   7   8
ENDBRANCH   3   7
BRANCH   1  17
HETATM   17  C   UNL     1      39.324 -11.807   0.981  1.00  0.00     0.127 C 
BRANCH  17  18
HETATM   18  N   UNL     1      39.264 -11.610  -0.462  1.00  0.00    -0.376 N 
HETATM   19  H   UNL     1      40.090 -11.112  -0.818  1.00  0.00     0.161 HD
BRANCH  18  20
HETATM   20  C   UNL     1      38.865 -12.564  -1.393  1.00  0.00     0.100 A 
HETATM   21  C   UNL     1      39.832 -13.418  -1.945  1.00  0.00     0.048 A 
HETATM   22  C   UNL     1      39.482 -14.343  -2.926  1.00  0.00     0.005 A 
HETATM   23  C   UNL     1      38.166 -14.409  -3.358  1.00  0.00     0.017 A 
HETATM   24  C   UNL     1      37.234 -13.550  -2.797  1.00  0.00     0.089 A 
HETATM   25  N   UNL     1      37.607 -12.665  -1.855  1.00  0.00    -0.353 N 
HETATM   26  H   UNL     1      36.889 -12.068  -1.463  1.00  0.00     0.166 HD
ENDBRANCH  18  20
ENDBRANCH  17  18
ENDBRANCH   1  17
TORSDOF 6
ENDMDL
MODEL 9
REMARK VINA RESULT:      -6.6      5.643      6.775
REMARK  6 active torsions:
REMARK  status: ('A' for Active; 'I' for Inactive)
REMARK    1  A    between atoms: C_3  and  N_4 
REMARK    2  A    between atoms: N_4  and  C_5 
REMARK    3  A    between atoms: C_5  and  C_6 
REMARK    4  A    between atoms: N_8  and  C_10 
REMARK    5  A    between atoms: C_10  and  C_11 
REMARK    6  A    between atoms: C_12  and  O_13 
ROOT
HETATM    1  C   UNL     1      41.943 -15.149   3.468  1.00  0.00     0.031 C 
HETATM    2  C   UNL     1      41.680 -15.714   2.075  1.00  0.00     0.241 C 
HETATM    3  N   UNL     1      41.455 -14.489   1.227  1.00  0.00    -0.067 N 
HETATM    4  H   UNL     1      41.947 -14.617   0.321  1.00  0.00     0.280 HD
HETATM    5  C   UNL     1      42.075 -13.306   1.936  1.00  0.00     0.235 C 
HETATM    6  C   UNL     1      42.779 -13.915   3.143  1.00  0.00     0.035 C 
ENDROOT
BRANCH   3   7
HETATM    7  C   UNL     1      40.021 -14.278   0.801  1.00  0.00     0.276 C 
BRANCH   7   8
HETATM    8  C   UNL     1      39.749 -12.894   0.282  1.00  0.00     0.002 A 
HETATM    9  C   UNL     1      40.261 -12.476  -0.953  1.00  0.00     0.091 A 
HETATM   10  C   UNL     1      39.965 -11.209  -1.464  1.00  0.00     0.044 A 
HETATM   11 BR   UNL     1      40.657 -10.656  -3.136  1.00  0.00    -0.048 Br
HETATM   12  C   UNL     1      39.157 -10.339  -0.737  1.00  0.00     0.022 A 
HETATM   13  C   UNL     1      38.642 -10.740   0.496  1.00  0.00     0.002 A 
HETATM   14  C   UNL     1      38.930 -12.010   1.002  1.00  0.00     0.012 A 
BRANCH   9  15
HETATM   15  O   UNL     1      41.074 -13.351  -1.633  1.00  0.00    -0.359 OA
HETATM   16  H   UNL     1      40.527 -14.148  -1.813  1.00  0.00     0.218 HD
ENDBRANCH   9  15
ENDBRANCH   7   8
ENDBRANCH   3   7
BRANCH   1  17
HETATM   17  C   UNL     1      42.648 -16.131   4.406  1.00  0.00     0.127 C 
BRANCH  17  18
HETATM   18  N   UNL     1      43.662 -16.886   3.682  1.00  0.00    -0.376 N 
HETATM   19  H   UNL     1      44.594 -16.460   3.768  1.00  0.00     0.161 HD
BRANCH  18  20
HETATM   20  C   UNL     1      43.789 -18.272   3.676  1.00  0.00     0.100 A 
HETATM   21  C   UNL     1      43.475 -18.975   2.503  1.00  0.00     0.048 A 
HETATM   22  C   UNL     1      43.530 -20.367   2.476  1.00  0.00     0.005 A 
HETATM   23  C   UNL     1      43.893 -21.055   3.625  1.00  0.00     0.017 A 
HETATM   24  C   UNL     1      44.193 -20.332   4.769  1.00  0.00     0.089 A 
HETATM   25  N   UNL     1      44.126 -18.989   4.761  1.00  0.00    -0.353 N 
HETATM   26  H   UNL     1      44.369 -18.502   5.617  1.00  0.00     0.166 HD
ENDBRANCH  18  20
ENDBRANCH  17  18
ENDBRANCH   1  17
TORSDOF 6
ENDMDL
MODEL 10
REMARK VINA RESULT:      -6.5      4.044      8.777
REMARK  6 active torsions:
REMARK  status: ('A' for Active; 'I' for Inactive)
REMARK    1  A    between atoms: C_3  and  N_4 
REMARK    2  A    between atoms: N_4  and  C_5 
REMARK    3  A    between atoms: C_5  and  C_6 
REMARK    4  A    between atoms: N_8  and  C_10 
REMARK    5  A    between atoms: C_10  and  C_11 
REMARK    6  A    between atoms: C_12  and  O_13 
ROOT
HETATM    1  C   UNL     1      42.128 -10.561   6.754  1.00  0.00     0.031 C 
HETATM    2  C   UNL     1      43.032 -11.791   6.761  1.00  0.00     0.241 C 
HETATM    3  N   UNL     1      42.721 -12.473   5.455  1.00  0.00    -0.067 N 
HETATM    4  H   UNL     1      43.611 -12.801   5.031  1.00  0.00     0.280 HD
HETATM    5  C   UNL     1      42.106 -11.451   4.525  1.00  0.00     0.235 C 
HETATM    6  C   UNL     1      42.203 -10.137   5.290  1.00  0.00     0.035 C 
ENDROOT
BRANCH   3   7
HETATM    7  C   UNL     1      41.925 -13.750   5.590  1.00  0.00     0.276 C 
BRANCH   7   8
HETATM    8  C   UNL     1      42.756 -14.992   5.436  1.00  0.00     0.002 A 
HETATM    9  C   UNL     1      42.631 -15.805   4.302  1.00  0.00     0.091 A 
HETATM   10  C   UNL     1      43.440 -16.932   4.131  1.00  0.00     0.044 A 
HETATM   11 BR   UNL     1      43.267 -18.020   2.592  1.00  0.00    -0.048 Br
HETATM   12  C   UNL     1      44.383 -17.264   5.100  1.00  0.00     0.022 A 
HETATM   13  C   UNL     1      44.517 -16.466   6.237  1.00  0.00     0.002 A 
HETATM   14  C   UNL     1      43.714 -15.334   6.403  1.00  0.00     0.012 A 
BRANCH   9  15
HETATM   15  O   UNL     1      41.675 -15.461   3.376  1.00  0.00    -0.359 OA
HETATM   16  H   UNL     1      40.931 -16.093   3.505  1.00  0.00     0.218 HD
ENDBRANCH   9  15
ENDBRANCH   7   8
ENDBRANCH   3   7
BRANCH   1  17
HETATM   17  C   UNL     1      42.570  -9.467   7.727  1.00  0.00     0.127 C 
BRANCH  17  18
HETATM   18  N   UNL     1      43.152 -10.057   8.925  1.00  0.00    -0.376 N 
HETATM   19  H   UNL     1      44.162 -10.220   8.823  1.00  0.00     0.161 HD
BRANCH  18  20
HETATM   20  C   UNL     1      42.880  -9.670  10.234  1.00  0.00     0.100 A 
HETATM   21  C   UNL     1      43.756  -8.780  10.874  1.00  0.00     0.048 A 
HETATM   22  C   UNL     1      43.551  -8.417  12.203  1.00  0.00     0.005 A 
HETATM   23  C   UNL     1      42.473  -8.950  12.894  1.00  0.00     0.017 A 
HETATM   24  C   UNL     1      41.627  -9.830  12.236  1.00  0.00     0.089 A 
HETATM   25  N   UNL     1      41.857 -10.162  10.953  1.00  0.00    -0.353 N 
HETATM   26  H   UNL     1      41.203 -10.797  10.509  1.00  0.00     0.166 HD
ENDBRANCH  18  20
ENDBRANCH  17  18
ENDBRANCH   1  17
TORSDOF 6
ENDMDL
