MODEL 1
REMARK VINA RESULT:     -10.0      0.000      0.000
REMARK  5 active torsions:
REMARK  status: ('A' for Active; 'I' for Inactive)
REMARK    1  A    between atoms: C_8  and  C_9 
REMARK    2  A    between atoms: N_10  and  N_11 
REMARK    3  A    between atoms: C_22  and  C_23 
REMARK       I    between atoms: C_23  and  N_24 
REMARK    4  A    between atoms: N_24  and  C_25 
REMARK    5  A    between atoms: C_33  and  N_34 
ROOT
HETATM    1  N   UNL     1      40.212 -14.197   2.039  1.00  0.00    -0.197 N 
HETATM    2  C   UNL     1      41.017 -15.178   2.600  1.00  0.00     0.183 A 
HETATM    3  C   UNL     1      41.059 -14.949   3.967  1.00  0.00     0.125 A 
HETATM    4  N   UNL     1      41.827 -15.706   4.797  1.00  0.00    -0.242 NA
HETATM    5  C   UNL     1      42.507 -16.690   4.182  1.00  0.00     0.086 A 
HETATM    6  C   UNL     1      42.445 -16.907   2.778  1.00  0.00     0.088 A 
HETATM    7  N   UNL     1      41.703 -16.150   1.954  1.00  0.00    -0.225 NA
HETATM    8  C   UNL     1      43.309 -17.518   4.956  1.00  0.00     0.034 A 
HETATM    9  C   UNL     1      44.054 -18.551   4.388  1.00  0.00     0.002 A 
HETATM   10  C   UNL     1      43.997 -18.762   3.018  1.00  0.00     0.002 A 
HETATM   11  C   UNL     1      43.193 -17.940   2.228  1.00  0.00     0.034 A 
HETATM   12  C   UNL     1      40.268 -13.810   4.261  1.00  0.00     0.110 C 
HETATM   13  C   UNL     1      39.668 -13.436   3.070  1.00  0.00     0.143 C 
ENDROOT
BRANCH   1  14
HETATM   14  N   UNL     1      40.010 -13.893   0.715  1.00  0.00    -0.176 NA
HETATM   15  C   UNL     1      40.865 -13.034   0.265  1.00  0.00     0.153 C 
BRANCH  15  16
HETATM   16  C   UNL     1      40.741 -12.531  -1.085  1.00  0.00     0.011 A 
HETATM   17  C   UNL     1      41.044 -11.204  -1.531  1.00  0.00     0.004 A 
HETATM   18  C   UNL     1      41.530 -10.039  -0.900  1.00  0.00     0.014 A 
HETATM   19  C   UNL     1      40.730 -11.138  -2.890  1.00  0.00     0.043 A 
HETATM   20  C   UNL     1      41.682  -8.862  -1.641  1.00  0.00     0.001 A 
HETATM   21  C   UNL     1      41.360  -8.831  -2.995  1.00  0.00     0.002 A 
HETATM   22  C   UNL     1      40.879  -9.971  -3.647  1.00  0.00     0.030 A 
HETATM   23  N   UNL     1      40.273 -12.384  -3.259  1.00  0.00    -0.364 N 
HETATM   24  H   UNL     1      39.968 -12.629  -4.191  1.00  0.00     0.165 HD
HETATM   25  C   UNL     1      40.263 -13.224  -2.180  1.00  0.00     0.102 A 
ENDBRANCH  15  16
ENDBRANCH   1  14
BRANCH  13  26
HETATM   26  N   UNL     1      38.811 -12.421   2.802  1.00  0.00    -0.383 N 
HETATM   27  H   UNL     1      37.822 -12.598   2.618  1.00  0.00     0.157 HD
HETATM   28  H   UNL     1      39.160 -11.508   2.515  1.00  0.00     0.157 HD
ENDBRANCH  13  26
BRANCH  12  29
HETATM   29  C   UNL     1      40.204 -13.067   5.512  1.00  0.00     0.262 C 
HETATM   30  N   UNL     1      41.200 -13.435   6.405  1.00  0.00    -0.323 N 
HETATM   31  H   UNL     1      41.403 -14.434   6.403  1.00  0.00     0.169 HD
HETATM   32  O   UNL     1      39.436 -12.128   5.699  1.00  0.00    -0.267 OA
BRANCH  30  33
HETATM   33  C   UNL     1      42.389 -12.660   6.482  1.00  0.00     0.035 A 
HETATM   34  C   UNL     1      43.664 -13.234   6.539  1.00  0.00     0.031 A 
HETATM   35  C   UNL     1      44.785 -12.433   6.778  1.00  0.00     0.026 A 
HETATM   36  C   UNL     1      44.635 -11.058   6.943  1.00  0.00     0.034 A 
HETATM   37 CL   UNL     1      46.009 -10.080   7.278  1.00  0.00    -0.084 Cl
HETATM   38  C   UNL     1      43.374 -10.473   6.851  1.00  0.00     0.026 A 
HETATM   39  C   UNL     1      42.252 -11.273   6.618  1.00  0.00     0.031 A 
ENDBRANCH  30  33
ENDBRANCH  12  29
TORSDOF 5
ENDMDL
MODEL 2
REMARK VINA RESULT:      -9.9      3.154      8.087
REMARK  5 active torsions:
REMARK  status: ('A' for Active; 'I' for Inactive)
REMARK    1  A    between atoms: C_8  and  C_9 
REMARK    2  A    between atoms: N_10  and  N_11 
REMARK    3  A    between atoms: C_22  and  C_23 
REMARK       I    between atoms: C_23  and  N_24 
REMARK    4  A    between atoms: N_24  and  C_25 
REMARK    5  A    between atoms: C_33  and  N_34 
ROOT
HETATM    1  N   UNL     1      40.910 -14.498   4.084  1.00  0.00    -0.197 N 
HETATM    2  C   UNL     1      41.494 -13.495   4.843  1.00  0.00     0.183 A 
HETATM    3  C   UNL     1      40.951 -12.290   4.427  1.00  0.00     0.125 A 
HETATM    4  N   UNL     1      41.371 -11.099   4.937  1.00  0.00    -0.242 NA
HETATM    5  C   UNL     1      42.325 -11.205   5.879  1.00  0.00     0.086 A 
HETATM    6  C   UNL     1      42.865 -12.454   6.291  1.00  0.00     0.088 A 
HETATM    7  N   UNL     1      42.466 -13.627   5.777  1.00  0.00    -0.225 NA
HETATM    8  C   UNL     1      42.806 -10.039   6.460  1.00  0.00     0.034 A 
HETATM    9  C   UNL     1      43.804 -10.067   7.434  1.00  0.00     0.002 A 
HETATM   10  C   UNL     1      44.334 -11.285   7.835  1.00  0.00     0.002 A 
HETATM   11  C   UNL     1      43.859 -12.464   7.262  1.00  0.00     0.034 A 
HETATM   12  C   UNL     1      40.014 -12.546   3.394  1.00  0.00     0.110 C 
HETATM   13  C   UNL     1      39.927 -13.925   3.283  1.00  0.00     0.143 C 
ENDROOT
BRANCH   1  14
HETATM   14  N   UNL     1      41.246 -15.828   3.997  1.00  0.00    -0.176 NA
HETATM   15  C   UNL     1      42.426 -16.012   3.502  1.00  0.00     0.153 C 
BRANCH  15  16
HETATM   16  C   UNL     1      42.902 -17.355   3.253  1.00  0.00     0.011 A 
HETATM   17  C   UNL     1      43.237 -18.336   4.241  1.00  0.00     0.004 A 
HETATM   18  C   UNL     1      43.217 -18.361   5.652  1.00  0.00     0.014 A 
HETATM   19  C   UNL     1      43.701 -19.467   3.566  1.00  0.00     0.043 A 
HETATM   20  C   UNL     1      43.658 -19.502   6.331  1.00  0.00     0.001 A 
HETATM   21  C   UNL     1      44.114 -20.613   5.626  1.00  0.00     0.002 A 
HETATM   22  C   UNL     1      44.143 -20.618   4.228  1.00  0.00     0.030 A 
HETATM   23  N   UNL     1      43.632 -19.189   2.218  1.00  0.00    -0.364 N 
HETATM   24  H   UNL     1      43.910 -19.829   1.487  1.00  0.00     0.165 HD
HETATM   25  C   UNL     1      43.165 -17.919   2.020  1.00  0.00     0.102 A 
ENDBRANCH  15  16
ENDBRANCH   1  14
BRANCH  13  26
HETATM   26  N   UNL     1      39.173 -14.690   2.458  1.00  0.00    -0.383 N 
HETATM   27  H   UNL     1      38.298 -15.108   2.777  1.00  0.00     0.157 HD
HETATM   28  H   UNL     1      39.571 -15.087   1.608  1.00  0.00     0.157 HD
ENDBRANCH  13  26
BRANCH  12  29
HETATM   29  C   UNL     1      39.377 -11.582   2.508  1.00  0.00     0.262 C 
HETATM   30  N   UNL     1      40.083 -11.389   1.329  1.00  0.00    -0.323 N 
HETATM   31  H   UNL     1      41.095 -11.392   1.454  1.00  0.00     0.169 HD
HETATM   32  O   UNL     1      38.269 -11.098   2.724  1.00  0.00    -0.267 OA
BRANCH  30  33
HETATM   33  C   UNL     1      39.699 -12.101   0.160  1.00  0.00     0.035 A 
HETATM   34  C   UNL     1      38.448 -11.938  -0.447  1.00  0.00     0.031 A 
HETATM   35  C   UNL     1      38.062 -12.780  -1.495  1.00  0.00     0.026 A 
HETATM   36  C   UNL     1      38.930 -13.770  -1.947  1.00  0.00     0.034 A 
HETATM   37 CL   UNL     1      38.437 -14.831  -3.207  1.00  0.00    -0.084 Cl
HETATM   38  C   UNL     1      40.192 -13.915  -1.374  1.00  0.00     0.026 A 
HETATM   39  C   UNL     1      40.577 -13.079  -0.322  1.00  0.00     0.031 A 
ENDBRANCH  30  33
ENDBRANCH  12  29
TORSDOF 5
ENDMDL
MODEL 3
REMARK VINA RESULT:      -9.8      3.066      7.066
REMARK  5 active torsions:
REMARK  status: ('A' for Active; 'I' for Inactive)
REMARK    1  A    between atoms: C_8  and  C_9 
REMARK    2  A    between atoms: N_10  and  N_11 
REMARK    3  A    between atoms: C_22  and  C_23 
REMARK       I    between atoms: C_23  and  N_24 
REMARK    4  A    between atoms: N_24  and  C_25 
REMARK    5  A    between atoms: C_33  and  N_34 
ROOT
HETATM    1  N   UNL     1      42.041 -13.020   1.796  1.00  0.00    -0.197 N 
HETATM    2  C   UNL     1      41.083 -13.077   0.794  1.00  0.00     0.183 A 
HETATM    3  C   UNL     1      40.407 -11.867   0.797  1.00  0.00     0.125 A 
HETATM    4  N   UNL     1      39.353 -11.633  -0.033  1.00  0.00    -0.242 NA
HETATM    5  C   UNL     1      39.055 -12.656  -0.852  1.00  0.00     0.086 A 
HETATM    6  C   UNL     1      39.765 -13.887  -0.839  1.00  0.00     0.088 A 
HETATM    7  N   UNL     1      40.793 -14.127  -0.009  1.00  0.00    -0.225 NA
HETATM    8  C   UNL     1      37.998 -12.498  -1.740  1.00  0.00     0.034 A 
HETATM    9  C   UNL     1      37.620 -13.519  -2.613  1.00  0.00     0.002 A 
HETATM   10  C   UNL     1      38.311 -14.722  -2.598  1.00  0.00     0.002 A 
HETATM   11  C   UNL     1      39.376 -14.893  -1.714  1.00  0.00     0.034 A 
HETATM   12  C   UNL     1      40.952 -11.044   1.816  1.00  0.00     0.110 C 
HETATM   13  C   UNL     1      42.031 -11.738   2.339  1.00  0.00     0.143 C 
ENDROOT
BRANCH   1  14
HETATM   14  N   UNL     1      42.831 -14.025   2.300  1.00  0.00    -0.176 NA
HETATM   15  C   UNL     1      42.222 -14.737   3.192  1.00  0.00     0.153 C 
BRANCH  15  16
HETATM   16  C   UNL     1      42.938 -15.780   3.894  1.00  0.00     0.011 A 
HETATM   17  C   UNL     1      43.164 -17.117   3.432  1.00  0.00     0.004 A 
HETATM   18  C   UNL     1      42.827 -17.824   2.258  1.00  0.00     0.014 A 
HETATM   19  C   UNL     1      43.847 -17.797   4.441  1.00  0.00     0.043 A 
HETATM   20  C   UNL     1      43.179 -19.172   2.138  1.00  0.00     0.001 A 
HETATM   21  C   UNL     1      43.861 -19.821   3.164  1.00  0.00     0.002 A 
HETATM   22  C   UNL     1      44.210 -19.144   4.337  1.00  0.00     0.030 A 
HETATM   23  N   UNL     1      44.045 -16.901   5.469  1.00  0.00    -0.364 N 
HETATM   24  H   UNL     1      44.513 -17.121   6.338  1.00  0.00     0.165 HD
HETATM   25  C   UNL     1      43.491 -15.690   5.156  1.00  0.00     0.102 A 
ENDBRANCH  15  16
ENDBRANCH   1  14
BRANCH  13  26
HETATM   26  N   UNL     1      42.897 -11.396   3.323  1.00  0.00    -0.383 N 
HETATM   27  H   UNL     1      43.614 -10.685   3.173  1.00  0.00     0.157 HD
HETATM   28  H   UNL     1      43.036 -12.006   4.128  1.00  0.00     0.157 HD
ENDBRANCH  13  26
BRANCH  12  29
HETATM   29  C   UNL     1      40.414  -9.795   2.335  1.00  0.00     0.262 C 
HETATM   30  N   UNL     1      39.260  -9.977   3.084  1.00  0.00    -0.323 N 
HETATM   31  H   UNL     1      38.640 -10.695   2.710  1.00  0.00     0.169 HD
HETATM   32  O   UNL     1      40.995  -8.718   2.234  1.00  0.00    -0.267 OA
BRANCH  30  33
HETATM   33  C   UNL     1      39.351 -10.051   4.501  1.00  0.00     0.035 A 
HETATM   34  C   UNL     1      39.431 -11.266   5.191  1.00  0.00     0.031 A 
HETATM   35  C   UNL     1      39.353 -11.286   6.588  1.00  0.00     0.026 A 
HETATM   36  C   UNL     1      39.215 -10.094   7.293  1.00  0.00     0.034 A 
HETATM   37 CL   UNL     1      39.078 -10.124   9.007  1.00  0.00    -0.084 Cl
HETATM   38  C   UNL     1      39.173  -8.877   6.616  1.00  0.00     0.026 A 
HETATM   39  C   UNL     1      39.244  -8.856   5.221  1.00  0.00     0.031 A 
ENDBRANCH  30  33
ENDBRANCH  12  29
TORSDOF 5
ENDMDL
MODEL 4
REMARK VINA RESULT:      -9.8      4.190      7.336
REMARK  5 active torsions:
REMARK  status: ('A' for Active; 'I' for Inactive)
REMARK    1  A    between atoms: C_8  and  C_9 
REMARK    2  A    between atoms: N_10  and  N_11 
REMARK    3  A    between atoms: C_22  and  C_23 
REMARK       I    between atoms: C_23  and  N_24 
REMARK    4  A    between atoms: N_24  and  C_25 
REMARK    5  A    between atoms: C_33  and  N_34 
ROOT
HETATM    1  N   UNL     1      41.677 -12.637   5.362  1.00  0.00    -0.197 N 
HETATM    2  C   UNL     1      42.525 -11.833   6.109  1.00  0.00     0.183 A 
HETATM    3  C   UNL     1      41.732 -10.974   6.853  1.00  0.00     0.125 A 
HETATM    4  N   UNL     1      42.271 -10.006   7.646  1.00  0.00    -0.242 NA
HETATM    5  C   UNL     1      43.615  -9.982   7.655  1.00  0.00     0.086 A 
HETATM    6  C   UNL     1      44.407 -10.877   6.885  1.00  0.00     0.088 A 
HETATM    7  N   UNL     1      43.878 -11.819   6.089  1.00  0.00    -0.225 NA
HETATM    8  C   UNL     1      44.249  -9.032   8.445  1.00  0.00     0.034 A 
HETATM    9  C   UNL     1      45.640  -8.936   8.496  1.00  0.00     0.002 A 
HETATM   10  C   UNL     1      46.414  -9.807   7.742  1.00  0.00     0.002 A 
HETATM   11  C   UNL     1      45.791 -10.768   6.947  1.00  0.00     0.034 A 
HETATM   12  C   UNL     1      40.371 -11.247   6.566  1.00  0.00     0.110 C 
HETATM   13  C   UNL     1      40.365 -12.352   5.730  1.00  0.00     0.143 C 
ENDROOT
BRANCH   1  14
HETATM   14  N   UNL     1      41.982 -13.512   4.347  1.00  0.00    -0.176 NA
HETATM   15  C   UNL     1      42.272 -14.696   4.780  1.00  0.00     0.153 C 
BRANCH  15  16
HETATM   16  C   UNL     1      42.707 -15.717   3.853  1.00  0.00     0.011 A 
HETATM   17  C   UNL     1      43.168 -17.031   4.188  1.00  0.00     0.004 A 
HETATM   18  C   UNL     1      43.335 -17.738   5.398  1.00  0.00     0.014 A 
HETATM   19  C   UNL     1      43.535 -17.660   2.997  1.00  0.00     0.043 A 
HETATM   20  C   UNL     1      43.859 -19.035   5.375  1.00  0.00     0.001 A 
HETATM   21  C   UNL     1      44.215 -19.634   4.170  1.00  0.00     0.002 A 
HETATM   22  C   UNL     1      44.058 -18.958   2.955  1.00  0.00     0.030 A 
HETATM   23  N   UNL     1      43.289 -16.769   1.977  1.00  0.00    -0.364 N 
HETATM   24  H   UNL     1      43.465 -16.955   0.999  1.00  0.00     0.165 HD
HETATM   25  C   UNL     1      42.803 -15.594   2.481  1.00  0.00     0.102 A 
ENDBRANCH  15  16
ENDBRANCH   1  14
BRANCH  13  26
HETATM   26  N   UNL     1      39.329 -13.022   5.172  1.00  0.00    -0.383 N 
HETATM   27  H   UNL     1      39.009 -13.914   5.554  1.00  0.00     0.157 HD
HETATM   28  H   UNL     1      39.018 -12.806   4.226  1.00  0.00     0.157 HD
ENDBRANCH  13  26
BRANCH  12  29
HETATM   29  C   UNL     1      39.206 -10.453   6.929  1.00  0.00     0.262 C 
HETATM   30  N   UNL     1      39.002 -10.397   8.301  1.00  0.00    -0.323 N 
HETATM   31  H   UNL     1      39.204 -11.273   8.780  1.00  0.00     0.169 HD
HETATM   32  O   UNL     1      38.558  -9.797   6.119  1.00  0.00    -0.267 OA
BRANCH  30  33
HETATM   33  C   UNL     1      39.482  -9.277   9.033  1.00  0.00     0.035 A 
HETATM   34  C   UNL     1      39.530  -7.986   8.495  1.00  0.00     0.031 A 
HETATM   35  C   UNL     1      40.161  -6.955   9.199  1.00  0.00     0.026 A 
HETATM   36  C   UNL     1      40.729  -7.210  10.444  1.00  0.00     0.034 A 
HETATM   37 CL   UNL     1      41.542  -5.952  11.289  1.00  0.00    -0.084 Cl
HETATM   38  C   UNL     1      40.654  -8.483  11.004  1.00  0.00     0.026 A 
HETATM   39  C   UNL     1      40.029  -9.516  10.300  1.00  0.00     0.031 A 
ENDBRANCH  30  33
ENDBRANCH  12  29
TORSDOF 5
ENDMDL
MODEL 5
REMARK VINA RESULT:      -9.6      3.298      8.002
REMARK  5 active torsions:
REMARK  status: ('A' for Active; 'I' for Inactive)
REMARK    1  A    between atoms: C_8  and  C_9 
REMARK    2  A    between atoms: N_10  and  N_11 
REMARK    3  A    between atoms: C_22  and  C_23 
REMARK       I    between atoms: C_23  and  N_24 
REMARK    4  A    between atoms: N_24  and  C_25 
REMARK    5  A    between atoms: C_33  and  N_34 
ROOT
HETATM    1  N   UNL     1      42.109 -13.141   5.625  1.00  0.00    -0.197 N 
HETATM    2  C   UNL     1      42.677 -12.100   6.344  1.00  0.00     0.183 A 
HETATM    3  C   UNL     1      41.786 -11.039   6.311  1.00  0.00     0.125 A 
HETATM    4  N   UNL     1      42.084  -9.835   6.874  1.00  0.00    -0.242 NA
HETATM    5  C   UNL     1      43.288  -9.785   7.471  1.00  0.00     0.086 A 
HETATM    6  C   UNL     1      44.184 -10.888   7.493  1.00  0.00     0.088 A 
HETATM    7  N   UNL     1      43.900 -12.070   6.923  1.00  0.00    -0.225 NA
HETATM    8  C   UNL     1      43.670  -8.596   8.079  1.00  0.00     0.034 A 
HETATM    9  C   UNL     1      44.908  -8.462   8.707  1.00  0.00     0.002 A 
HETATM   10  C   UNL     1      45.785  -9.538   8.726  1.00  0.00     0.002 A 
HETATM   11  C   UNL     1      45.414 -10.739   8.121  1.00  0.00     0.034 A 
HETATM   12  C   UNL     1      40.646 -11.425   5.563  1.00  0.00     0.110 C 
HETATM   13  C   UNL     1      40.823 -12.763   5.248  1.00  0.00     0.143 C 
ENDROOT
BRANCH   1  14
HETATM   14  N   UNL     1      42.674 -14.328   5.221  1.00  0.00    -0.176 NA
HETATM   15  C   UNL     1      42.365 -15.315   5.997  1.00  0.00     0.153 C 
BRANCH  15  16
HETATM   16  C   UNL     1      42.950 -16.619   5.772  1.00  0.00     0.011 A 
HETATM   17  C   UNL     1      43.117 -17.270   4.508  1.00  0.00     0.004 A 
HETATM   18  C   UNL     1      42.824 -16.921   3.172  1.00  0.00     0.014 A 
HETATM   19  C   UNL     1      43.671 -18.527   4.756  1.00  0.00     0.043 A 
HETATM   20  C   UNL     1      43.089 -17.831   2.144  1.00  0.00     0.001 A 
HETATM   21  C   UNL     1      43.642 -19.077   2.427  1.00  0.00     0.002 A 
HETATM   22  C   UNL     1      43.946 -19.450   3.740  1.00  0.00     0.030 A 
HETATM   23  N   UNL     1      43.850 -18.627   6.118  1.00  0.00    -0.364 N 
HETATM   24  H   UNL     1      44.233 -19.437   6.587  1.00  0.00     0.165 HD
HETATM   25  C   UNL     1      43.409 -17.491   6.739  1.00  0.00     0.102 A 
ENDBRANCH  15  16
ENDBRANCH   1  14
BRANCH  13  26
HETATM   26  N   UNL     1      40.026 -13.613   4.557  1.00  0.00    -0.383 N 
HETATM   27  H   UNL     1      40.406 -14.225   3.834  1.00  0.00     0.157 HD
HETATM   28  H   UNL     1      39.016 -13.483   4.544  1.00  0.00     0.157 HD
ENDBRANCH  13  26
BRANCH  12  29
HETATM   29  C   UNL     1      39.570 -10.575   5.073  1.00  0.00     0.262 C 
HETATM   30  N   UNL     1      39.902  -9.914   3.898  1.00  0.00    -0.323 N 
HETATM   31  H   UNL     1      40.870  -9.598   3.867  1.00  0.00     0.169 HD
HETATM   32  O   UNL     1      38.449 -10.552   5.572  1.00  0.00    -0.267 OA
BRANCH  30  33
HETATM   33  C   UNL     1      39.488 -10.456   2.651  1.00  0.00     0.035 A 
HETATM   34  C   UNL     1      38.143 -10.544   2.274  1.00  0.00     0.031 A 
HETATM   35  C   UNL     1      37.783 -11.233   1.111  1.00  0.00     0.026 A 
HETATM   36  C   UNL     1      38.767 -11.817   0.318  1.00  0.00     0.034 A 
HETATM   37 CL   UNL     1      38.321 -12.699  -1.089  1.00  0.00    -0.084 Cl
HETATM   38  C   UNL     1      40.111 -11.702   0.665  1.00  0.00     0.026 A 
HETATM   39  C   UNL     1      40.472 -11.019   1.830  1.00  0.00     0.031 A 
ENDBRANCH  30  33
ENDBRANCH  12  29
TORSDOF 5
ENDMDL
MODEL 6
REMARK VINA RESULT:      -9.6      3.317      8.249
REMARK  5 active torsions:
REMARK  status: ('A' for Active; 'I' for Inactive)
REMARK    1  A    between atoms: C_8  and  C_9 
REMARK    2  A    between atoms: N_10  and  N_11 
REMARK    3  A    between atoms: C_22  and  C_23 
REMARK       I    between atoms: C_23  and  N_24 
REMARK    4  A    between atoms: N_24  and  C_25 
REMARK    5  A    between atoms: C_33  and  N_34 
ROOT
HETATM    1  N   UNL     1      40.409 -13.009   4.489  1.00  0.00    -0.197 N 
HETATM    2  C   UNL     1      40.699 -11.764   5.028  1.00  0.00     0.183 A 
HETATM    3  C   UNL     1      40.029 -10.817   4.270  1.00  0.00     0.125 A 
HETATM    4  N   UNL     1      40.165  -9.483   4.506  1.00  0.00    -0.242 NA
HETATM    5  C   UNL     1      40.974  -9.181   5.536  1.00  0.00     0.086 A 
HETATM    6  C   UNL     1      41.649 -10.171   6.301  1.00  0.00     0.088 A 
HETATM    7  N   UNL     1      41.531 -11.486   6.060  1.00  0.00    -0.225 NA
HETATM    8  C   UNL     1      41.163  -7.842   5.852  1.00  0.00     0.034 A 
HETATM    9  C   UNL     1      41.997  -7.450   6.899  1.00  0.00     0.002 A 
HETATM   10  C   UNL     1      42.659  -8.416   7.645  1.00  0.00     0.002 A 
HETATM   11  C   UNL     1      42.477  -9.764   7.340  1.00  0.00     0.034 A 
HETATM   12  C   UNL     1      39.310 -11.481   3.244  1.00  0.00     0.110 C 
HETATM   13  C   UNL     1      39.472 -12.838   3.473  1.00  0.00     0.143 C 
ENDROOT
BRANCH   1  14
HETATM   14  N   UNL     1      40.971 -14.230   4.773  1.00  0.00    -0.176 NA
HETATM   15  C   UNL     1      42.263 -14.200   4.754  1.00  0.00     0.153 C 
BRANCH  15  16
HETATM   16  C   UNL     1      43.016 -15.421   4.939  1.00  0.00     0.011 A 
HETATM   17  C   UNL     1      43.103 -16.516   4.020  1.00  0.00     0.004 A 
HETATM   18  C   UNL     1      42.564 -16.775   2.742  1.00  0.00     0.014 A 
HETATM   19  C   UNL     1      43.887 -17.503   4.620  1.00  0.00     0.043 A 
HETATM   20  C   UNL     1      42.823 -17.999   2.116  1.00  0.00     0.001 A 
HETATM   21  C   UNL     1      43.610 -18.962   2.743  1.00  0.00     0.002 A 
HETATM   22  C   UNL     1      44.160 -18.732   4.008  1.00  0.00     0.030 A 
HETATM   23  N   UNL     1      44.277 -17.017   5.849  1.00  0.00    -0.364 N 
HETATM   24  H   UNL     1      44.853 -17.524   6.507  1.00  0.00     0.165 HD
HETATM   25  C   UNL     1      43.749 -15.773   6.055  1.00  0.00     0.102 A 
ENDBRANCH  15  16
ENDBRANCH   1  14
BRANCH  13  26
HETATM   26  N   UNL     1      38.986 -13.905   2.795  1.00  0.00    -0.383 N 
HETATM   27  H   UNL     1      39.217 -14.058   1.812  1.00  0.00     0.157 HD
HETATM   28  H   UNL     1      38.184 -14.425   3.149  1.00  0.00     0.157 HD
ENDBRANCH  13  26
BRANCH  12  29
HETATM   29  C   UNL     1      38.659 -10.889   2.084  1.00  0.00     0.262 C 
HETATM   30  N   UNL     1      39.471 -10.882   0.959  1.00  0.00    -0.323 N 
HETATM   31  H   UNL     1      40.450 -10.684   1.163  1.00  0.00     0.169 HD
HETATM   32  O   UNL     1      37.476 -10.559   2.071  1.00  0.00    -0.267 OA
BRANCH  30  33
HETATM   33  C   UNL     1      39.336 -11.916  -0.006  1.00  0.00     0.035 A 
HETATM   34  C   UNL     1      38.216 -12.035  -0.836  1.00  0.00     0.031 A 
HETATM   35  C   UNL     1      38.062 -13.162  -1.651  1.00  0.00     0.026 A 
HETATM   36  C   UNL     1      39.034 -14.158  -1.649  1.00  0.00     0.034 A 
HETATM   37 CL   UNL     1      38.823 -15.562  -2.620  1.00  0.00    -0.084 Cl
HETATM   38  C   UNL     1      40.171 -14.031  -0.855  1.00  0.00     0.026 A 
HETATM   39  C   UNL     1      40.323 -12.909  -0.036  1.00  0.00     0.031 A 
ENDBRANCH  30  33
ENDBRANCH  12  29
TORSDOF 5
ENDMDL
MODEL 7
REMARK VINA RESULT:      -9.5      4.047      7.593
REMARK  5 active torsions:
REMARK  status: ('A' for Active; 'I' for Inactive)
REMARK    1  A    between atoms: C_8  and  C_9 
REMARK    2  A    between atoms: N_10  and  N_11 
REMARK    3  A    between atoms: C_22  and  C_23 
REMARK       I    between atoms: C_23  and  N_24 
REMARK    4  A    between atoms: N_24  and  C_25 
REMARK    5  A    between atoms: C_33  and  N_34 
ROOT
HETATM    1  N   UNL     1      41.783 -12.723   5.253  1.00  0.00    -0.197 N 
HETATM    2  C   UNL     1      42.602 -11.904   6.017  1.00  0.00     0.183 A 
HETATM    3  C   UNL     1      41.783 -11.016   6.696  1.00  0.00     0.125 A 
HETATM    4  N   UNL     1      42.293 -10.030   7.485  1.00  0.00    -0.242 NA
HETATM    5  C   UNL     1      43.635 -10.017   7.559  1.00  0.00     0.086 A 
HETATM    6  C   UNL     1      44.454 -10.941   6.855  1.00  0.00     0.088 A 
HETATM    7  N   UNL     1      43.955 -11.903   6.062  1.00  0.00    -0.225 NA
HETATM    8  C   UNL     1      44.240  -9.049   8.350  1.00  0.00     0.034 A 
HETATM    9  C   UNL     1      45.628  -8.964   8.466  1.00  0.00     0.002 A 
HETATM   10  C   UNL     1      46.428  -9.864   7.777  1.00  0.00     0.002 A 
HETATM   11  C   UNL     1      45.834 -10.843   6.981  1.00  0.00     0.034 A 
HETATM   12  C   UNL     1      40.435 -11.285   6.350  1.00  0.00     0.110 C 
HETATM   13  C   UNL     1      40.458 -12.415   5.548  1.00  0.00     0.143 C 
ENDROOT
BRANCH   1  14
HETATM   14  N   UNL     1      42.128 -13.631   4.281  1.00  0.00    -0.176 NA
HETATM   15  C   UNL     1      42.270 -14.829   4.746  1.00  0.00     0.153 C 
BRANCH  15  16
HETATM   16  C   UNL     1      42.722 -15.892   3.876  1.00  0.00     0.011 A 
HETATM   17  C   UNL     1      43.177 -17.189   4.281  1.00  0.00     0.004 A 
HETATM   18  C   UNL     1      43.321 -17.838   5.526  1.00  0.00     0.014 A 
HETATM   19  C   UNL     1      43.566 -17.873   3.128  1.00  0.00     0.043 A 
HETATM   20  C   UNL     1      43.846 -19.134   5.573  1.00  0.00     0.001 A 
HETATM   21  C   UNL     1      44.224 -19.788   4.404  1.00  0.00     0.002 A 
HETATM   22  C   UNL     1      44.089 -19.171   3.157  1.00  0.00     0.030 A 
HETATM   23  N   UNL     1      43.338 -17.031   2.062  1.00  0.00    -0.364 N 
HETATM   24  H   UNL     1      43.532 -17.263   1.098  1.00  0.00     0.165 HD
HETATM   25  C   UNL     1      42.843 -15.834   2.502  1.00  0.00     0.102 A 
ENDBRANCH  15  16
ENDBRANCH   1  14
BRANCH  13  26
HETATM   26  N   UNL     1      39.443 -13.093   4.961  1.00  0.00    -0.383 N 
HETATM   27  H   UNL     1      38.518 -12.675   4.856  1.00  0.00     0.157 HD
HETATM   28  H   UNL     1      39.488 -14.106   4.853  1.00  0.00     0.157 HD
ENDBRANCH  13  26
BRANCH  12  29
HETATM   29  C   UNL     1      39.261 -10.471   6.633  1.00  0.00     0.262 C 
HETATM   30  N   UNL     1      39.546  -9.113   6.664  1.00  0.00    -0.323 N 
HETATM   31  H   UNL     1      40.446  -8.894   7.089  1.00  0.00     0.169 HD
HETATM   32  O   UNL     1      38.124 -10.928   6.701  1.00  0.00    -0.267 OA
BRANCH  30  33
HETATM   33  C   UNL     1      39.308  -8.323   5.506  1.00  0.00     0.035 A 
HETATM   34  C   UNL     1      38.024  -7.944   5.100  1.00  0.00     0.031 A 
HETATM   35  C   UNL     1      37.836  -7.308   3.868  1.00  0.00     0.026 A 
HETATM   36  C   UNL     1      38.932  -7.035   3.053  1.00  0.00     0.034 A 
HETATM   37 CL   UNL     1      38.695  -6.291   1.521  1.00  0.00    -0.084 Cl
HETATM   38  C   UNL     1      40.218  -7.375   3.467  1.00  0.00     0.026 A 
HETATM   39  C   UNL     1      40.406  -8.016   4.694  1.00  0.00     0.031 A 
ENDBRANCH  30  33
ENDBRANCH  12  29
TORSDOF 5
ENDMDL
MODEL 8
REMARK VINA RESULT:      -9.5      3.728      8.579
REMARK  5 active torsions:
REMARK  status: ('A' for Active; 'I' for Inactive)
REMARK    1  A    between atoms: C_8  and  C_9 
REMARK    2  A    between atoms: N_10  and  N_11 
REMARK    3  A    between atoms: C_22  and  C_23 
REMARK       I    between atoms: C_23  and  N_24 
REMARK    4  A    between atoms: N_24  and  C_25 
REMARK    5  A    between atoms: C_33  and  N_34 
ROOT
HETATM    1  N   UNL     1      40.635 -14.301   2.850  1.00  0.00    -0.197 N 
HETATM    2  C   UNL     1      40.708 -12.966   3.219  1.00  0.00     0.183 A 
HETATM    3  C   UNL     1      40.275 -12.213   2.139  1.00  0.00     0.125 A 
HETATM    4  N   UNL     1      40.292 -10.851   2.161  1.00  0.00    -0.242 NA
HETATM    5  C   UNL     1      40.736 -10.321   3.314  1.00  0.00     0.086 A 
HETATM    6  C   UNL     1      41.172 -11.115   4.410  1.00  0.00     0.088 A 
HETATM    7  N   UNL     1      41.174 -12.457   4.384  1.00  0.00    -0.225 NA
HETATM    8  C   UNL     1      40.778  -8.937   3.427  1.00  0.00     0.034 A 
HETATM    9  C   UNL     1      41.239  -8.313   4.587  1.00  0.00     0.002 A 
HETATM   10  C   UNL     1      41.667  -9.088   5.656  1.00  0.00     0.002 A 
HETATM   11  C   UNL     1      41.628 -10.479   5.557  1.00  0.00     0.034 A 
HETATM   12  C   UNL     1      39.927 -13.091   1.082  1.00  0.00     0.110 C 
HETATM   13  C   UNL     1      40.051 -14.375   1.588  1.00  0.00     0.143 C 
ENDROOT
BRANCH   1  14
HETATM   14  N   UNL     1      41.118 -15.410   3.502  1.00  0.00    -0.176 NA
HETATM   15  C   UNL     1      42.410 -15.446   3.531  1.00  0.00     0.153 C 
BRANCH  15  16
HETATM   16  C   UNL     1      43.087 -16.592   4.097  1.00  0.00     0.011 A 
HETATM   17  C   UNL     1      43.238 -17.880   3.487  1.00  0.00     0.004 A 
HETATM   18  C   UNL     1      42.844 -18.437   2.252  1.00  0.00     0.014 A 
HETATM   19  C   UNL     1      43.906 -18.698   4.400  1.00  0.00     0.043 A 
HETATM   20  C   UNL     1      43.126 -19.780   1.978  1.00  0.00     0.001 A 
HETATM   21  C   UNL     1      43.795 -20.568   2.910  1.00  0.00     0.002 A 
HETATM   22  C   UNL     1      44.201 -20.041   4.140  1.00  0.00     0.030 A 
HETATM   23  N   UNL     1      44.168 -17.930   5.514  1.00  0.00    -0.364 N 
HETATM   24  H   UNL     1      44.642 -18.266   6.341  1.00  0.00     0.165 HD
HETATM   25  C   UNL     1      43.669 -16.668   5.347  1.00  0.00     0.102 A 
ENDBRANCH  15  16
ENDBRANCH   1  14
BRANCH  13  26
HETATM   26  N   UNL     1      39.829 -15.574   0.998  1.00  0.00    -0.383 N 
HETATM   27  H   UNL     1      40.399 -15.892   0.213  1.00  0.00     0.157 HD
HETATM   28  H   UNL     1      38.946 -16.064   1.133  1.00  0.00     0.157 HD
ENDBRANCH  13  26
BRANCH  12  29
HETATM   29  C   UNL     1      39.646 -12.751  -0.306  1.00  0.00     0.262 C 
HETATM   30  N   UNL     1      38.294 -12.811  -0.610  1.00  0.00    -0.323 N 
HETATM   31  H   UNL     1      37.807 -13.583  -0.155  1.00  0.00     0.169 HD
HETATM   32  O   UNL     1      40.499 -12.327  -1.081  1.00  0.00    -0.267 OA
BRANCH  30  33
HETATM   33  C   UNL     1      37.519 -11.620  -0.590  1.00  0.00     0.035 A 
HETATM   34  C   UNL     1      37.005 -11.072   0.591  1.00  0.00     0.031 A 
HETATM   35  C   UNL     1      36.117  -9.993   0.536  1.00  0.00     0.026 A 
HETATM   36  C   UNL     1      35.757  -9.452  -0.696  1.00  0.00     0.034 A 
HETATM   37 CL   UNL     1      34.632  -8.153  -0.764  1.00  0.00    -0.084 Cl
HETATM   38  C   UNL     1      36.293  -9.967  -1.874  1.00  0.00     0.026 A 
HETATM   39  C   UNL     1      37.176 -11.048  -1.821  1.00  0.00     0.031 A 
ENDBRANCH  30  33
ENDBRANCH  12  29
TORSDOF 5
ENDMDL
MODEL 9
REMARK VINA RESULT:      -9.5      4.721      8.051
REMARK  5 active torsions:
REMARK  status: ('A' for Active; 'I' for Inactive)
REMARK    1  A    between atoms: C_8  and  C_9 
REMARK    2  A    between atoms: N_10  and  N_11 
REMARK    3  A    between atoms: C_22  and  C_23 
REMARK       I    between atoms: C_23  and  N_24 
REMARK    4  A    between atoms: N_24  and  C_25 
REMARK    5  A    between atoms: C_33  and  N_34 
ROOT
HETATM    1  N   UNL     1      43.158 -11.423   6.856  1.00  0.00    -0.197 N 
HETATM    2  C   UNL     1      42.098 -10.591   6.530  1.00  0.00     0.183 A 
HETATM    3  C   UNL     1      42.426  -9.314   6.957  1.00  0.00     0.125 A 
HETATM    4  N   UNL     1      41.555  -8.273   6.841  1.00  0.00    -0.242 NA
HETATM    5  C   UNL     1      40.383  -8.592   6.264  1.00  0.00     0.086 A 
HETATM    6  C   UNL     1      40.071  -9.910   5.832  1.00  0.00     0.088 A 
HETATM    7  N   UNL     1      40.920 -10.941   5.961  1.00  0.00    -0.225 NA
HETATM    8  C   UNL     1      39.439  -7.587   6.098  1.00  0.00     0.034 A 
HETATM    9  C   UNL     1      38.195  -7.843   5.521  1.00  0.00     0.002 A 
HETATM   10  C   UNL     1      37.888  -9.130   5.101  1.00  0.00     0.002 A 
HETATM   11  C   UNL     1      38.828 -10.148   5.259  1.00  0.00     0.034 A 
HETATM   12  C   UNL     1      43.710  -9.351   7.557  1.00  0.00     0.110 C 
HETATM   13  C   UNL     1      44.184 -10.641   7.379  1.00  0.00     0.143 C 
ENDROOT
BRANCH   1  14
HETATM   14  N   UNL     1      43.234 -12.794   6.804  1.00  0.00    -0.176 NA
HETATM   15  C   UNL     1      43.179 -13.250   5.595  1.00  0.00     0.153 C 
BRANCH  15  16
HETATM   16  C   UNL     1      43.151 -14.677   5.362  1.00  0.00     0.011 A 
HETATM   17  C   UNL     1      43.165 -15.333   4.089  1.00  0.00     0.004 A 
HETATM   18  C   UNL     1      43.218 -14.887   2.751  1.00  0.00     0.014 A 
HETATM   19  C   UNL     1      43.074 -16.705   4.325  1.00  0.00     0.043 A 
HETATM   20  C   UNL     1      43.176 -15.818   1.708  1.00  0.00     0.001 A 
HETATM   21  C   UNL     1      43.085 -17.181   1.979  1.00  0.00     0.002 A 
HETATM   22  C   UNL     1      43.034 -17.652   3.295  1.00  0.00     0.030 A 
HETATM   23  N   UNL     1      43.026 -16.877   5.691  1.00  0.00    -0.364 N 
HETATM   24  H   UNL     1      42.954 -17.774   6.153  1.00  0.00     0.165 HD
HETATM   25  C   UNL     1      43.059 -15.665   6.323  1.00  0.00     0.102 A 
ENDBRANCH  15  16
ENDBRANCH   1  14
BRANCH  13  26
HETATM   26  N   UNL     1      45.360 -11.201   7.753  1.00  0.00    -0.383 N 
HETATM   27  H   UNL     1      46.100 -11.381   7.074  1.00  0.00     0.157 HD
HETATM   28  H   UNL     1      45.441 -11.693   8.642  1.00  0.00     0.157 HD
ENDBRANCH  13  26
BRANCH  12  29
HETATM   29  C   UNL     1      44.357  -8.311   8.344  1.00  0.00     0.262 C 
HETATM   30  N   UNL     1      43.455  -7.554   9.078  1.00  0.00    -0.323 N 
HETATM   31  H   UNL     1      42.583  -7.366   8.584  1.00  0.00     0.169 HD
HETATM   32  O   UNL     1      45.576  -8.206   8.449  1.00  0.00    -0.267 OA
BRANCH  30  33
HETATM   33  C   UNL     1      43.224  -7.872  10.444  1.00  0.00     0.035 A 
HETATM   34  C   UNL     1      43.521  -9.127  10.988  1.00  0.00     0.031 A 
HETATM   35  C   UNL     1      43.124  -9.438  12.293  1.00  0.00     0.026 A 
HETATM   36  C   UNL     1      42.447  -8.491  13.057  1.00  0.00     0.034 A 
HETATM   37 CL   UNL     1      41.923  -8.889  14.646  1.00  0.00    -0.084 Cl
HETATM   38  C   UNL     1      42.181  -7.226  12.537  1.00  0.00     0.026 A 
HETATM   39  C   UNL     1      42.571  -6.916  11.231  1.00  0.00     0.031 A 
ENDBRANCH  30  33
ENDBRANCH  12  29
TORSDOF 5
ENDMDL
MODEL 10
REMARK VINA RESULT:      -9.4      3.685      8.120
REMARK  5 active torsions:
REMARK  status: ('A' for Active; 'I' for Inactive)
REMARK    1  A    between atoms: C_8  and  C_9 
REMARK    2  A    between atoms: N_10  and  N_11 
REMARK    3  A    between atoms: C_22  and  C_23 
REMARK       I    between atoms: C_23  and  N_24 
REMARK    4  A    between atoms: N_24  and  C_25 
REMARK    5  A    between atoms: C_33  and  N_34 
ROOT
HETATM    1  N   UNL     1      41.856 -11.321   4.202  1.00  0.00    -0.197 N 
HETATM    2  C   UNL     1      42.230 -12.580   3.761  1.00  0.00     0.183 A 
HETATM    3  C   UNL     1      42.257 -12.544   2.375  1.00  0.00     0.125 A 
HETATM    4  N   UNL     1      42.526 -13.653   1.633  1.00  0.00    -0.242 NA
HETATM    5  C   UNL     1      42.780 -14.757   2.358  1.00  0.00     0.086 A 
HETATM    6  C   UNL     1      42.749 -14.769   3.779  1.00  0.00     0.088 A 
HETATM    7  N   UNL     1      42.467 -13.681   4.513  1.00  0.00    -0.225 NA
HETATM    8  C   UNL     1      43.074 -15.934   1.681  1.00  0.00     0.034 A 
HETATM    9  C   UNL     1      43.335 -17.122   2.363  1.00  0.00     0.002 A 
HETATM   10  C   UNL     1      43.302 -17.136   3.751  1.00  0.00     0.002 A 
HETATM   11  C   UNL     1      43.011 -15.961   4.444  1.00  0.00     0.034 A 
HETATM   12  C   UNL     1      41.895 -11.241   1.948  1.00  0.00     0.110 C 
HETATM   13  C   UNL     1      41.764 -10.478   3.098  1.00  0.00     0.143 C 
ENDROOT
BRANCH   1  14
HETATM   14  N   UNL     1      41.516 -10.910   5.469  1.00  0.00    -0.176 NA
HETATM   15  C   UNL     1      42.505 -10.361   6.097  1.00  0.00     0.153 C 
BRANCH  15  16
HETATM   16  C   UNL     1      42.348  -9.956   7.476  1.00  0.00     0.011 A 
HETATM   17  C   UNL     1      43.385  -9.863   8.460  1.00  0.00     0.004 A 
HETATM   18  C   UNL     1      44.778 -10.091   8.448  1.00  0.00     0.014 A 
HETATM   19  C   UNL     1      42.786  -9.488   9.663  1.00  0.00     0.043 A 
HETATM   20  C   UNL     1      45.514  -9.940   9.627  1.00  0.00     0.001 A 
HETATM   21  C   UNL     1      44.885  -9.564  10.811  1.00  0.00     0.002 A 
HETATM   22  C   UNL     1      43.507  -9.328  10.852  1.00  0.00     0.030 A 
HETATM   23  N   UNL     1      41.439  -9.340   9.415  1.00  0.00    -0.364 N 
HETATM   24  H   UNL     1      40.755  -9.075  10.111  1.00  0.00     0.165 HD
HETATM   25  C   UNL     1      41.164  -9.631   8.108  1.00  0.00     0.102 A 
ENDBRANCH  15  16
ENDBRANCH   1  14
BRANCH  13  26
HETATM   26  N   UNL     1      41.443  -9.171   3.249  1.00  0.00    -0.383 N 
HETATM   27  H   UNL     1      41.079  -8.622   2.470  1.00  0.00     0.157 HD
HETATM   28  H   UNL     1      41.797  -8.637   4.042  1.00  0.00     0.157 HD
ENDBRANCH  13  26
BRANCH  12  29
HETATM   29  C   UNL     1      41.567 -10.804   0.599  1.00  0.00     0.262 C 
HETATM   30  N   UNL     1      40.617 -11.611  -0.010  1.00  0.00    -0.323 N 
HETATM   31  H   UNL     1      40.725 -12.602   0.204  1.00  0.00     0.169 HD
HETATM   32  O   UNL     1      41.986  -9.759   0.108  1.00  0.00    -0.267 OA
BRANCH  30  33
HETATM   33  C   UNL     1      39.251 -11.218   0.009  1.00  0.00     0.035 A 
HETATM   34  C   UNL     1      38.698 -10.357  -0.946  1.00  0.00     0.031 A 
HETATM   35  C   UNL     1      37.395  -9.874  -0.786  1.00  0.00     0.026 A 
HETATM   36  C   UNL     1      36.640 -10.266   0.316  1.00  0.00     0.034 A 
HETATM   37 CL   UNL     1      35.053  -9.640   0.533  1.00  0.00    -0.084 Cl
HETATM   38  C   UNL     1      37.168 -11.153   1.251  1.00  0.00     0.026 A 
HETATM   39  C   UNL     1      38.472 -11.630   1.097  1.00  0.00     0.031 A 
ENDBRANCH  30  33
ENDBRANCH  12  29
TORSDOF 5
ENDMDL
