MODEL 1
REMARK VINA RESULT:      -7.6      0.000      0.000
REMARK  5 active torsions:
REMARK  status: ('A' for Active; 'I' for Inactive)
REMARK    1  A    between atoms: C_2  and  O_3 
REMARK    2  A    between atoms: O_3  and  C_4 
REMARK    3  A    between atoms: C_8  and  C_9 
REMARK    4  A    between atoms: C_9  and  N_10 
REMARK       I    between atoms: N_10  and  C_11 
REMARK    5  A    between atoms: C_11  and  C_12 
ROOT
HETATM    1  C   UNL     1      42.582 -12.716   4.792  1.00  0.00     0.161 C 
ENDROOT
BRANCH   1   2
HETATM    2  C   UNL     1      43.634 -12.128   5.688  1.00  0.00    -0.035 A 
HETATM    3  C   UNL     1      44.858 -11.693   5.173  1.00  0.00     0.028 A 
HETATM    4  C   UNL     1      45.798 -11.180   6.053  1.00  0.00     0.120 A 
HETATM    5  N   UNL     1      45.608 -11.075   7.384  1.00  0.00    -0.237 NA
HETATM    6  C   UNL     1      44.425 -11.498   7.865  1.00  0.00     0.165 A 
HETATM    7  C   UNL     1      43.424 -12.032   7.066  1.00  0.00     0.066 A 
BRANCH   6   8
HETATM    8  O   UNL     1      44.132 -11.409   9.206  1.00  0.00    -0.324 OA
BRANCH   8   9
HETATM    9  C   UNL     1      44.029 -10.125   9.847  1.00  0.00     0.058 C 
HETATM   10  C   UNL     1      43.189  -9.120   9.047  1.00  0.00     0.045 C 
HETATM   11  C   UNL     1      45.399  -9.559  10.244  1.00  0.00     0.045 C 
HETATM   12  C   UNL     1      43.260 -10.432  11.149  1.00  0.00     0.045 C 
ENDBRANCH   8   9
ENDBRANCH   6   8
ENDBRANCH   1   2
BRANCH   1  13
HETATM   13  N   UNL     1      42.984 -14.010   4.297  1.00  0.00    -0.353 N 
HETATM   14  C   UNL     1      42.343 -15.151   4.722  1.00  0.00     0.255 C 
HETATM   15  O   UNL     1      41.427 -15.163   5.534  1.00  0.00    -0.268 OA
HETATM   16  H   UNL     1      43.753 -14.066   3.642  1.00  0.00     0.163 HD
BRANCH  14  17
HETATM   17  C   UNL     1      42.813 -16.413   4.120  1.00  0.00     0.075 A 
HETATM   18  C   UNL     1      42.237 -16.908   2.942  1.00  0.00     0.051 A 
HETATM   19 CL   UNL     1      40.938 -16.109   2.127  1.00  0.00    -0.083 Cl
HETATM   20  C   UNL     1      42.719 -18.089   2.367  1.00  0.00     0.025 A 
HETATM   21  C   UNL     1      43.781 -18.776   2.955  1.00  0.00     0.003 A 
HETATM   22  C   UNL     1      44.358 -18.286   4.125  1.00  0.00     0.025 A 
HETATM   23  C   UNL     1      43.879 -17.108   4.709  1.00  0.00     0.051 A 
HETATM   24 CL   UNL     1      44.618 -16.609   6.191  1.00  0.00    -0.083 Cl
ENDBRANCH  14  17
ENDBRANCH   1  13
TORSDOF 5
ENDMDL
MODEL 2
REMARK VINA RESULT:      -7.6      0.095      1.913
REMARK  5 active torsions:
REMARK  status: ('A' for Active; 'I' for Inactive)
REMARK    1  A    between atoms: C_2  and  O_3 
REMARK    2  A    between atoms: O_3  and  C_4 
REMARK    3  A    between atoms: C_8  and  C_9 
REMARK    4  A    between atoms: C_9  and  N_10 
REMARK       I    between atoms: N_10  and  C_11 
REMARK    5  A    between atoms: C_11  and  C_12 
ROOT
HETATM    1  C   UNL     1      42.486 -12.786   4.835  1.00  0.00     0.161 C 
ENDROOT
BRANCH   1   2
HETATM    2  C   UNL     1      43.550 -12.168   5.696  1.00  0.00    -0.035 A 
HETATM    3  C   UNL     1      44.741 -11.693   5.141  1.00  0.00     0.028 A 
HETATM    4  C   UNL     1      45.695 -11.153   5.989  1.00  0.00     0.120 A 
HETATM    5  N   UNL     1      45.547 -11.058   7.327  1.00  0.00    -0.237 NA
HETATM    6  C   UNL     1      44.396 -11.520   7.847  1.00  0.00     0.165 A 
HETATM    7  C   UNL     1      43.385 -12.083   7.081  1.00  0.00     0.066 A 
BRANCH   6   8
HETATM    8  O   UNL     1      44.147 -11.444   9.197  1.00  0.00    -0.324 OA
BRANCH   8   9
HETATM    9  C   UNL     1      44.030 -10.166   9.848  1.00  0.00     0.058 C 
HETATM   10  C   UNL     1      43.116  -9.190   9.095  1.00  0.00     0.045 C 
HETATM   11  C   UNL     1      45.397  -9.552  10.179  1.00  0.00     0.045 C 
HETATM   12  C   UNL     1      43.339 -10.503  11.185  1.00  0.00     0.045 C 
ENDBRANCH   8   9
ENDBRANCH   6   8
ENDBRANCH   1   2
BRANCH   1  13
HETATM   13  N   UNL     1      42.920 -14.054   4.303  1.00  0.00    -0.353 N 
HETATM   14  C   UNL     1      42.344 -15.227   4.734  1.00  0.00     0.255 C 
HETATM   15  O   UNL     1      41.465 -15.290   5.583  1.00  0.00    -0.268 OA
HETATM   16  H   UNL     1      43.662 -14.068   3.615  1.00  0.00     0.163 HD
BRANCH  14  17
HETATM   17  C   UNL     1      42.841 -16.459   4.092  1.00  0.00     0.075 A 
HETATM   18  C   UNL     1      43.889 -17.196   4.661  1.00  0.00     0.051 A 
HETATM   19 CL   UNL     1      44.686 -16.719   6.119  1.00  0.00    -0.083 Cl
HETATM   20  C   UNL     1      44.324 -18.380   4.055  1.00  0.00     0.025 A 
HETATM   21  C   UNL     1      43.713 -18.840   2.889  1.00  0.00     0.003 A 
HETATM   22  C   UNL     1      42.668 -18.112   2.322  1.00  0.00     0.025 A 
HETATM   23  C   UNL     1      42.230 -16.924   2.918  1.00  0.00     0.051 A 
HETATM   24 CL   UNL     1      40.969 -16.058   2.111  1.00  0.00    -0.083 Cl
ENDBRANCH  14  17
ENDBRANCH   1  13
TORSDOF 5
ENDMDL
MODEL 3
REMARK VINA RESULT:      -7.6      3.209      5.083
REMARK  5 active torsions:
REMARK  status: ('A' for Active; 'I' for Inactive)
REMARK    1  A    between atoms: C_2  and  O_3 
REMARK    2  A    between atoms: O_3  and  C_4 
REMARK    3  A    between atoms: C_8  and  C_9 
REMARK    4  A    between atoms: C_9  and  N_10 
REMARK       I    between atoms: N_10  and  C_11 
REMARK    5  A    between atoms: C_11  and  C_12 
ROOT
HETATM    1  C   UNL     1      42.643 -16.409   6.957  1.00  0.00     0.161 C 
ENDROOT
BRANCH   1   2
HETATM    2  C   UNL     1      42.368 -15.020   6.458  1.00  0.00    -0.035 A 
HETATM    3  C   UNL     1      43.155 -13.939   6.864  1.00  0.00     0.028 A 
HETATM    4  C   UNL     1      42.840 -12.677   6.387  1.00  0.00     0.120 A 
HETATM    5  N   UNL     1      41.812 -12.421   5.551  1.00  0.00    -0.237 NA
HETATM    6  C   UNL     1      41.062 -13.471   5.170  1.00  0.00     0.165 A 
HETATM    7  C   UNL     1      41.295 -14.771   5.598  1.00  0.00     0.066 A 
BRANCH   6   8
HETATM    8  O   UNL     1      40.007 -13.311   4.302  1.00  0.00    -0.324 OA
BRANCH   8   9
HETATM    9  C   UNL     1      40.191 -13.497   2.887  1.00  0.00     0.058 C 
HETATM   10  C   UNL     1      39.841 -14.916   2.418  1.00  0.00     0.045 C 
HETATM   11  C   UNL     1      41.580 -13.049   2.414  1.00  0.00     0.045 C 
HETATM   12  C   UNL     1      39.157 -12.539   2.260  1.00  0.00     0.045 C 
ENDBRANCH   8   9
ENDBRANCH   6   8
ENDBRANCH   1   2
BRANCH   1  13
HETATM   13  N   UNL     1      42.660 -17.358   5.870  1.00  0.00    -0.353 N 
HETATM   14  C   UNL     1      43.827 -17.623   5.192  1.00  0.00     0.255 C 
HETATM   15  O   UNL     1      44.900 -17.085   5.433  1.00  0.00    -0.268 OA
HETATM   16  H   UNL     1      41.797 -17.817   5.608  1.00  0.00     0.163 HD
BRANCH  14  17
HETATM   17  C   UNL     1      43.733 -18.639   4.126  1.00  0.00     0.075 A 
HETATM   18  C   UNL     1      43.467 -18.269   2.800  1.00  0.00     0.051 A 
HETATM   19 CL   UNL     1      43.209 -16.629   2.319  1.00  0.00    -0.083 Cl
HETATM   20  C   UNL     1      43.415 -19.243   1.797  1.00  0.00     0.025 A 
HETATM   21  C   UNL     1      43.636 -20.585   2.106  1.00  0.00     0.003 A 
HETATM   22  C   UNL     1      43.904 -20.956   3.423  1.00  0.00     0.025 A 
HETATM   23  C   UNL     1      43.953 -19.989   4.433  1.00  0.00     0.051 A 
HETATM   24 CL   UNL     1      44.232 -20.550   6.045  1.00  0.00    -0.083 Cl
ENDBRANCH  14  17
ENDBRANCH   1  13
TORSDOF 5
ENDMDL
MODEL 4
REMARK VINA RESULT:      -7.5      3.178      5.260
REMARK  5 active torsions:
REMARK  status: ('A' for Active; 'I' for Inactive)
REMARK    1  A    between atoms: C_2  and  O_3 
REMARK    2  A    between atoms: O_3  and  C_4 
REMARK    3  A    between atoms: C_8  and  C_9 
REMARK    4  A    between atoms: C_9  and  N_10 
REMARK       I    between atoms: N_10  and  C_11 
REMARK    5  A    between atoms: C_11  and  C_12 
ROOT
HETATM    1  C   UNL     1      42.546 -16.315   6.937  1.00  0.00     0.161 C 
ENDROOT
BRANCH   1   2
HETATM    2  C   UNL     1      42.326 -14.916   6.438  1.00  0.00    -0.035 A 
HETATM    3  C   UNL     1      43.163 -13.870   6.835  1.00  0.00     0.028 A 
HETATM    4  C   UNL     1      42.897 -12.596   6.359  1.00  0.00     0.120 A 
HETATM    5  N   UNL     1      41.873 -12.297   5.533  1.00  0.00    -0.237 NA
HETATM    6  C   UNL     1      41.076 -13.315   5.160  1.00  0.00     0.165 A 
HETATM    7  C   UNL     1      41.257 -14.622   5.588  1.00  0.00     0.066 A 
BRANCH   6   8
HETATM    8  O   UNL     1      40.021 -13.111   4.303  1.00  0.00    -0.324 OA
BRANCH   8   9
HETATM    9  C   UNL     1      40.174 -13.336   2.889  1.00  0.00     0.058 C 
HETATM   10  C   UNL     1      39.815 -14.768   2.468  1.00  0.00     0.045 C 
HETATM   11  C   UNL     1      41.552 -12.902   2.375  1.00  0.00     0.045 C 
HETATM   12  C   UNL     1      39.126 -12.396   2.258  1.00  0.00     0.045 C 
ENDBRANCH   8   9
ENDBRANCH   6   8
ENDBRANCH   1   2
BRANCH   1  13
HETATM   13  N   UNL     1      42.599 -17.255   5.844  1.00  0.00    -0.353 N 
HETATM   14  C   UNL     1      43.790 -17.520   5.207  1.00  0.00     0.255 C 
HETATM   15  O   UNL     1      44.855 -16.990   5.493  1.00  0.00    -0.268 OA
HETATM   16  H   UNL     1      41.745 -17.706   5.546  1.00  0.00     0.163 HD
BRANCH  14  17
HETATM   17  C   UNL     1      43.730 -18.526   4.130  1.00  0.00     0.075 A 
HETATM   18  C   UNL     1      43.899 -19.890   4.407  1.00  0.00     0.051 A 
HETATM   19 CL   UNL     1      44.209 -20.491   5.998  1.00  0.00    -0.083 Cl
HETATM   20  C   UNL     1      43.806 -20.833   3.377  1.00  0.00     0.025 A 
HETATM   21  C   UNL     1      43.536 -20.424   2.071  1.00  0.00     0.003 A 
HETATM   22  C   UNL     1      43.364 -19.070   1.792  1.00  0.00     0.025 A 
HETATM   23  C   UNL     1      43.461 -18.120   2.815  1.00  0.00     0.051 A 
HETATM   24 CL   UNL     1      43.292 -16.459   2.364  1.00  0.00    -0.083 Cl
ENDBRANCH  14  17
ENDBRANCH   1  13
TORSDOF 5
ENDMDL
MODEL 5
REMARK VINA RESULT:      -7.5      4.238      6.175
REMARK  5 active torsions:
REMARK  status: ('A' for Active; 'I' for Inactive)
REMARK    1  A    between atoms: C_2  and  O_3 
REMARK    2  A    between atoms: O_3  and  C_4 
REMARK    3  A    between atoms: C_8  and  C_9 
REMARK    4  A    between atoms: C_9  and  N_10 
REMARK       I    between atoms: N_10  and  C_11 
REMARK    5  A    between atoms: C_11  and  C_12 
ROOT
HETATM    1  C   UNL     1      41.870 -15.733   6.094  1.00  0.00     0.161 C 
ENDROOT
BRANCH   1   2
HETATM    2  C   UNL     1      41.060 -14.679   5.396  1.00  0.00    -0.035 A 
HETATM    3  C   UNL     1      40.662 -13.517   6.061  1.00  0.00     0.028 A 
HETATM    4  C   UNL     1      39.897 -12.590   5.371  1.00  0.00     0.120 A 
HETATM    5  N   UNL     1      39.507 -12.740   4.088  1.00  0.00    -0.237 NA
HETATM    6  C   UNL     1      39.897 -13.864   3.461  1.00  0.00     0.165 A 
HETATM    7  C   UNL     1      40.658 -14.852   4.069  1.00  0.00     0.066 A 
BRANCH   6   8
HETATM    8  O   UNL     1      39.565 -14.093   2.146  1.00  0.00    -0.324 OA
BRANCH   8   9
HETATM    9  C   UNL     1      40.259 -13.408   1.087  1.00  0.00     0.058 C 
HETATM   10  C   UNL     1      41.704 -13.041   1.456  1.00  0.00     0.045 C 
HETATM   11  C   UNL     1      39.468 -12.207   0.552  1.00  0.00     0.045 C 
HETATM   12  C   UNL     1      40.327 -14.458  -0.040  1.00  0.00     0.045 C 
ENDBRANCH   8   9
ENDBRANCH   6   8
ENDBRANCH   1   2
BRANCH   1  13
HETATM   13  N   UNL     1      42.129 -16.852   5.222  1.00  0.00    -0.353 N 
HETATM   14  C   UNL     1      43.421 -17.221   4.924  1.00  0.00     0.255 C 
HETATM   15  O   UNL     1      44.415 -16.643   5.343  1.00  0.00    -0.268 OA
HETATM   16  H   UNL     1      41.346 -17.354   4.825  1.00  0.00     0.163 HD
BRANCH  14  17
HETATM   17  C   UNL     1      43.565 -18.403   4.053  1.00  0.00     0.075 A 
HETATM   18  C   UNL     1      43.749 -19.682   4.599  1.00  0.00     0.051 A 
HETATM   19 CL   UNL     1      43.843 -19.969   6.301  1.00  0.00    -0.083 Cl
HETATM   20  C   UNL     1      43.850 -20.796   3.758  1.00  0.00     0.025 A 
HETATM   21  C   UNL     1      43.760 -20.645   2.375  1.00  0.00     0.003 A 
HETATM   22  C   UNL     1      43.575 -19.376   1.829  1.00  0.00     0.025 A 
HETATM   23  C   UNL     1      43.478 -18.255   2.662  1.00  0.00     0.051 A 
HETATM   24 CL   UNL     1      43.308 -16.716   1.892  1.00  0.00    -0.083 Cl
ENDBRANCH  14  17
ENDBRANCH   1  13
TORSDOF 5
ENDMDL
MODEL 6
REMARK VINA RESULT:      -7.2      4.564      7.509
REMARK  5 active torsions:
REMARK  status: ('A' for Active; 'I' for Inactive)
REMARK    1  A    between atoms: C_2  and  O_3 
REMARK    2  A    between atoms: O_3  and  C_4 
REMARK    3  A    between atoms: C_8  and  C_9 
REMARK    4  A    between atoms: C_9  and  N_10 
REMARK       I    between atoms: N_10  and  C_11 
REMARK    5  A    between atoms: C_11  and  C_12 
ROOT
HETATM    1  C   UNL     1      40.351 -13.841   3.880  1.00  0.00     0.161 C 
ENDROOT
BRANCH   1   2
HETATM    2  C   UNL     1      40.571 -13.259   2.513  1.00  0.00    -0.035 A 
HETATM    3  C   UNL     1      41.066 -11.962   2.353  1.00  0.00     0.028 A 
HETATM    4  C   UNL     1      41.228 -11.472   1.067  1.00  0.00     0.120 A 
HETATM    5  N   UNL     1      40.933 -12.170  -0.049  1.00  0.00    -0.237 NA
HETATM    6  C   UNL     1      40.456 -13.416   0.121  1.00  0.00     0.165 A 
HETATM    7  C   UNL     1      40.254 -13.992   1.367  1.00  0.00     0.066 A 
BRANCH   6   8
HETATM    8  O   UNL     1      40.148 -14.210  -0.959  1.00  0.00    -0.324 OA
BRANCH   8   9
HETATM    9  C   UNL     1      39.335 -13.702  -2.032  1.00  0.00     0.058 C 
HETATM   10  C   UNL     1      40.141 -12.912  -3.073  1.00  0.00     0.045 C 
HETATM   11  C   UNL     1      38.115 -12.924  -1.522  1.00  0.00     0.045 C 
HETATM   12  C   UNL     1      38.815 -14.977  -2.727  1.00  0.00     0.045 C 
ENDBRANCH   8   9
ENDBRANCH   6   8
ENDBRANCH   1   2
BRANCH   1  13
HETATM   13  N   UNL     1      41.040 -15.100   4.026  1.00  0.00    -0.353 N 
HETATM   14  C   UNL     1      42.367 -15.132   4.388  1.00  0.00     0.255 C 
HETATM   15  O   UNL     1      43.049 -14.137   4.590  1.00  0.00    -0.268 OA
HETATM   16  H   UNL     1      40.534 -15.958   3.847  1.00  0.00     0.163 HD
BRANCH  14  17
HETATM   17  C   UNL     1      42.956 -16.476   4.545  1.00  0.00     0.075 A 
HETATM   18  C   UNL     1      43.037 -17.084   5.805  1.00  0.00     0.051 A 
HETATM   19 CL   UNL     1      42.488 -16.316   7.253  1.00  0.00    -0.083 Cl
HETATM   20  C   UNL     1      43.569 -18.373   5.930  1.00  0.00     0.025 A 
HETATM   21  C   UNL     1      44.011 -19.064   4.802  1.00  0.00     0.003 A 
HETATM   22  C   UNL     1      43.929 -18.464   3.547  1.00  0.00     0.025 A 
HETATM   23  C   UNL     1      43.404 -17.174   3.414  1.00  0.00     0.051 A 
HETATM   24 CL   UNL     1      43.397 -16.488   1.826  1.00  0.00    -0.083 Cl
ENDBRANCH  14  17
ENDBRANCH   1  13
TORSDOF 5
ENDMDL
MODEL 7
REMARK VINA RESULT:      -7.2      3.823      7.063
REMARK  5 active torsions:
REMARK  status: ('A' for Active; 'I' for Inactive)
REMARK    1  A    between atoms: C_2  and  O_3 
REMARK    2  A    between atoms: O_3  and  C_4 
REMARK    3  A    between atoms: C_8  and  C_9 
REMARK    4  A    between atoms: C_9  and  N_10 
REMARK       I    between atoms: N_10  and  C_11 
REMARK    5  A    between atoms: C_11  and  C_12 
ROOT
HETATM    1  C   UNL     1      42.319 -12.935   4.072  1.00  0.00     0.161 C 
ENDROOT
BRANCH   1   2
HETATM    2  C   UNL     1      41.184 -12.566   3.161  1.00  0.00    -0.035 A 
HETATM    3  C   UNL     1      39.930 -12.224   3.675  1.00  0.00     0.028 A 
HETATM    4  C   UNL     1      38.915 -11.915   2.784  1.00  0.00     0.120 A 
HETATM    5  N   UNL     1      39.058 -11.925   1.442  1.00  0.00    -0.237 NA
HETATM    6  C   UNL     1      40.270 -12.258   0.963  1.00  0.00     0.165 A 
HETATM    7  C   UNL     1      41.347 -12.589   1.774  1.00  0.00     0.066 A 
BRANCH   6   8
HETATM    8  O   UNL     1      40.517 -12.275  -0.390  1.00  0.00    -0.324 OA
BRANCH   8   9
HETATM    9  C   UNL     1      39.748 -13.123  -1.262  1.00  0.00     0.058 C 
HETATM   10  C   UNL     1      38.368 -12.542  -1.600  1.00  0.00     0.045 C 
HETATM   11  C   UNL     1      39.667 -14.567  -0.750  1.00  0.00     0.045 C 
HETATM   12  C   UNL     1      40.571 -13.140  -2.567  1.00  0.00     0.045 C 
ENDBRANCH   8   9
ENDBRANCH   6   8
ENDBRANCH   1   2
BRANCH   1  13
HETATM   13  N   UNL     1      42.847 -14.237   3.745  1.00  0.00    -0.353 N 
HETATM   14  C   UNL     1      42.407 -15.357   4.413  1.00  0.00     0.255 C 
HETATM   15  O   UNL     1      41.579 -15.340   5.313  1.00  0.00    -0.268 OA
HETATM   16  H   UNL     1      43.554 -14.311   3.026  1.00  0.00     0.163 HD
BRANCH  14  17
HETATM   17  C   UNL     1      42.988 -16.638   3.967  1.00  0.00     0.075 A 
HETATM   18  C   UNL     1      44.007 -17.260   4.702  1.00  0.00     0.051 A 
HETATM   19 CL   UNL     1      44.670 -16.580   6.146  1.00  0.00    -0.083 Cl
HETATM   20  C   UNL     1      44.523 -18.492   4.282  1.00  0.00     0.025 A 
HETATM   21  C   UNL     1      44.022 -19.112   3.138  1.00  0.00     0.003 A 
HETATM   22  C   UNL     1      43.007 -18.498   2.407  1.00  0.00     0.025 A 
HETATM   23  C   UNL     1      42.489 -17.264   2.816  1.00  0.00     0.051 A 
HETATM   24 CL   UNL     1      41.273 -16.550   1.814  1.00  0.00    -0.083 Cl
ENDBRANCH  14  17
ENDBRANCH   1  13
TORSDOF 5
ENDMDL
MODEL 8
REMARK VINA RESULT:      -7.1      2.882      8.048
REMARK  5 active torsions:
REMARK  status: ('A' for Active; 'I' for Inactive)
REMARK    1  A    between atoms: C_2  and  O_3 
REMARK    2  A    between atoms: O_3  and  C_4 
REMARK    3  A    between atoms: C_8  and  C_9 
REMARK    4  A    between atoms: C_9  and  N_10 
REMARK       I    between atoms: N_10  and  C_11 
REMARK    5  A    between atoms: C_11  and  C_12 
ROOT
HETATM    1  C   UNL     1      41.214 -12.226   5.827  1.00  0.00     0.161 C 
ENDROOT
BRANCH   1   2
HETATM    2  C   UNL     1      41.199 -13.722   5.690  1.00  0.00    -0.035 A 
HETATM    3  C   UNL     1      40.290 -14.502   6.409  1.00  0.00     0.028 A 
HETATM    4  C   UNL     1      40.338 -15.879   6.258  1.00  0.00     0.120 A 
HETATM    5  N   UNL     1      41.214 -16.520   5.457  1.00  0.00    -0.237 NA
HETATM    6  C   UNL     1      42.084 -15.755   4.772  1.00  0.00     0.165 A 
HETATM    7  C   UNL     1      42.117 -14.371   4.861  1.00  0.00     0.066 A 
BRANCH   6   8
HETATM    8  O   UNL     1      42.999 -16.318   3.914  1.00  0.00    -0.324 OA
BRANCH   8   9
HETATM    9  C   UNL     1      42.656 -16.564   2.538  1.00  0.00     0.058 C 
HETATM   10  C   UNL     1      43.511 -15.756   1.552  1.00  0.00     0.045 C 
HETATM   11  C   UNL     1      41.153 -16.408   2.274  1.00  0.00     0.045 C 
HETATM   12  C   UNL     1      43.009 -18.052   2.337  1.00  0.00     0.045 C 
ENDBRANCH   8   9
ENDBRANCH   6   8
ENDBRANCH   1   2
BRANCH   1  13
HETATM   13  N   UNL     1      42.176 -11.805   6.815  1.00  0.00    -0.353 N 
HETATM   14  C   UNL     1      42.619 -10.502   6.848  1.00  0.00     0.255 C 
HETATM   15  O   UNL     1      42.262  -9.634   6.064  1.00  0.00    -0.268 OA
HETATM   16  H   UNL     1      42.528 -12.485   7.476  1.00  0.00     0.163 HD
BRANCH  14  17
HETATM   17  C   UNL     1      43.573 -10.177   7.927  1.00  0.00     0.075 A 
HETATM   18  C   UNL     1      44.939 -10.459   7.789  1.00  0.00     0.051 A 
HETATM   19 CL   UNL     1      45.603 -11.216   6.384  1.00  0.00    -0.083 Cl
HETATM   20  C   UNL     1      45.833 -10.113   8.809  1.00  0.00     0.025 A 
HETATM   21  C   UNL     1      45.374  -9.478   9.963  1.00  0.00     0.003 A 
HETATM   22  C   UNL     1      44.017  -9.193  10.101  1.00  0.00     0.025 A 
HETATM   23  C   UNL     1      43.115  -9.541   9.089  1.00  0.00     0.051 A 
HETATM   24 CL   UNL     1      41.443  -9.202   9.376  1.00  0.00    -0.083 Cl
ENDBRANCH  14  17
ENDBRANCH   1  13
TORSDOF 5
ENDMDL
MODEL 9
REMARK VINA RESULT:      -7.0      4.790      7.652
REMARK  5 active torsions:
REMARK  status: ('A' for Active; 'I' for Inactive)
REMARK    1  A    between atoms: C_2  and  O_3 
REMARK    2  A    between atoms: O_3  and  C_4 
REMARK    3  A    between atoms: C_8  and  C_9 
REMARK    4  A    between atoms: C_9  and  N_10 
REMARK       I    between atoms: N_10  and  C_11 
REMARK    5  A    between atoms: C_11  and  C_12 
ROOT
HETATM    1  C   UNL     1      39.043 -12.031   2.951  1.00  0.00     0.161 C 
ENDROOT
BRANCH   1   2
HETATM    2  C   UNL     1      39.706 -13.010   3.878  1.00  0.00    -0.035 A 
HETATM    3  C   UNL     1      39.873 -12.718   5.234  1.00  0.00     0.028 A 
HETATM    4  C   UNL     1      40.511 -13.651   6.035  1.00  0.00     0.120 A 
HETATM    5  N   UNL     1      40.988 -14.831   5.587  1.00  0.00    -0.237 NA
HETATM    6  C   UNL     1      40.820 -15.097   4.279  1.00  0.00     0.165 A 
HETATM    7  C   UNL     1      40.200 -14.224   3.396  1.00  0.00     0.066 A 
BRANCH   6   8
HETATM    8  O   UNL     1      41.253 -16.284   3.737  1.00  0.00    -0.324 OA
BRANCH   8   9
HETATM    9  C   UNL     1      42.637 -16.464   3.382  1.00  0.00     0.058 C 
HETATM   10  C   UNL     1      43.489 -16.998   4.542  1.00  0.00     0.045 C 
HETATM   11  C   UNL     1      43.242 -15.209   2.740  1.00  0.00     0.045 C 
HETATM   12  C   UNL     1      42.593 -17.563   2.301  1.00  0.00     0.045 C 
ENDBRANCH   8   9
ENDBRANCH   6   8
ENDBRANCH   1   2
BRANCH   1  13
HETATM   13  N   UNL     1      38.716 -12.650   1.689  1.00  0.00    -0.353 N 
HETATM   14  C   UNL     1      39.223 -12.148   0.513  1.00  0.00     0.255 C 
HETATM   15  O   UNL     1      39.950 -11.166   0.441  1.00  0.00    -0.268 OA
HETATM   16  H   UNL     1      38.099 -13.451   1.683  1.00  0.00     0.163 HD
BRANCH  14  17
HETATM   17  C   UNL     1      38.853 -12.885  -0.711  1.00  0.00     0.075 A 
HETATM   18  C   UNL     1      39.467 -14.103  -1.033  1.00  0.00     0.051 A 
HETATM   19 CL   UNL     1      40.701 -14.816  -0.055  1.00  0.00    -0.083 Cl
HETATM   20  C   UNL     1      39.078 -14.804  -2.180  1.00  0.00     0.025 A 
HETATM   21  C   UNL     1      38.072 -14.301  -3.005  1.00  0.00     0.003 A 
HETATM   22  C   UNL     1      37.457 -13.092  -2.687  1.00  0.00     0.025 A 
HETATM   23  C   UNL     1      37.843 -12.382  -1.544  1.00  0.00     0.051 A 
HETATM   24 CL   UNL     1      37.066 -10.863  -1.263  1.00  0.00    -0.083 Cl
ENDBRANCH  14  17
ENDBRANCH   1  13
TORSDOF 5
ENDMDL
MODEL 10
REMARK VINA RESULT:      -7.0      4.721      7.311
REMARK  5 active torsions:
REMARK  status: ('A' for Active; 'I' for Inactive)
REMARK    1  A    between atoms: C_2  and  O_3 
REMARK    2  A    between atoms: O_3  and  C_4 
REMARK    3  A    between atoms: C_8  and  C_9 
REMARK    4  A    between atoms: C_9  and  N_10 
REMARK       I    between atoms: N_10  and  C_11 
REMARK    5  A    between atoms: C_11  and  C_12 
ROOT
HETATM    1  C   UNL     1      40.283 -13.953   3.335  1.00  0.00     0.161 C 
ENDROOT
BRANCH   1   2
HETATM    2  C   UNL     1      39.967 -13.890   1.868  1.00  0.00    -0.035 A 
HETATM    3  C   UNL     1      40.102 -15.016   1.053  1.00  0.00     0.028 A 
HETATM    4  C   UNL     1      39.817 -14.891  -0.298  1.00  0.00     0.120 A 
HETATM    5  N   UNL     1      39.417 -13.742  -0.881  1.00  0.00    -0.237 NA
HETATM    6  C   UNL     1      39.293 -12.666  -0.084  1.00  0.00     0.165 A 
HETATM    7  C   UNL     1      39.561 -12.691   1.278  1.00  0.00     0.066 A 
BRANCH   6   8
HETATM    8  O   UNL     1      38.871 -11.457  -0.585  1.00  0.00    -0.324 OA
BRANCH   8   9
HETATM    9  C   UNL     1      39.706 -10.707  -1.485  1.00  0.00     0.058 C 
HETATM   10  C   UNL     1      39.316 -10.889  -2.959  1.00  0.00     0.045 C 
HETATM   11  C   UNL     1      41.200 -10.957  -1.240  1.00  0.00     0.045 C 
HETATM   12  C   UNL     1      39.414  -9.240  -1.112  1.00  0.00     0.045 C 
ENDBRANCH   8   9
ENDBRANCH   6   8
ENDBRANCH   1   2
BRANCH   1  13
HETATM   13  N   UNL     1      40.952 -15.186   3.670  1.00  0.00    -0.353 N 
HETATM   14  C   UNL     1      42.234 -15.174   4.168  1.00  0.00     0.255 C 
HETATM   15  O   UNL     1      42.893 -14.158   4.345  1.00  0.00    -0.268 OA
HETATM   16  H   UNL     1      40.466 -16.061   3.522  1.00  0.00     0.163 HD
BRANCH  14  17
HETATM   17  C   UNL     1      42.801 -16.492   4.512  1.00  0.00     0.075 A 
HETATM   18  C   UNL     1      43.372 -17.309   3.526  1.00  0.00     0.051 A 
HETATM   19 CL   UNL     1      43.436 -16.860   1.858  1.00  0.00    -0.083 Cl
HETATM   20  C   UNL     1      43.935 -18.542   3.877  1.00  0.00     0.025 A 
HETATM   21  C   UNL     1      43.941 -18.961   5.207  1.00  0.00     0.003 A 
HETATM   22  C   UNL     1      43.377 -18.149   6.190  1.00  0.00     0.025 A 
HETATM   23  C   UNL     1      42.807 -16.918   5.848  1.00  0.00     0.051 A 
HETATM   24 CL   UNL     1      42.079 -16.007   7.125  1.00  0.00    -0.083 Cl
ENDBRANCH  14  17
ENDBRANCH   1  13
TORSDOF 5
ENDMDL
