MODEL 1
REMARK VINA RESULT:      -8.4      0.000      0.000
REMARK  4 active torsions:
REMARK  status: ('A' for Active; 'I' for Inactive)
REMARK    1  A    between atoms: O_2  and  C_3 
REMARK    2  A    between atoms: C_7  and  N_8 
REMARK       I    between atoms: N_8  and  C_9 
REMARK    3  A    between atoms: C_9  and  C_10 
REMARK    4  A    between atoms: C_12  and  C_13 
ROOT
HETATM    1  N   UNL     1      43.534 -13.079   5.294  1.00  0.00    -0.320 N 
HETATM    2  C   UNL     1      43.023 -14.358   5.415  1.00  0.00     0.256 C 
HETATM    3  O   UNL     1      42.529 -14.837   6.430  1.00  0.00    -0.267 OA
HETATM    4  H   UNL     1      44.012 -12.828   4.436  1.00  0.00     0.169 HD
ENDROOT
BRANCH   2   5
HETATM    5  C   UNL     1      43.098 -15.216   4.191  1.00  0.00     0.033 A 
HETATM    6  C   UNL     1      43.304 -16.604   4.250  1.00  0.00     0.029 A 
HETATM    7  C   UNL     1      43.387 -17.369   3.075  1.00  0.00    -0.023 A 
HETATM    8  C   UNL     1      43.285 -16.717   1.837  1.00  0.00     0.012 A 
HETATM    9  C   UNL     1      43.098 -15.335   1.771  1.00  0.00     0.002 A 
HETATM   10  C   UNL     1      43.005 -14.588   2.943  1.00  0.00     0.017 A 
BRANCH   7  11
HETATM   11  C   UNL     1      43.587 -18.812   3.157  1.00  0.00    -0.002 A 
HETATM   12  C   UNL     1      43.369 -19.697   2.117  1.00  0.00     0.153 A 
HETATM   13  O   UNL     1      43.624 -20.974   2.503  1.00  0.00    -0.334 OA
HETATM   14  C   UNL     1      44.006 -20.925   3.802  1.00  0.00     0.142 A 
HETATM   15  C   UNL     1      43.997 -19.625   4.253  1.00  0.00     0.038 A 
ENDBRANCH   7  11
ENDBRANCH   2   5
BRANCH   1  16
HETATM   16  C   UNL     1      43.496 -12.047   6.259  1.00  0.00     0.077 A 
HETATM   17  C   UNL     1      44.451 -11.856   7.255  1.00  0.00     0.077 A 
HETATM   18  C   UNL     1      44.302 -10.820   8.181  1.00  0.00     0.152 A 
HETATM   19  C   UNL     1      43.200  -9.960   8.140  1.00  0.00     0.109 A 
HETATM   20  F   UNL     1      45.258 -10.682   9.111  1.00  0.00    -0.203 F 
HETATM   21  C   UNL     1      42.248 -10.142   7.135  1.00  0.00     0.084 A 
HETATM   22  C   UNL     1      42.403 -11.173   6.212  1.00  0.00     0.145 A 
HETATM   23  F   UNL     1      41.466 -11.341   5.264  1.00  0.00    -0.204 F 
BRANCH  19  24
HETATM   24  O   UNL     1      42.924  -8.924   8.989  1.00  0.00    -0.353 OA
HETATM   25  C   UNL     1      42.186  -9.232  10.168  1.00  0.00     0.210 C 
ENDBRANCH  19  24
ENDBRANCH   1  16
TORSDOF 4
ENDMDL
MODEL 2
REMARK VINA RESULT:      -8.2      0.866      1.685
REMARK  4 active torsions:
REMARK  status: ('A' for Active; 'I' for Inactive)
REMARK    1  A    between atoms: O_2  and  C_3 
REMARK    2  A    between atoms: C_7  and  N_8 
REMARK       I    between atoms: N_8  and  C_9 
REMARK    3  A    between atoms: C_9  and  C_10 
REMARK    4  A    between atoms: C_12  and  C_13 
ROOT
HETATM    1  N   UNL     1      43.211 -13.054   5.117  1.00  0.00    -0.320 N 
HETATM    2  C   UNL     1      42.765 -14.355   5.252  1.00  0.00     0.256 C 
HETATM    3  O   UNL     1      42.243 -14.832   6.254  1.00  0.00    -0.267 OA
HETATM    4  H   UNL     1      43.721 -12.800   4.279  1.00  0.00     0.169 HD
ENDROOT
BRANCH   2   5
HETATM    5  C   UNL     1      42.956 -15.243   4.062  1.00  0.00     0.033 A 
HETATM    6  C   UNL     1      43.184 -16.624   4.175  1.00  0.00     0.029 A 
HETATM    7  C   UNL     1      43.377 -17.418   3.032  1.00  0.00    -0.023 A 
HETATM    8  C   UNL     1      43.363 -16.799   1.772  1.00  0.00     0.012 A 
HETATM    9  C   UNL     1      43.154 -15.425   1.654  1.00  0.00     0.002 A 
HETATM   10  C   UNL     1      42.952 -14.649   2.794  1.00  0.00     0.017 A 
BRANCH   7  11
HETATM   11  C   UNL     1      43.598 -18.853   3.170  1.00  0.00    -0.002 A 
HETATM   12  C   UNL     1      43.386 -19.781   2.168  1.00  0.00     0.153 A 
HETATM   13  O   UNL     1      43.662 -21.038   2.601  1.00  0.00    -0.334 OA
HETATM   14  C   UNL     1      44.053 -20.932   3.894  1.00  0.00     0.142 A 
HETATM   15  C   UNL     1      44.029 -19.616   4.294  1.00  0.00     0.038 A 
ENDBRANCH   7  11
ENDBRANCH   2   5
BRANCH   1  16
HETATM   16  C   UNL     1      43.061 -11.997   6.045  1.00  0.00     0.077 A 
HETATM   17  C   UNL     1      41.939 -11.177   6.137  1.00  0.00     0.077 A 
HETATM   18  C   UNL     1      41.905 -10.138   7.072  1.00  0.00     0.152 A 
HETATM   19  C   UNL     1      42.985  -9.891   7.926  1.00  0.00     0.109 A 
HETATM   20  F   UNL     1      40.795  -9.387   7.120  1.00  0.00    -0.203 F 
HETATM   21  C   UNL     1      44.104 -10.721   7.843  1.00  0.00     0.084 A 
HETATM   22  C   UNL     1      44.132 -11.756   6.913  1.00  0.00     0.145 A 
HETATM   23  F   UNL     1      45.227 -12.532   6.838  1.00  0.00    -0.204 F 
BRANCH  19  24
HETATM   24  O   UNL     1      43.089  -8.905   8.869  1.00  0.00    -0.353 OA
HETATM   25  C   UNL     1      42.452  -9.137  10.121  1.00  0.00     0.210 C 
ENDBRANCH  19  24
ENDBRANCH   1  16
TORSDOF 4
ENDMDL
MODEL 3
REMARK VINA RESULT:      -8.1      4.814      8.177
REMARK  4 active torsions:
REMARK  status: ('A' for Active; 'I' for Inactive)
REMARK    1  A    between atoms: O_2  and  C_3 
REMARK    2  A    between atoms: C_7  and  N_8 
REMARK       I    between atoms: N_8  and  C_9 
REMARK    3  A    between atoms: C_9  and  C_10 
REMARK    4  A    between atoms: C_12  and  C_13 
ROOT
HETATM    1  N   UNL     1      41.913 -15.900   2.296  1.00  0.00    -0.320 N 
HETATM    2  C   UNL     1      42.415 -14.708   1.808  1.00  0.00     0.256 C 
HETATM    3  O   UNL     1      43.588 -14.353   1.859  1.00  0.00    -0.267 OA
HETATM    4  H   UNL     1      40.910 -16.041   2.292  1.00  0.00     0.169 HD
ENDROOT
BRANCH   2   5
HETATM    5  C   UNL     1      41.422 -13.784   1.176  1.00  0.00     0.033 A 
HETATM    6  C   UNL     1      40.649 -14.148   0.061  1.00  0.00     0.029 A 
HETATM    7  C   UNL     1      39.741 -13.243  -0.512  1.00  0.00    -0.023 A 
HETATM    8  C   UNL     1      39.637 -11.955   0.036  1.00  0.00     0.012 A 
HETATM    9  C   UNL     1      40.415 -11.581   1.133  1.00  0.00     0.002 A 
HETATM   10  C   UNL     1      41.303 -12.491   1.701  1.00  0.00     0.017 A 
BRANCH   7  11
HETATM   11  C   UNL     1      38.938 -13.645  -1.661  1.00  0.00    -0.002 A 
HETATM   12  C   UNL     1      37.732 -13.071  -2.017  1.00  0.00     0.153 A 
HETATM   13  O   UNL     1      37.214 -13.670  -3.120  1.00  0.00    -0.334 OA
HETATM   14  C   UNL     1      38.083 -14.643  -3.485  1.00  0.00     0.142 A 
HETATM   15  C   UNL     1      39.156 -14.673  -2.624  1.00  0.00     0.038 A 
ENDBRANCH   7  11
ENDBRANCH   2   5
BRANCH   1  16
HETATM   16  C   UNL     1      42.647 -16.978   2.843  1.00  0.00     0.077 A 
HETATM   17  C   UNL     1      43.000 -18.131   2.147  1.00  0.00     0.077 A 
HETATM   18  C   UNL     1      43.701 -19.154   2.792  1.00  0.00     0.152 A 
HETATM   19  C   UNL     1      44.058 -19.053   4.140  1.00  0.00     0.109 A 
HETATM   20  F   UNL     1      44.020 -20.236   2.067  1.00  0.00    -0.203 F 
HETATM   21  C   UNL     1      43.716 -17.892   4.836  1.00  0.00     0.084 A 
HETATM   22  C   UNL     1      43.021 -16.875   4.188  1.00  0.00     0.145 A 
HETATM   23  F   UNL     1      42.686 -15.774   4.881  1.00  0.00    -0.204 F 
BRANCH  19  24
HETATM   24  O   UNL     1      44.725 -19.980   4.894  1.00  0.00    -0.353 OA
HETATM   25  C   UNL     1      43.960 -21.059   5.419  1.00  0.00     0.210 C 
ENDBRANCH  19  24
ENDBRANCH   1  16
TORSDOF 4
ENDMDL
MODEL 4
REMARK VINA RESULT:      -8.1      4.579      7.148
REMARK  4 active torsions:
REMARK  status: ('A' for Active; 'I' for Inactive)
REMARK    1  A    between atoms: O_2  and  C_3 
REMARK    2  A    between atoms: C_7  and  N_8 
REMARK       I    between atoms: N_8  and  C_9 
REMARK    3  A    between atoms: C_9  and  C_10 
REMARK    4  A    between atoms: C_12  and  C_13 
ROOT
HETATM    1  N   UNL     1      41.271 -14.511   0.898  1.00  0.00    -0.320 N 
HETATM    2  C   UNL     1      40.933 -14.756   2.216  1.00  0.00     0.256 C 
HETATM    3  O   UNL     1      39.902 -14.388   2.769  1.00  0.00    -0.267 OA
HETATM    4  H   UNL     1      42.196 -14.774   0.578  1.00  0.00     0.169 HD
ENDROOT
BRANCH   2   5
HETATM    5  C   UNL     1      41.930 -15.530   3.019  1.00  0.00     0.033 A 
HETATM    6  C   UNL     1      42.236 -16.876   2.757  1.00  0.00     0.029 A 
HETATM    7  C   UNL     1      43.166 -17.570   3.549  1.00  0.00    -0.023 A 
HETATM    8  C   UNL     1      43.768 -16.900   4.624  1.00  0.00     0.012 A 
HETATM    9  C   UNL     1      43.456 -15.568   4.901  1.00  0.00     0.002 A 
HETATM   10  C   UNL     1      42.541 -14.886   4.102  1.00  0.00     0.017 A 
BRANCH   7  11
HETATM   11  C   UNL     1      43.479 -18.963   3.251  1.00  0.00    -0.002 A 
HETATM   12  C   UNL     1      43.284 -19.568   2.024  1.00  0.00     0.153 A 
HETATM   13  O   UNL     1      43.653 -20.875   2.061  1.00  0.00    -0.334 OA
HETATM   14  C   UNL     1      44.088 -21.126   3.319  1.00  0.00     0.142 A 
HETATM   15  C   UNL     1      44.001 -19.990   4.090  1.00  0.00     0.038 A 
ENDBRANCH   7  11
ENDBRANCH   2   5
BRANCH   1  16
HETATM   16  C   UNL     1      40.470 -13.896  -0.092  1.00  0.00     0.077 A 
HETATM   17  C   UNL     1      39.601 -14.575  -0.943  1.00  0.00     0.077 A 
HETATM   18  C   UNL     1      38.876 -13.873  -1.911  1.00  0.00     0.152 A 
HETATM   19  C   UNL     1      39.005 -12.488  -2.054  1.00  0.00     0.109 A 
HETATM   20  F   UNL     1      38.050 -14.580  -2.695  1.00  0.00    -0.203 F 
HETATM   21  C   UNL     1      39.866 -11.805  -1.193  1.00  0.00     0.084 A 
HETATM   22  C   UNL     1      40.583 -12.507  -0.229  1.00  0.00     0.145 A 
HETATM   23  F   UNL     1      41.419 -11.833   0.578  1.00  0.00    -0.204 F 
BRANCH  19  24
HETATM   24  O   UNL     1      38.372 -11.685  -2.963  1.00  0.00    -0.353 OA
HETATM   25  C   UNL     1      39.033 -10.479  -3.332  1.00  0.00     0.210 C 
ENDBRANCH  19  24
ENDBRANCH   1  16
TORSDOF 4
ENDMDL
MODEL 5
REMARK VINA RESULT:      -7.9      4.270      6.421
REMARK  4 active torsions:
REMARK  status: ('A' for Active; 'I' for Inactive)
REMARK    1  A    between atoms: O_2  and  C_3 
REMARK    2  A    between atoms: C_7  and  N_8 
REMARK       I    between atoms: N_8  and  C_9 
REMARK    3  A    between atoms: C_9  and  C_10 
REMARK    4  A    between atoms: C_12  and  C_13 
ROOT
HETATM    1  N   UNL     1      41.880 -14.526   1.848  1.00  0.00    -0.320 N 
HETATM    2  C   UNL     1      41.725 -14.511   3.221  1.00  0.00     0.256 C 
HETATM    3  O   UNL     1      40.972 -13.773   3.848  1.00  0.00    -0.267 OA
HETATM    4  H   UNL     1      42.608 -15.106   1.448  1.00  0.00     0.169 HD
ENDROOT
BRANCH   2   5
HETATM    5  C   UNL     1      42.567 -15.482   3.989  1.00  0.00     0.033 A 
HETATM    6  C   UNL     1      42.763 -16.810   3.575  1.00  0.00     0.029 A 
HETATM    7  C   UNL     1      43.546 -17.693   4.336  1.00  0.00    -0.023 A 
HETATM    8  C   UNL     1      44.111 -17.230   5.535  1.00  0.00     0.012 A 
HETATM    9  C   UNL     1      43.905 -15.918   5.961  1.00  0.00     0.002 A 
HETATM   10  C   UNL     1      43.136 -15.047   5.192  1.00  0.00     0.017 A 
BRANCH   7  11
HETATM   11  C   UNL     1      43.749 -19.064   3.881  1.00  0.00    -0.002 A 
HETATM   12  C   UNL     1      43.620 -19.485   2.571  1.00  0.00     0.153 A 
HETATM   13  O   UNL     1      43.853 -20.818   2.462  1.00  0.00    -0.334 OA
HETATM   14  C   UNL     1      44.132 -21.272   3.708  1.00  0.00     0.142 A 
HETATM   15  C   UNL     1      44.079 -20.239   4.616  1.00  0.00     0.038 A 
ENDBRANCH   7  11
ENDBRANCH   2   5
BRANCH   1  16
HETATM   16  C   UNL     1      41.140 -13.787   0.895  1.00  0.00     0.077 A 
HETATM   17  C   UNL     1      41.340 -12.439   0.609  1.00  0.00     0.077 A 
HETATM   18  C   UNL     1      40.530 -11.794  -0.331  1.00  0.00     0.152 A 
HETATM   19  C   UNL     1      39.506 -12.473  -0.998  1.00  0.00     0.109 A 
HETATM   20  F   UNL     1      40.776 -10.497  -0.570  1.00  0.00    -0.203 F 
HETATM   21  C   UNL     1      39.313 -13.827  -0.721  1.00  0.00     0.084 A 
HETATM   22  C   UNL     1      40.124 -14.467   0.213  1.00  0.00     0.145 A 
HETATM   23  F   UNL     1      39.910 -15.767   0.477  1.00  0.00    -0.204 F 
BRANCH  19  24
HETATM   24  O   UNL     1      38.635 -11.963  -1.922  1.00  0.00    -0.353 OA
HETATM   25  C   UNL     1      37.513 -12.768  -2.266  1.00  0.00     0.210 C 
ENDBRANCH  19  24
ENDBRANCH   1  16
TORSDOF 4
ENDMDL
MODEL 6
REMARK VINA RESULT:      -7.8      1.561      1.751
REMARK  4 active torsions:
REMARK  status: ('A' for Active; 'I' for Inactive)
REMARK    1  A    between atoms: O_2  and  C_3 
REMARK    2  A    between atoms: C_7  and  N_8 
REMARK       I    between atoms: N_8  and  C_9 
REMARK    3  A    between atoms: C_9  and  C_10 
REMARK    4  A    between atoms: C_12  and  C_13 
ROOT
HETATM    1  N   UNL     1      42.902 -12.889   5.349  1.00  0.00    -0.320 N 
HETATM    2  C   UNL     1      43.071 -13.012   3.982  1.00  0.00     0.256 C 
HETATM    3  O   UNL     1      43.651 -12.209   3.259  1.00  0.00    -0.267 OA
HETATM    4  H   UNL     1      42.315 -13.563   5.827  1.00  0.00     0.169 HD
ENDROOT
BRANCH   2   5
HETATM    5  C   UNL     1      42.478 -14.233   3.352  1.00  0.00     0.033 A 
HETATM    6  C   UNL     1      43.048 -15.509   3.485  1.00  0.00     0.029 A 
HETATM    7  C   UNL     1      42.468 -16.625   2.861  1.00  0.00    -0.023 A 
HETATM    8  C   UNL     1      41.317 -16.438   2.079  1.00  0.00     0.012 A 
HETATM    9  C   UNL     1      40.755 -15.170   1.929  1.00  0.00     0.002 A 
HETATM   10  C   UNL     1      41.332 -14.072   2.563  1.00  0.00     0.017 A 
BRANCH   7  11
HETATM   11  C   UNL     1      43.068 -17.945   3.022  1.00  0.00    -0.002 A 
HETATM   12  C   UNL     1      43.836 -18.332   4.104  1.00  0.00     0.153 A 
HETATM   13  O   UNL     1      44.269 -19.611   3.961  1.00  0.00    -0.334 OA
HETATM   14  C   UNL     1      43.787 -20.061   2.778  1.00  0.00     0.142 A 
HETATM   15  C   UNL     1      43.047 -19.079   2.160  1.00  0.00     0.038 A 
ENDBRANCH   7  11
ENDBRANCH   2   5
BRANCH   1  16
HETATM   16  C   UNL     1      43.445 -11.892   6.192  1.00  0.00     0.077 A 
HETATM   17  C   UNL     1      44.746 -11.898   6.690  1.00  0.00     0.077 A 
HETATM   18  C   UNL     1      45.175 -10.878   7.544  1.00  0.00     0.152 A 
HETATM   19  C   UNL     1      44.319  -9.839   7.924  1.00  0.00     0.109 A 
HETATM   20  F   UNL     1      46.440 -10.932   7.984  1.00  0.00    -0.203 F 
HETATM   21  C   UNL     1      43.019  -9.826   7.417  1.00  0.00     0.084 A 
HETATM   22  C   UNL     1      42.597 -10.842   6.563  1.00  0.00     0.145 A 
HETATM   23  F   UNL     1      41.337 -10.819   6.099  1.00  0.00    -0.204 F 
BRANCH  19  24
HETATM   24  O   UNL     1      44.602  -8.794   8.761  1.00  0.00    -0.353 OA
HETATM   25  C   UNL     1      44.014  -8.826  10.058  1.00  0.00     0.210 C 
ENDBRANCH  19  24
ENDBRANCH   1  16
TORSDOF 4
ENDMDL
MODEL 7
REMARK VINA RESULT:      -7.6      1.510      2.229
REMARK  4 active torsions:
REMARK  status: ('A' for Active; 'I' for Inactive)
REMARK    1  A    between atoms: O_2  and  C_3 
REMARK    2  A    between atoms: C_7  and  N_8 
REMARK       I    between atoms: N_8  and  C_9 
REMARK    3  A    between atoms: C_9  and  C_10 
REMARK    4  A    between atoms: C_12  and  C_13 
ROOT
HETATM    1  N   UNL     1      42.121 -13.136   4.681  1.00  0.00    -0.320 N 
HETATM    2  C   UNL     1      42.154 -14.485   4.980  1.00  0.00     0.256 C 
HETATM    3  O   UNL     1      41.864 -14.985   6.062  1.00  0.00    -0.267 OA
HETATM    4  H   UNL     1      42.482 -12.829   3.786  1.00  0.00     0.169 HD
ENDROOT
BRANCH   2   5
HETATM    5  C   UNL     1      42.597 -15.393   3.876  1.00  0.00     0.033 A 
HETATM    6  C   UNL     1      42.891 -16.751   4.082  1.00  0.00     0.029 A 
HETATM    7  C   UNL     1      43.321 -17.563   3.020  1.00  0.00    -0.023 A 
HETATM    8  C   UNL     1      43.476 -16.987   1.750  1.00  0.00     0.012 A 
HETATM    9  C   UNL     1      43.202 -15.634   1.542  1.00  0.00     0.002 A 
HETATM   10  C   UNL     1      42.765 -14.841   2.600  1.00  0.00     0.017 A 
BRANCH   7  11
HETATM   11  C   UNL     1      43.608 -18.975   3.252  1.00  0.00    -0.002 A 
HETATM   12  C   UNL     1      43.568 -19.956   2.279  1.00  0.00     0.153 A 
HETATM   13  O   UNL     1      43.864 -21.173   2.802  1.00  0.00    -0.334 OA
HETATM   14  C   UNL     1      44.096 -20.988   4.124  1.00  0.00     0.142 A 
HETATM   15  C   UNL     1      43.950 -19.661   4.453  1.00  0.00     0.038 A 
ENDBRANCH   7  11
ENDBRANCH   2   5
BRANCH   1  16
HETATM   16  C   UNL     1      41.650 -12.088   5.506  1.00  0.00     0.077 A 
HETATM   17  C   UNL     1      40.329 -11.938   5.920  1.00  0.00     0.077 A 
HETATM   18  C   UNL     1      39.961 -10.846   6.712  1.00  0.00     0.152 A 
HETATM   19  C   UNL     1      40.896  -9.881   7.099  1.00  0.00     0.109 A 
HETATM   20  F   UNL     1      38.677 -10.760   7.086  1.00  0.00    -0.203 F 
HETATM   21  C   UNL     1      42.223 -10.036   6.694  1.00  0.00     0.084 A 
HETATM   22  C   UNL     1      42.585 -11.128   5.910  1.00  0.00     0.145 A 
HETATM   23  F   UNL     1      43.864 -11.249   5.517  1.00  0.00    -0.204 F 
BRANCH  19  24
HETATM   24  O   UNL     1      40.670  -8.761   7.853  1.00  0.00    -0.353 OA
HETATM   25  C   UNL     1      40.564  -8.940   9.261  1.00  0.00     0.210 C 
ENDBRANCH  19  24
ENDBRANCH   1  16
TORSDOF 4
ENDMDL
MODEL 8
REMARK VINA RESULT:      -7.5      3.181      8.872
REMARK  4 active torsions:
REMARK  status: ('A' for Active; 'I' for Inactive)
REMARK    1  A    between atoms: O_2  and  C_3 
REMARK    2  A    between atoms: C_7  and  N_8 
REMARK       I    between atoms: N_8  and  C_9 
REMARK    3  A    between atoms: C_9  and  C_10 
REMARK    4  A    between atoms: C_12  and  C_13 
ROOT
HETATM    1  N   UNL     1      43.195 -12.558   6.831  1.00  0.00    -0.320 N 
HETATM    2  C   UNL     1      44.194 -11.659   6.503  1.00  0.00     0.256 C 
HETATM    3  O   UNL     1      44.671 -11.498   5.385  1.00  0.00    -0.267 OA
HETATM    4  H   UNL     1      42.953 -12.677   7.807  1.00  0.00     0.169 HD
ENDROOT
BRANCH   2   5
HETATM    5  C   UNL     1      44.729 -10.830   7.628  1.00  0.00     0.033 A 
HETATM    6  C   UNL     1      44.030 -10.640   8.830  1.00  0.00     0.029 A 
HETATM    7  C   UNL     1      44.562  -9.838   9.853  1.00  0.00    -0.023 A 
HETATM    8  C   UNL     1      45.798  -9.209   9.642  1.00  0.00     0.012 A 
HETATM    9  C   UNL     1      46.490  -9.379   8.443  1.00  0.00     0.002 A 
HETATM   10  C   UNL     1      45.959 -10.186   7.439  1.00  0.00     0.017 A 
BRANCH   7  11
HETATM   11  C   UNL     1      43.826  -9.665  11.101  1.00  0.00    -0.002 A 
HETATM   12  C   UNL     1      43.271 -10.695  11.836  1.00  0.00     0.153 A 
HETATM   13  O   UNL     1      42.634 -10.220  12.937  1.00  0.00    -0.334 OA
HETATM   14  C   UNL     1      42.768  -8.872  12.919  1.00  0.00     0.142 A 
HETATM   15  C   UNL     1      43.488  -8.479  11.815  1.00  0.00     0.038 A 
ENDBRANCH   7  11
ENDBRANCH   2   5
BRANCH   1  16
HETATM   16  C   UNL     1      42.458 -13.379   5.946  1.00  0.00     0.077 A 
HETATM   17  C   UNL     1      41.280 -12.999   5.308  1.00  0.00     0.077 A 
HETATM   18  C   UNL     1      40.611 -13.901   4.475  1.00  0.00     0.152 A 
HETATM   19  C   UNL     1      41.096 -15.196   4.267  1.00  0.00     0.109 A 
HETATM   20  F   UNL     1      39.487 -13.475   3.882  1.00  0.00    -0.203 F 
HETATM   21  C   UNL     1      42.283 -15.574   4.896  1.00  0.00     0.084 A 
HETATM   22  C   UNL     1      42.948 -14.671   5.722  1.00  0.00     0.145 A 
HETATM   23  F   UNL     1      44.080 -15.061   6.331  1.00  0.00    -0.204 F 
BRANCH  19  24
HETATM   24  O   UNL     1      40.536 -16.178   3.496  1.00  0.00    -0.353 OA
HETATM   25  C   UNL     1      40.682 -16.055   2.085  1.00  0.00     0.210 C 
ENDBRANCH  19  24
ENDBRANCH   1  16
TORSDOF 4
ENDMDL
MODEL 9
REMARK VINA RESULT:      -7.4      1.709      2.195
REMARK  4 active torsions:
REMARK  status: ('A' for Active; 'I' for Inactive)
REMARK    1  A    between atoms: O_2  and  C_3 
REMARK    2  A    between atoms: C_7  and  N_8 
REMARK       I    between atoms: N_8  and  C_9 
REMARK    3  A    between atoms: C_9  and  C_10 
REMARK    4  A    between atoms: C_12  and  C_13 
ROOT
HETATM    1  N   UNL     1      42.933 -12.690   5.294  1.00  0.00    -0.320 N 
HETATM    2  C   UNL     1      43.079 -12.632   3.920  1.00  0.00     0.256 C 
HETATM    3  O   UNL     1      43.377 -11.633   3.275  1.00  0.00    -0.267 OA
HETATM    4  H   UNL     1      42.582 -13.546   5.708  1.00  0.00     0.169 HD
ENDROOT
BRANCH   2   5
HETATM    5  C   UNL     1      42.838 -13.909   3.178  1.00  0.00     0.033 A 
HETATM    6  C   UNL     1      43.291 -15.155   3.642  1.00  0.00     0.029 A 
HETATM    7  C   UNL     1      43.059 -16.326   2.904  1.00  0.00    -0.023 A 
HETATM    8  C   UNL     1      42.385 -16.227   1.677  1.00  0.00     0.012 A 
HETATM    9  C   UNL     1      41.947 -14.990   1.200  1.00  0.00     0.002 A 
HETATM   10  C   UNL     1      42.173 -13.836   1.947  1.00  0.00     0.017 A 
BRANCH   7  11
HETATM   11  C   UNL     1      43.525 -17.612   3.411  1.00  0.00    -0.002 A 
HETATM   12  C   UNL     1      43.448 -18.805   2.718  1.00  0.00     0.153 A 
HETATM   13  O   UNL     1      43.946 -19.831   3.456  1.00  0.00    -0.334 OA
HETATM   14  C   UNL     1      44.347 -19.306   4.639  1.00  0.00     0.142 A 
HETATM   15  C   UNL     1      44.109 -17.951   4.665  1.00  0.00     0.038 A 
ENDBRANCH   7  11
ENDBRANCH   2   5
BRANCH   1  16
HETATM   16  C   UNL     1      43.198 -11.661   6.227  1.00  0.00     0.077 A 
HETATM   17  C   UNL     1      42.360 -10.575   6.468  1.00  0.00     0.077 A 
HETATM   18  C   UNL     1      42.731  -9.594   7.392  1.00  0.00     0.152 A 
HETATM   19  C   UNL     1      43.942  -9.671   8.088  1.00  0.00     0.109 A 
HETATM   20  F   UNL     1      41.880  -8.577   7.587  1.00  0.00    -0.203 F 
HETATM   21  C   UNL     1      44.777 -10.765   7.856  1.00  0.00     0.084 A 
HETATM   22  C   UNL     1      44.401 -11.742   6.937  1.00  0.00     0.145 A 
HETATM   23  F   UNL     1      45.227 -12.778   6.717  1.00  0.00    -0.204 F 
BRANCH  19  24
HETATM   24  O   UNL     1      44.433  -8.778   9.000  1.00  0.00    -0.353 OA
HETATM   25  C   UNL     1      43.837  -8.781  10.294  1.00  0.00     0.210 C 
ENDBRANCH  19  24
ENDBRANCH   1  16
TORSDOF 4
ENDMDL
MODEL 10
REMARK VINA RESULT:      -7.3      2.584      4.199
REMARK  4 active torsions:
REMARK  status: ('A' for Active; 'I' for Inactive)
REMARK    1  A    between atoms: O_2  and  C_3 
REMARK    2  A    between atoms: C_7  and  N_8 
REMARK       I    between atoms: N_8  and  C_9 
REMARK    3  A    between atoms: C_9  and  C_10 
REMARK    4  A    between atoms: C_12  and  C_13 
ROOT
HETATM    1  N   UNL     1      43.438 -12.789   5.088  1.00  0.00    -0.320 N 
HETATM    2  C   UNL     1      43.084 -14.110   5.291  1.00  0.00     0.256 C 
HETATM    3  O   UNL     1      43.250 -14.743   6.328  1.00  0.00    -0.267 OA
HETATM    4  H   UNL     1      43.349 -12.401   4.156  1.00  0.00     0.169 HD
ENDROOT
BRANCH   2   5
HETATM    5  C   UNL     1      42.457 -14.810   4.126  1.00  0.00     0.033 A 
HETATM    6  C   UNL     1      41.715 -14.134   3.144  1.00  0.00     0.029 A 
HETATM    7  C   UNL     1      41.127 -14.833   2.078  1.00  0.00    -0.023 A 
HETATM    8  C   UNL     1      41.274 -16.227   2.023  1.00  0.00     0.012 A 
HETATM    9  C   UNL     1      41.996 -16.908   3.005  1.00  0.00     0.002 A 
HETATM   10  C   UNL     1      42.585 -16.203   4.052  1.00  0.00     0.017 A 
BRANCH   7  11
HETATM   11  C   UNL     1      40.372 -14.110   1.060  1.00  0.00    -0.002 A 
HETATM   12  C   UNL     1      39.744 -12.895   1.262  1.00  0.00     0.153 A 
HETATM   13  O   UNL     1      39.107 -12.483   0.136  1.00  0.00    -0.334 OA
HETATM   14  C   UNL     1      39.316 -13.434  -0.806  1.00  0.00     0.142 A 
HETATM   15  C   UNL     1      40.082 -14.454  -0.292  1.00  0.00     0.038 A 
ENDBRANCH   7  11
ENDBRANCH   2   5
BRANCH   1  16
HETATM   16  C   UNL     1      43.950 -11.883   6.046  1.00  0.00     0.077 A 
HETATM   17  C   UNL     1      45.302 -11.720   6.339  1.00  0.00     0.077 A 
HETATM   18  C   UNL     1      45.701 -10.817   7.329  1.00  0.00     0.152 A 
HETATM   19  C   UNL     1      44.767 -10.066   8.048  1.00  0.00     0.109 A 
HETATM   20  F   UNL     1      47.016 -10.698   7.560  1.00  0.00    -0.203 F 
HETATM   21  C   UNL     1      43.412 -10.220   7.747  1.00  0.00     0.084 A 
HETATM   22  C   UNL     1      43.020 -11.117   6.758  1.00  0.00     0.145 A 
HETATM   23  F   UNL     1      41.710 -11.262   6.495  1.00  0.00    -0.204 F 
BRANCH  19  24
HETATM   24  O   UNL     1      45.018  -9.165   9.047  1.00  0.00    -0.353 OA
HETATM   25  C   UNL     1      44.958  -9.650  10.385  1.00  0.00     0.210 C 
ENDBRANCH  19  24
ENDBRANCH   1  16
TORSDOF 4
ENDMDL
