MODEL 1
REMARK VINA RESULT:      -9.4      0.000      0.000
REMARK  4 active torsions:
REMARK  status: ('A' for Active; 'I' for Inactive)
REMARK    1  A    between atoms: C_8  and  C_9 
REMARK    2  A    between atoms: N_10  and  N_11 
REMARK       I    between atoms: N_11  and  C_12 
REMARK    3  A    between atoms: C_12  and  C_13 
REMARK    4  A    between atoms: C_17  and  C_18 
ROOT
HETATM    1  N   UNL     1      43.306 -12.408   7.183  1.00  0.00    -0.242 N 
HETATM    2  C   UNL     1      44.233 -11.383   7.292  1.00  0.00     0.292 C 
HETATM    3  O   UNL     1      44.927 -10.948   6.376  1.00  0.00    -0.264 OA
HETATM    4  H   UNL     1      42.795 -12.667   8.024  1.00  0.00     0.192 HD
ENDROOT
BRANCH   2   5
HETATM    5  C   UNL     1      44.313 -10.836   8.656  1.00  0.00     0.148 A 
HETATM    6  N   UNL     1      45.480 -10.664   9.310  1.00  0.00    -0.169 NA
HETATM    7  N   UNL     1      45.107 -10.155  10.501  1.00  0.00    -0.277 N 
HETATM    8  H   UNL     1      45.830  -9.958  11.186  1.00  0.00     0.189 HD
HETATM    9  C   UNL     1      43.754  -9.981  10.649  1.00  0.00     0.063 A 
HETATM   10  C   UNL     1      43.219 -10.425   9.457  1.00  0.00     0.071 A 
BRANCH   9  11
HETATM   11  C   UNL     1      43.111  -9.456  11.854  1.00  0.00    -0.005 A 
HETATM   12  C   UNL     1      43.609  -8.322  12.513  1.00  0.00     0.053 A 
HETATM   13  C   UNL     1      42.940  -7.870  13.634  1.00  0.00     0.106 A 
HETATM   14  C   UNL     1      41.815  -8.497  14.114  1.00  0.00     0.105 A 
HETATM   15  O   UNL     1      43.285  -6.786  14.379  1.00  0.00    -0.323 OA
HETATM   16  O   UNL     1      41.312  -7.889  15.220  1.00  0.00    -0.323 OA
HETATM   17  C   UNL     1      41.294  -9.612  13.500  1.00  0.00     0.040 A 
HETATM   18  C   UNL     1      42.239  -6.796  15.374  1.00  0.00     0.352 A 
HETATM   19  C   UNL     1      41.950 -10.091  12.359  1.00  0.00     0.017 A 
ENDBRANCH   9  11
ENDBRANCH   2   5
BRANCH   1  20
HETATM   20  N   UNL     1      43.093 -13.024   5.987  1.00  0.00    -0.183 NA
HETATM   21  C   UNL     1      43.213 -14.312   5.975  1.00  0.00     0.152 C 
BRANCH  21  22
HETATM   22  C   UNL     1      42.996 -15.022   4.730  1.00  0.00     0.011 A 
HETATM   23  C   UNL     1      43.427 -16.342   4.381  1.00  0.00     0.004 A 
HETATM   24  C   UNL     1      44.153 -17.353   5.046  1.00  0.00     0.014 A 
HETATM   25  C   UNL     1      42.985 -16.594   3.080  1.00  0.00     0.043 A 
HETATM   26  C   UNL     1      44.406 -18.567   4.393  1.00  0.00     0.001 A 
HETATM   27  C   UNL     1      43.951 -18.784   3.096  1.00  0.00     0.002 A 
HETATM   28  C   UNL     1      43.230 -17.801   2.412  1.00  0.00     0.030 A 
HETATM   29  N   UNL     1      42.314 -15.472   2.653  1.00  0.00    -0.364 N 
HETATM   30  H   UNL     1      41.882 -15.370   1.745  1.00  0.00     0.165 HD
HETATM   31  C   UNL     1      42.313 -14.524   3.635  1.00  0.00     0.102 A 
ENDBRANCH  21  22
ENDBRANCH   1  20
TORSDOF 4
ENDMDL
MODEL 2
REMARK VINA RESULT:      -9.3      1.179      1.770
REMARK  4 active torsions:
REMARK  status: ('A' for Active; 'I' for Inactive)
REMARK    1  A    between atoms: C_8  and  C_9 
REMARK    2  A    between atoms: N_10  and  N_11 
REMARK       I    between atoms: N_11  and  C_12 
REMARK    3  A    between atoms: C_12  and  C_13 
REMARK    4  A    between atoms: C_17  and  C_18 
ROOT
HETATM    1  N   UNL     1      43.651 -12.450   7.515  1.00  0.00    -0.242 N 
HETATM    2  C   UNL     1      44.601 -11.458   7.702  1.00  0.00     0.292 C 
HETATM    3  O   UNL     1      45.683 -11.387   7.124  1.00  0.00    -0.264 OA
HETATM    4  H   UNL     1      42.793 -12.384   8.057  1.00  0.00     0.192 HD
ENDROOT
BRANCH   2   5
HETATM    5  C   UNL     1      44.179 -10.451   8.688  1.00  0.00     0.148 A 
HETATM    6  N   UNL     1      44.255  -9.123   8.460  1.00  0.00    -0.169 NA
HETATM    7  N   UNL     1      43.781  -8.576   9.598  1.00  0.00    -0.277 N 
HETATM    8  H   UNL     1      43.761  -7.564   9.670  1.00  0.00     0.189 HD
HETATM    9  C   UNL     1      43.395  -9.484  10.551  1.00  0.00     0.063 A 
HETATM   10  C   UNL     1      43.652 -10.712   9.978  1.00  0.00     0.071 A 
BRANCH   9  11
HETATM   11  C   UNL     1      42.862  -9.131  11.867  1.00  0.00    -0.005 A 
HETATM   12  C   UNL     1      43.434  -8.104  12.634  1.00  0.00     0.053 A 
HETATM   13  C   UNL     1      42.868  -7.811  13.860  1.00  0.00     0.106 A 
HETATM   14  C   UNL     1      41.775  -8.492  14.340  1.00  0.00     0.105 A 
HETATM   15  O   UNL     1      43.292  -6.846  14.719  1.00  0.00    -0.323 OA
HETATM   16  O   UNL     1      41.375  -8.044  15.559  1.00  0.00    -0.323 OA
HETATM   17  C   UNL     1      41.185  -9.507  13.621  1.00  0.00     0.040 A 
HETATM   18  C   UNL     1      42.331  -6.990  15.787  1.00  0.00     0.352 A 
HETATM   19  C   UNL     1      41.736  -9.823  12.374  1.00  0.00     0.017 A 
ENDBRANCH   9  11
ENDBRANCH   2   5
BRANCH   1  20
HETATM   20  N   UNL     1      43.872 -13.460   6.627  1.00  0.00    -0.183 NA
HETATM   21  C   UNL     1      42.984 -14.400   6.595  1.00  0.00     0.152 C 
BRANCH  21  22
HETATM   22  C   UNL     1      43.165 -15.499   5.668  1.00  0.00     0.011 A 
HETATM   23  C   UNL     1      43.134 -15.462   4.237  1.00  0.00     0.004 A 
HETATM   24  C   UNL     1      42.936 -14.443   3.279  1.00  0.00     0.014 A 
HETATM   25  C   UNL     1      43.360 -16.763   3.780  1.00  0.00     0.043 A 
HETATM   26  C   UNL     1      42.972 -14.761   1.915  1.00  0.00     0.001 A 
HETATM   27  C   UNL     1      43.199 -16.069   1.495  1.00  0.00     0.002 A 
HETATM   28  C   UNL     1      43.397 -17.097   2.421  1.00  0.00     0.030 A 
HETATM   29  N   UNL     1      43.520 -17.561   4.889  1.00  0.00    -0.364 N 
HETATM   30  H   UNL     1      43.698 -18.556   4.861  1.00  0.00     0.165 HD
HETATM   31  C   UNL     1      43.406 -16.814   6.025  1.00  0.00     0.102 A 
ENDBRANCH  21  22
ENDBRANCH   1  20
TORSDOF 4
ENDMDL
MODEL 3
REMARK VINA RESULT:      -8.8      3.196     11.000
REMARK  4 active torsions:
REMARK  status: ('A' for Active; 'I' for Inactive)
REMARK    1  A    between atoms: C_8  and  C_9 
REMARK    2  A    between atoms: N_10  and  N_11 
REMARK       I    between atoms: N_11  and  C_12 
REMARK    3  A    between atoms: C_12  and  C_13 
REMARK    4  A    between atoms: C_17  and  C_18 
ROOT
HETATM    1  N   UNL     1      43.004 -11.491   6.385  1.00  0.00    -0.242 N 
HETATM    2  C   UNL     1      41.950 -12.143   5.762  1.00  0.00     0.292 C 
HETATM    3  O   UNL     1      40.759 -11.880   5.911  1.00  0.00    -0.264 OA
HETATM    4  H   UNL     1      43.945 -11.810   6.167  1.00  0.00     0.192 HD
ENDROOT
BRANCH   2   5
HETATM    5  C   UNL     1      42.402 -13.218   4.865  1.00  0.00     0.148 A 
HETATM    6  N   UNL     1      42.829 -12.992   3.605  1.00  0.00    -0.169 NA
HETATM    7  N   UNL     1      43.137 -14.222   3.147  1.00  0.00    -0.277 N 
HETATM    8  H   UNL     1      43.468 -14.308   2.191  1.00  0.00     0.189 HD
HETATM    9  C   UNL     1      42.937 -15.235   4.050  1.00  0.00     0.063 A 
HETATM   10  C   UNL     1      42.453 -14.600   5.175  1.00  0.00     0.071 A 
BRANCH   9  11
HETATM   11  C   UNL     1      43.188 -16.651   3.779  1.00  0.00    -0.005 A 
HETATM   12  C   UNL     1      43.639 -17.518   4.786  1.00  0.00     0.053 A 
HETATM   13  C   UNL     1      43.837 -18.847   4.465  1.00  0.00     0.106 A 
HETATM   14  C   UNL     1      43.606 -19.333   3.200  1.00  0.00     0.105 A 
HETATM   15  O   UNL     1      44.261 -19.814   5.321  1.00  0.00    -0.323 OA
HETATM   16  O   UNL     1      43.857 -20.665   3.100  1.00  0.00    -0.323 OA
HETATM   17  C   UNL     1      43.165 -18.518   2.184  1.00  0.00     0.040 A 
HETATM   18  C   UNL     1      44.257 -20.968   4.452  1.00  0.00     0.352 A 
HETATM   19  C   UNL     1      42.953 -17.167   2.482  1.00  0.00     0.017 A 
ENDBRANCH   9  11
ENDBRANCH   2   5
BRANCH   1  20
HETATM   20  N   UNL     1      42.768 -10.459   7.243  1.00  0.00    -0.183 NA
HETATM   21  C   UNL     1      43.709 -10.191   8.089  1.00  0.00     0.152 C 
BRANCH  21  22
HETATM   22  C   UNL     1      43.515  -9.103   9.026  1.00  0.00     0.011 A 
HETATM   23  C   UNL     1      43.224  -9.184  10.426  1.00  0.00     0.004 A 
HETATM   24  C   UNL     1      43.035 -10.247  11.336  1.00  0.00     0.014 A 
HETATM   25  C   UNL     1      43.126  -7.876  10.908  1.00  0.00     0.043 A 
HETATM   26  C   UNL     1      42.757  -9.964  12.680  1.00  0.00     0.001 A 
HETATM   27  C   UNL     1      42.666  -8.649  13.126  1.00  0.00     0.002 A 
HETATM   28  C   UNL     1      42.848  -7.577  12.248  1.00  0.00     0.030 A 
HETATM   29  N   UNL     1      43.346  -7.033   9.845  1.00  0.00    -0.364 N 
HETATM   30  H   UNL     1      43.336  -6.023   9.899  1.00  0.00     0.165 HD
HETATM   31  C   UNL     1      43.581  -7.757   8.712  1.00  0.00     0.102 A 
ENDBRANCH  21  22
ENDBRANCH   1  20
TORSDOF 4
ENDMDL
MODEL 4
REMARK VINA RESULT:      -8.8      8.414     11.314
REMARK  4 active torsions:
REMARK  status: ('A' for Active; 'I' for Inactive)
REMARK    1  A    between atoms: C_8  and  C_9 
REMARK    2  A    between atoms: N_10  and  N_11 
REMARK       I    between atoms: N_11  and  C_12 
REMARK    3  A    between atoms: C_12  and  C_13 
REMARK    4  A    between atoms: C_17  and  C_18 
ROOT
HETATM    1  N   UNL     1      42.039 -14.217   1.185  1.00  0.00    -0.242 N 
HETATM    2  C   UNL     1      40.728 -13.984   0.800  1.00  0.00     0.292 C 
HETATM    3  O   UNL     1      39.728 -14.429   1.360  1.00  0.00    -0.264 OA
HETATM    4  H   UNL     1      42.773 -13.782   0.633  1.00  0.00     0.192 HD
ENDROOT
BRANCH   2   5
HETATM    5  C   UNL     1      40.633 -13.116  -0.384  1.00  0.00     0.148 A 
HETATM    6  N   UNL     1      40.065 -13.513  -1.541  1.00  0.00    -0.169 NA
HETATM    7  N   UNL     1      40.191 -12.438  -2.345  1.00  0.00    -0.277 N 
HETATM    8  H   UNL     1      39.846 -12.508  -3.297  1.00  0.00     0.189 HD
HETATM    9  C   UNL     1      40.807 -11.359  -1.763  1.00  0.00     0.063 A 
HETATM   10  C   UNL     1      41.108 -11.784  -0.485  1.00  0.00     0.071 A 
BRANCH   9  11
HETATM   11  C   UNL     1      41.068 -10.087  -2.438  1.00  0.00    -0.005 A 
HETATM   12  C   UNL     1      41.811  -9.071  -1.818  1.00  0.00     0.053 A 
HETATM   13  C   UNL     1      42.034  -7.902  -2.521  1.00  0.00     0.106 A 
HETATM   14  C   UNL     1      41.553  -7.714  -3.794  1.00  0.00     0.105 A 
HETATM   15  O   UNL     1      42.738  -6.829  -2.070  1.00  0.00    -0.323 OA
HETATM   16  O   UNL     1      41.889  -6.501  -4.304  1.00  0.00    -0.323 OA
HETATM   17  C   UNL     1      40.818  -8.683  -4.437  1.00  0.00     0.040 A 
HETATM   18  C   UNL     1      42.654  -5.950  -3.213  1.00  0.00     0.352 A 
HETATM   19  C   UNL     1      40.579  -9.879  -3.750  1.00  0.00     0.017 A 
ENDBRANCH   9  11
ENDBRANCH   2   5
BRANCH   1  20
HETATM   20  N   UNL     1      42.313 -14.993   2.272  1.00  0.00    -0.183 NA
HETATM   21  C   UNL     1      43.106 -15.996   2.076  1.00  0.00     0.152 C 
BRANCH  21  22
HETATM   22  C   UNL     1      43.434 -16.855   3.195  1.00  0.00     0.011 A 
HETATM   23  C   UNL     1      43.565 -18.281   3.204  1.00  0.00     0.004 A 
HETATM   24  C   UNL     1      43.438 -19.292   2.227  1.00  0.00     0.014 A 
HETATM   25  C   UNL     1      43.893 -18.662   4.508  1.00  0.00     0.043 A 
HETATM   26  C   UNL     1      43.641 -20.631   2.586  1.00  0.00     0.001 A 
HETATM   27  C   UNL     1      43.966 -20.974   3.896  1.00  0.00     0.002 A 
HETATM   28  C   UNL     1      44.098 -19.995   4.884  1.00  0.00     0.030 A 
HETATM   29  N   UNL     1      43.957 -17.514   5.263  1.00  0.00    -0.364 N 
HETATM   30  H   UNL     1      44.176 -17.485   6.250  1.00  0.00     0.165 HD
HETATM   31  C   UNL     1      43.685 -16.425   4.486  1.00  0.00     0.102 A 
ENDBRANCH  21  22
ENDBRANCH   1  20
TORSDOF 4
ENDMDL
MODEL 5
REMARK VINA RESULT:      -8.7      1.778      2.210
REMARK  4 active torsions:
REMARK  status: ('A' for Active; 'I' for Inactive)
REMARK    1  A    between atoms: C_8  and  C_9 
REMARK    2  A    between atoms: N_10  and  N_11 
REMARK       I    between atoms: N_11  and  C_12 
REMARK    3  A    between atoms: C_12  and  C_13 
REMARK    4  A    between atoms: C_17  and  C_18 
ROOT
HETATM    1  N   UNL     1      42.870 -11.658   6.944  1.00  0.00    -0.242 N 
HETATM    2  C   UNL     1      44.188 -11.534   7.356  1.00  0.00     0.292 C 
HETATM    3  O   UNL     1      45.160 -12.051   6.809  1.00  0.00    -0.264 OA
HETATM    4  H   UNL     1      42.163 -11.172   7.489  1.00  0.00     0.192 HD
ENDROOT
BRANCH   2   5
HETATM    5  C   UNL     1      44.329 -10.689   8.553  1.00  0.00     0.148 A 
HETATM    6  N   UNL     1      45.439 -10.680   9.319  1.00  0.00    -0.169 NA
HETATM    7  N   UNL     1      45.150  -9.790  10.289  1.00  0.00    -0.277 N 
HETATM    8  H   UNL     1      45.845  -9.627  11.011  1.00  0.00     0.189 HD
HETATM    9  C   UNL     1      43.909  -9.216  10.187  1.00  0.00     0.063 A 
HETATM   10  C   UNL     1      43.356  -9.793   9.063  1.00  0.00     0.071 A 
BRANCH   9  11
HETATM   11  C   UNL     1      43.368  -8.233  11.127  1.00  0.00    -0.005 A 
HETATM   12  C   UNL     1      42.729  -7.068  10.677  1.00  0.00     0.053 A 
HETATM   13  C   UNL     1      42.225  -6.193  11.620  1.00  0.00     0.106 A 
HETATM   14  C   UNL     1      42.334  -6.432  12.968  1.00  0.00     0.105 A 
HETATM   15  O   UNL     1      41.574  -5.029  11.352  1.00  0.00    -0.323 OA
HETATM   16  O   UNL     1      41.768  -5.451  13.719  1.00  0.00    -0.323 OA
HETATM   17  C   UNL     1      42.954  -7.561  13.452  1.00  0.00     0.040 A 
HETATM   18  C   UNL     1      41.274  -4.572  12.689  1.00  0.00     0.352 A 
HETATM   19  C   UNL     1      43.472  -8.467  12.519  1.00  0.00     0.017 A 
ENDBRANCH   9  11
ENDBRANCH   2   5
BRANCH   1  20
HETATM   20  N   UNL     1      42.557 -12.398   5.843  1.00  0.00    -0.183 NA
HETATM   21  C   UNL     1      41.353 -12.866   5.790  1.00  0.00     0.152 C 
BRANCH  21  22
HETATM   22  C   UNL     1      40.962 -13.659   4.642  1.00  0.00     0.011 A 
HETATM   23  C   UNL     1      41.645 -14.780   4.070  1.00  0.00     0.004 A 
HETATM   24  C   UNL     1      42.837 -15.472   4.375  1.00  0.00     0.014 A 
HETATM   25  C   UNL     1      40.889 -15.217   2.979  1.00  0.00     0.043 A 
HETATM   26  C   UNL     1      43.224 -16.563   3.585  1.00  0.00     0.001 A 
HETATM   27  C   UNL     1      42.447 -16.970   2.505  1.00  0.00     0.002 A 
HETATM   28  C   UNL     1      41.263 -16.304   2.180  1.00  0.00     0.030 A 
HETATM   29  N   UNL     1      39.791 -14.393   2.889  1.00  0.00    -0.364 N 
HETATM   30  H   UNL     1      39.066 -14.474   2.189  1.00  0.00     0.165 HD
HETATM   31  C   UNL     1      39.824 -13.457   3.881  1.00  0.00     0.102 A 
ENDBRANCH  21  22
ENDBRANCH   1  20
TORSDOF 4
ENDMDL
MODEL 6
REMARK VINA RESULT:      -8.6      1.475      1.937
REMARK  4 active torsions:
REMARK  status: ('A' for Active; 'I' for Inactive)
REMARK    1  A    between atoms: C_8  and  C_9 
REMARK    2  A    between atoms: N_10  and  N_11 
REMARK       I    between atoms: N_11  and  C_12 
REMARK    3  A    between atoms: C_12  and  C_13 
REMARK    4  A    between atoms: C_17  and  C_18 
ROOT
HETATM    1  N   UNL     1      43.289 -11.756   7.745  1.00  0.00    -0.242 N 
HETATM    2  C   UNL     1      44.043 -10.774   8.369  1.00  0.00     0.292 C 
HETATM    3  O   UNL     1      44.968 -10.149   7.855  1.00  0.00    -0.264 OA
HETATM    4  H   UNL     1      42.548 -12.192   8.288  1.00  0.00     0.192 HD
ENDROOT
BRANCH   2   5
HETATM    5  C   UNL     1      43.617 -10.530   9.756  1.00  0.00     0.148 A 
HETATM    6  N   UNL     1      43.909 -11.369  10.771  1.00  0.00    -0.169 NA
HETATM    7  N   UNL     1      43.339 -10.783  11.844  1.00  0.00    -0.277 N 
HETATM    8  H   UNL     1      43.411 -11.253  12.740  1.00  0.00     0.189 HD
HETATM    9  C   UNL     1      42.697  -9.602  11.575  1.00  0.00     0.063 A 
HETATM   10  C   UNL     1      42.863  -9.422  10.217  1.00  0.00     0.071 A 
BRANCH   9  11
HETATM   11  C   UNL     1      41.995  -8.792  12.572  1.00  0.00    -0.005 A 
HETATM   12  C   UNL     1      42.177  -9.007  13.946  1.00  0.00     0.053 A 
HETATM   13  C   UNL     1      41.498  -8.193  14.832  1.00  0.00     0.106 A 
HETATM   14  C   UNL     1      40.659  -7.192  14.405  1.00  0.00     0.105 A 
HETATM   15  O   UNL     1      41.569  -8.264  16.188  1.00  0.00    -0.323 OA
HETATM   16  O   UNL     1      40.096  -6.508  15.435  1.00  0.00    -0.323 OA
HETATM   17  C   UNL     1      40.451  -6.948  13.067  1.00  0.00     0.040 A 
HETATM   18  C   UNL     1      40.689  -7.182  16.563  1.00  0.00     0.352 A 
HETATM   19  C   UNL     1      41.129  -7.756  12.147  1.00  0.00     0.017 A 
ENDBRANCH   9  11
ENDBRANCH   2   5
BRANCH   1  20
HETATM   20  N   UNL     1      43.540 -12.103   6.452  1.00  0.00    -0.183 NA
HETATM   21  C   UNL     1      42.800 -13.041   5.956  1.00  0.00     0.152 C 
BRANCH  21  22
HETATM   22  C   UNL     1      43.020 -13.450   4.583  1.00  0.00     0.011 A 
HETATM   23  C   UNL     1      42.987 -14.776   4.041  1.00  0.00     0.004 A 
HETATM   24  C   UNL     1      42.752 -16.059   4.581  1.00  0.00     0.014 A 
HETATM   25  C   UNL     1      43.257 -14.675   2.674  1.00  0.00     0.043 A 
HETATM   26  C   UNL     1      42.795 -17.180   3.743  1.00  0.00     0.001 A 
HETATM   27  C   UNL     1      43.068 -17.043   2.385  1.00  0.00     0.002 A 
HETATM   28  C   UNL     1      43.305 -15.785   1.823  1.00  0.00     0.030 A 
HETATM   29  N   UNL     1      43.449 -13.342   2.395  1.00  0.00    -0.364 N 
HETATM   30  H   UNL     1      43.661 -12.970   1.479  1.00  0.00     0.165 HD
HETATM   31  C   UNL     1      43.308 -12.599   3.531  1.00  0.00     0.102 A 
ENDBRANCH  21  22
ENDBRANCH   1  20
TORSDOF 4
ENDMDL
MODEL 7
REMARK VINA RESULT:      -8.2      3.637     10.949
REMARK  4 active torsions:
REMARK  status: ('A' for Active; 'I' for Inactive)
REMARK    1  A    between atoms: C_8  and  C_9 
REMARK    2  A    between atoms: N_10  and  N_11 
REMARK       I    between atoms: N_11  and  C_12 
REMARK    3  A    between atoms: C_12  and  C_13 
REMARK    4  A    between atoms: C_17  and  C_18 
ROOT
HETATM    1  N   UNL     1      40.834 -10.749   6.902  1.00  0.00    -0.242 N 
HETATM    2  C   UNL     1      39.713 -11.472   6.523  1.00  0.00     0.292 C 
HETATM    3  O   UNL     1      38.567 -11.271   6.917  1.00  0.00    -0.264 OA
HETATM    4  H   UNL     1      41.725 -11.021   6.494  1.00  0.00     0.192 HD
ENDROOT
BRANCH   2   5
HETATM    5  C   UNL     1      40.029 -12.542   5.563  1.00  0.00     0.148 A 
HETATM    6  N   UNL     1      39.349 -12.718   4.412  1.00  0.00    -0.169 NA
HETATM    7  N   UNL     1      39.948 -13.786   3.847  1.00  0.00    -0.277 N 
HETATM    8  H   UNL     1      39.586 -14.125   2.961  1.00  0.00     0.189 HD
HETATM    9  C   UNL     1      40.988 -14.308   4.573  1.00  0.00     0.063 A 
HETATM   10  C   UNL     1      41.053 -13.512   5.699  1.00  0.00     0.071 A 
BRANCH   9  11
HETATM   11  C   UNL     1      41.780 -15.471   4.173  1.00  0.00    -0.005 A 
HETATM   12  C   UNL     1      42.442 -16.265   5.121  1.00  0.00     0.053 A 
HETATM   13  C   UNL     1      43.157 -17.360   4.674  1.00  0.00     0.106 A 
HETATM   14  C   UNL     1      43.235 -17.684   3.341  1.00  0.00     0.105 A 
HETATM   15  O   UNL     1      43.844 -18.232   5.459  1.00  0.00    -0.323 OA
HETATM   16  O   UNL     1      43.981 -18.797   3.118  1.00  0.00    -0.323 OA
HETATM   17  C   UNL     1      42.603 -16.932   2.378  1.00  0.00     0.040 A 
HETATM   18  C   UNL     1      44.352 -19.149   4.467  1.00  0.00     0.352 A 
HETATM   19  C   UNL     1      41.869 -15.818   2.803  1.00  0.00     0.017 A 
ENDBRANCH   9  11
ENDBRANCH   2   5
BRANCH   1  20
HETATM   20  N   UNL     1      40.724  -9.712   7.779  1.00  0.00    -0.183 NA
HETATM   21  C   UNL     1      41.833  -9.195   8.198  1.00  0.00     0.152 C 
BRANCH  21  22
HETATM   22  C   UNL     1      41.778  -8.088   9.131  1.00  0.00     0.011 A 
HETATM   23  C   UNL     1      42.217  -8.059  10.494  1.00  0.00     0.004 A 
HETATM   24  C   UNL     1      42.811  -9.001  11.361  1.00  0.00     0.014 A 
HETATM   25  C   UNL     1      41.962  -6.777  10.987  1.00  0.00     0.043 A 
HETATM   26  C   UNL     1      43.125  -8.630  12.675  1.00  0.00     0.001 A 
HETATM   27  C   UNL     1      42.856  -7.344  13.134  1.00  0.00     0.002 A 
HETATM   28  C   UNL     1      42.268  -6.390  12.298  1.00  0.00     0.030 A 
HETATM   29  N   UNL     1      41.388  -6.055   9.967  1.00  0.00    -0.364 N 
HETATM   30  H   UNL     1      41.096  -5.089  10.038  1.00  0.00     0.165 HD
HETATM   31  C   UNL     1      41.274  -6.830   8.850  1.00  0.00     0.102 A 
ENDBRANCH  21  22
ENDBRANCH   1  20
TORSDOF 4
ENDMDL
MODEL 8
REMARK VINA RESULT:      -8.0     19.129     21.036
REMARK  4 active torsions:
REMARK  status: ('A' for Active; 'I' for Inactive)
REMARK    1  A    between atoms: C_8  and  C_9 
REMARK    2  A    between atoms: N_10  and  N_11 
REMARK       I    between atoms: N_11  and  C_12 
REMARK    3  A    between atoms: C_12  and  C_13 
REMARK    4  A    between atoms: C_17  and  C_18 
ROOT
HETATM    1  N   UNL     1      42.938 -29.872   3.388  1.00  0.00    -0.242 N 
HETATM    2  C   UNL     1      41.812 -30.561   2.965  1.00  0.00     0.292 C 
HETATM    3  O   UNL     1      41.439 -30.675   1.799  1.00  0.00    -0.264 OA
HETATM    4  H   UNL     1      43.133 -29.862   4.386  1.00  0.00     0.192 HD
ENDROOT
BRANCH   2   5
HETATM    5  C   UNL     1      41.075 -31.177   4.080  1.00  0.00     0.148 A 
HETATM    6  N   UNL     1      41.496 -31.118   5.359  1.00  0.00    -0.169 NA
HETATM    7  N   UNL     1      40.551 -31.798   6.039  1.00  0.00    -0.277 N 
HETATM    8  H   UNL     1      40.667 -31.906   7.042  1.00  0.00     0.189 HD
HETATM    9  C   UNL     1      39.533 -32.290   5.263  1.00  0.00     0.063 A 
HETATM   10  C   UNL     1      39.859 -31.899   3.981  1.00  0.00     0.071 A 
BRANCH   9  11
HETATM   11  C   UNL     1      38.402 -33.069   5.771  1.00  0.00    -0.005 A 
HETATM   12  C   UNL     1      38.377 -33.540   7.092  1.00  0.00     0.053 A 
HETATM   13  C   UNL     1      37.269 -34.253   7.511  1.00  0.00     0.106 A 
HETATM   14  C   UNL     1      36.208 -34.508   6.676  1.00  0.00     0.105 A 
HETATM   15  O   UNL     1      37.084 -34.770   8.755  1.00  0.00    -0.323 OA
HETATM   16  O   UNL     1      35.224 -35.217   7.286  1.00  0.00    -0.323 OA
HETATM   17  C   UNL     1      36.194 -34.065   5.373  1.00  0.00     0.040 A 
HETATM   18  C   UNL     1      35.777 -35.367   8.609  1.00  0.00     0.352 A 
HETATM   19  C   UNL     1      37.302 -33.338   4.923  1.00  0.00     0.017 A 
ENDBRANCH   9  11
ENDBRANCH   2   5
BRANCH   1  20
HETATM   20  N   UNL     1      43.746 -29.248   2.485  1.00  0.00    -0.183 NA
HETATM   21  C   UNL     1      44.989 -29.606   2.485  1.00  0.00     0.152 C 
BRANCH  21  22
HETATM   22  C   UNL     1      45.896 -28.978   1.545  1.00  0.00     0.011 A 
HETATM   23  C   UNL     1      45.708 -28.774   0.140  1.00  0.00     0.004 A 
HETATM   24  C   UNL     1      44.674 -29.074  -0.774  1.00  0.00     0.014 A 
HETATM   25  C   UNL     1      46.849 -28.129  -0.344  1.00  0.00     0.043 A 
HETATM   26  C   UNL     1      44.819 -28.722  -2.122  1.00  0.00     0.001 A 
HETATM   27  C   UNL     1      45.970 -28.080  -2.570  1.00  0.00     0.002 A 
HETATM   28  C   UNL     1      47.010 -27.770  -1.688  1.00  0.00     0.030 A 
HETATM   29  N   UNL     1      47.699 -27.949   0.723  1.00  0.00    -0.364 N 
HETATM   30  H   UNL     1      48.605 -27.506   0.669  1.00  0.00     0.165 HD
HETATM   31  C   UNL     1      47.137 -28.454   1.860  1.00  0.00     0.102 A 
ENDBRANCH  21  22
ENDBRANCH   1  20
TORSDOF 4
ENDMDL
MODEL 9
REMARK VINA RESULT:      -8.0      4.307     11.520
REMARK  4 active torsions:
REMARK  status: ('A' for Active; 'I' for Inactive)
REMARK    1  A    between atoms: C_8  and  C_9 
REMARK    2  A    between atoms: N_10  and  N_11 
REMARK       I    between atoms: N_11  and  C_12 
REMARK    3  A    between atoms: C_12  and  C_13 
REMARK    4  A    between atoms: C_17  and  C_18 
ROOT
HETATM    1  N   UNL     1      40.835 -10.431   7.232  1.00  0.00    -0.242 N 
HETATM    2  C   UNL     1      39.614 -11.050   7.009  1.00  0.00     0.292 C 
HETATM    3  O   UNL     1      38.570 -10.809   7.611  1.00  0.00    -0.264 OA
HETATM    4  H   UNL     1      41.620 -10.726   6.657  1.00  0.00     0.192 HD
ENDROOT
BRANCH   2   5
HETATM    5  C   UNL     1      39.679 -12.058   5.939  1.00  0.00     0.148 A 
HETATM    6  N   UNL     1      39.784 -13.381   6.182  1.00  0.00    -0.169 NA
HETATM    7  N   UNL     1      39.816 -13.931   4.952  1.00  0.00    -0.277 N 
HETATM    8  H   UNL     1      39.914 -14.938   4.880  1.00  0.00     0.189 HD
HETATM    9  C   UNL     1      39.730 -13.030   3.921  1.00  0.00     0.063 A 
HETATM   10  C   UNL     1      39.645 -11.802   4.545  1.00  0.00     0.071 A 
BRANCH   9  11
HETATM   11  C   UNL     1      39.756 -13.386   2.502  1.00  0.00    -0.005 A 
HETATM   12  C   UNL     1      39.472 -12.438   1.507  1.00  0.00     0.053 A 
HETATM   13  C   UNL     1      39.534 -12.839   0.186  1.00  0.00     0.106 A 
HETATM   14  C   UNL     1      39.860 -14.125  -0.172  1.00  0.00     0.105 A 
HETATM   15  O   UNL     1      39.297 -12.046  -0.894  1.00  0.00    -0.323 OA
HETATM   16  O   UNL     1      39.868 -14.305  -1.518  1.00  0.00    -0.323 OA
HETATM   17  C   UNL     1      40.143 -15.085   0.772  1.00  0.00     0.040 A 
HETATM   18  C   UNL     1      39.527 -12.980  -1.971  1.00  0.00     0.352 A 
HETATM   19  C   UNL     1      40.091 -14.707   2.119  1.00  0.00     0.017 A 
ENDBRANCH   9  11
ENDBRANCH   2   5
BRANCH   1  20
HETATM   20  N   UNL     1      40.954  -9.462   8.182  1.00  0.00    -0.183 NA
HETATM   21  C   UNL     1      42.138  -9.282   8.672  1.00  0.00     0.152 C 
BRANCH  21  22
HETATM   22  C   UNL     1      42.327  -8.263   9.684  1.00  0.00     0.011 A 
HETATM   23  C   UNL     1      42.389  -8.431  11.105  1.00  0.00     0.004 A 
HETATM   24  C   UNL     1      42.301  -9.541  11.974  1.00  0.00     0.014 A 
HETATM   25  C   UNL     1      42.583  -7.167  11.667  1.00  0.00     0.043 A 
HETATM   26  C   UNL     1      42.409  -9.346  13.357  1.00  0.00     0.001 A 
HETATM   27  C   UNL     1      42.602  -8.072  13.883  1.00  0.00     0.002 A 
HETATM   28  C   UNL     1      42.692  -6.955  13.047  1.00  0.00     0.030 A 
HETATM   29  N   UNL     1      42.634  -6.264  10.631  1.00  0.00    -0.364 N 
HETATM   30  H   UNL     1      42.768  -5.268  10.740  1.00  0.00     0.165 HD
HETATM   31  C   UNL     1      42.483  -6.910   9.438  1.00  0.00     0.102 A 
ENDBRANCH  21  22
ENDBRANCH   1  20
TORSDOF 4
ENDMDL
MODEL 10
REMARK VINA RESULT:      -7.9      2.481      3.014
REMARK  4 active torsions:
REMARK  status: ('A' for Active; 'I' for Inactive)
REMARK    1  A    between atoms: C_8  and  C_9 
REMARK    2  A    between atoms: N_10  and  N_11 
REMARK       I    between atoms: N_11  and  C_12 
REMARK    3  A    between atoms: C_12  and  C_13 
REMARK    4  A    between atoms: C_17  and  C_18 
ROOT
HETATM    1  N   UNL     1      43.272 -12.594   7.230  1.00  0.00    -0.242 N 
HETATM    2  C   UNL     1      43.452 -11.481   6.421  1.00  0.00     0.292 C 
HETATM    3  O   UNL     1      43.974 -11.483   5.309  1.00  0.00    -0.264 OA
HETATM    4  H   UNL     1      42.819 -12.449   8.129  1.00  0.00     0.192 HD
ENDROOT
BRANCH   2   5
HETATM    5  C   UNL     1      42.935 -10.248   7.035  1.00  0.00     0.148 A 
HETATM    6  N   UNL     1      42.090  -9.410   6.399  1.00  0.00    -0.169 NA
HETATM    7  N   UNL     1      41.877  -8.428   7.298  1.00  0.00    -0.277 N 
HETATM    8  H   UNL     1      41.275  -7.656   7.030  1.00  0.00     0.189 HD
HETATM    9  C   UNL     1      42.538  -8.591   8.489  1.00  0.00     0.063 A 
HETATM   10  C   UNL     1      43.238  -9.770   8.334  1.00  0.00     0.071 A 
BRANCH   9  11
HETATM   11  C   UNL     1      42.473  -7.653   9.610  1.00  0.00    -0.005 A 
HETATM   12  C   UNL     1      42.758  -6.290   9.439  1.00  0.00     0.053 A 
HETATM   13  C   UNL     1      42.659  -5.457  10.537  1.00  0.00     0.106 A 
HETATM   14  C   UNL     1      42.294  -5.926  11.776  1.00  0.00     0.105 A 
HETATM   15  O   UNL     1      42.891  -4.117  10.539  1.00  0.00    -0.323 OA
HETATM   16  O   UNL     1      42.252  -4.944  12.714  1.00  0.00    -0.323 OA
HETATM   17  C   UNL     1      42.008  -7.255  11.988  1.00  0.00     0.040 A 
HETATM   18  C   UNL     1      42.616  -3.796  11.920  1.00  0.00     0.352 A 
HETATM   19  C   UNL     1      42.098  -8.121  10.892  1.00  0.00     0.017 A 
ENDBRANCH   9  11
ENDBRANCH   2   5
BRANCH   1  20
HETATM   20  N   UNL     1      43.682 -13.824   6.813  1.00  0.00    -0.183 NA
HETATM   21  C   UNL     1      42.757 -14.624   6.391  1.00  0.00     0.152 C 
BRANCH  21  22
HETATM   22  C   UNL     1      43.134 -15.946   5.933  1.00  0.00     0.011 A 
HETATM   23  C   UNL     1      43.196 -16.430   4.586  1.00  0.00     0.004 A 
HETATM   24  C   UNL     1      42.942 -15.861   3.319  1.00  0.00     0.014 A 
HETATM   25  C   UNL     1      43.611 -17.763   4.640  1.00  0.00     0.043 A 
HETATM   26  C   UNL     1      43.109 -16.639   2.166  1.00  0.00     0.001 A 
HETATM   27  C   UNL     1      43.522 -17.965   2.257  1.00  0.00     0.002 A 
HETATM   28  C   UNL     1      43.781 -18.554   3.497  1.00  0.00     0.030 A 
HETATM   29  N   UNL     1      43.791 -18.080   5.966  1.00  0.00    -0.364 N 
HETATM   30  H   UNL     1      44.091 -18.983   6.306  1.00  0.00     0.165 HD
HETATM   31  C   UNL     1      43.510 -16.998   6.749  1.00  0.00     0.102 A 
ENDBRANCH  21  22
ENDBRANCH   1  20
TORSDOF 4
ENDMDL
