MODEL 1
REMARK VINA RESULT:      -9.5      0.000      0.000
REMARK  3 active torsions:
REMARK  status: ('A' for Active; 'I' for Inactive)
REMARK    1  A    between atoms: C_3  and  C_4 
REMARK       I    between atoms: C_4  and  N_5 
REMARK    2  A    between atoms: N_5  and  N_6 
REMARK       I    between atoms: N_6  and  C_7 
REMARK    3  A    between atoms: C_7  and  C_8 
ROOT
HETATM    1  N   UNL     1      42.556 -13.490   6.194  1.00  0.00    -0.263 N 
HETATM    2  C   UNL     1      43.039 -12.321   5.651  1.00  0.00     0.272 C 
HETATM    3  O   UNL     1      43.536 -12.297   4.523  1.00  0.00    -0.266 OA
HETATM    4  H   UNL     1      42.139 -13.558   7.120  1.00  0.00     0.190 HD
ENDROOT
BRANCH   1   5
HETATM    5  N   UNL     1      42.635 -14.672   5.449  1.00  0.00    -0.261 N 
HETATM    6  C   UNL     1      43.674 -15.554   5.678  1.00  0.00     0.294 C 
HETATM    7  O   UNL     1      44.536 -15.326   6.528  1.00  0.00    -0.264 OA
HETATM    8  H   UNL     1      41.917 -14.849   4.750  1.00  0.00     0.190 HD
BRANCH   6   9
HETATM    9  C   UNL     1      43.643 -16.737   4.840  1.00  0.00     0.152 A 
HETATM   10  C   UNL     1      43.360 -16.914   3.488  1.00  0.00    -0.009 A 
HETATM   11  C   UNL     1      42.993 -15.883   2.485  1.00  0.00     0.052 C 
HETATM   12  C   UNL     1      43.497 -18.315   3.236  1.00  0.00     0.007 A 
HETATM   13  C   UNL     1      43.849 -18.895   4.446  1.00  0.00     0.087 A 
HETATM   14  C   UNL     1      43.361 -19.149   2.110  1.00  0.00     0.015 A 
HETATM   15  O   UNL     1      43.936 -17.947   5.415  1.00  0.00    -0.304 OA
HETATM   16  C   UNL     1      44.078 -20.257   4.627  1.00  0.00     0.038 A 
HETATM   17  C   UNL     1      43.938 -21.069   3.496  1.00  0.00     0.003 A 
HETATM   18  C   UNL     1      43.585 -20.526   2.258  1.00  0.00     0.001 A 
ENDBRANCH   6   9
ENDBRANCH   1   5
BRANCH   2  19
HETATM   19  C   UNL     1      42.930 -11.116   6.477  1.00  0.00     0.064 A 
HETATM   20  C   UNL     1      43.909 -10.353   7.210  1.00  0.00     0.046 A 
HETATM   21  C   UNL     1      43.240  -9.287   7.825  1.00  0.00     0.046 A 
HETATM   22  C   UNL     1      45.302 -10.438   7.431  1.00  0.00     0.130 A 
HETATM   23  C   UNL     1      43.887  -8.335   8.626  1.00  0.00     0.030 A 
HETATM   24  N   UNL     1      41.912  -9.389   7.486  1.00  0.00    -0.364 N 
HETATM   25  C   UNL     1      45.266  -8.461   8.816  1.00  0.00     0.005 A 
HETATM   26  C   UNL     1      45.969  -9.504   8.223  1.00  0.00     0.043 A 
HETATM   27  H   UNL     1      41.190  -8.750   7.790  1.00  0.00     0.165 HD
HETATM   28  C   UNL     1      41.717 -10.474   6.683  1.00  0.00     0.106 A 
HETATM   29  F   UNL     1      46.020 -11.426   6.879  1.00  0.00    -0.205 F 
ENDBRANCH   2  19
TORSDOF 3
ENDMDL
MODEL 2
REMARK VINA RESULT:      -9.4      5.191      8.924
REMARK  3 active torsions:
REMARK  status: ('A' for Active; 'I' for Inactive)
REMARK    1  A    between atoms: C_3  and  C_4 
REMARK       I    between atoms: C_4  and  N_5 
REMARK    2  A    between atoms: N_5  and  N_6 
REMARK       I    between atoms: N_6  and  C_7 
REMARK    3  A    between atoms: C_7  and  C_8 
ROOT
HETATM    1  N   UNL     1      42.357 -16.115   1.994  1.00  0.00    -0.263 N 
HETATM    2  C   UNL     1      43.091 -15.776   3.109  1.00  0.00     0.272 C 
HETATM    3  O   UNL     1      43.463 -14.617   3.301  1.00  0.00    -0.266 OA
HETATM    4  H   UNL     1      42.029 -17.058   1.793  1.00  0.00     0.190 HD
ENDROOT
BRANCH   1   5
HETATM    5  N   UNL     1      42.031 -15.122   1.064  1.00  0.00    -0.261 N 
HETATM    6  C   UNL     1      40.707 -14.910   0.728  1.00  0.00     0.294 C 
HETATM    7  O   UNL     1      39.802 -15.575   1.232  1.00  0.00    -0.264 OA
HETATM    8  H   UNL     1      42.789 -14.580   0.654  1.00  0.00     0.190 HD
BRANCH   6   9
HETATM    9  C   UNL     1      40.505 -13.857  -0.249  1.00  0.00     0.152 A 
HETATM   10  C   UNL     1      39.783 -13.816  -1.438  1.00  0.00    -0.009 A 
HETATM   11  C   UNL     1      38.983 -14.900  -2.064  1.00  0.00     0.052 C 
HETATM   12  C   UNL     1      39.957 -12.497  -1.961  1.00  0.00     0.007 A 
HETATM   13  C   UNL     1      40.772 -11.827  -1.060  1.00  0.00     0.087 A 
HETATM   14  C   UNL     1      39.508 -11.802  -3.100  1.00  0.00     0.015 A 
HETATM   15  O   UNL     1      41.105 -12.644  -0.028  1.00  0.00    -0.304 OA
HETATM   16  C   UNL     1      41.182 -10.503  -1.206  1.00  0.00     0.038 A 
HETATM   17  C   UNL     1      40.725  -9.830  -2.345  1.00  0.00     0.003 A 
HETATM   18  C   UNL     1      39.903 -10.468  -3.277  1.00  0.00     0.001 A 
ENDBRANCH   6   9
ENDBRANCH   1   5
BRANCH   2  19
HETATM   19  C   UNL     1      43.403 -16.857   4.047  1.00  0.00     0.064 A 
HETATM   20  C   UNL     1      43.571 -18.277   3.867  1.00  0.00     0.046 A 
HETATM   21  C   UNL     1      43.863 -18.830   5.120  1.00  0.00     0.046 A 
HETATM   22  C   UNL     1      43.508 -19.174   2.778  1.00  0.00     0.130 A 
HETATM   23  C   UNL     1      44.087 -20.200   5.320  1.00  0.00     0.030 A 
HETATM   24  N   UNL     1      43.875 -17.799   6.029  1.00  0.00    -0.364 N 
HETATM   25  C   UNL     1      44.015 -21.048   4.213  1.00  0.00     0.005 A 
HETATM   26  C   UNL     1      43.728 -20.541   2.950  1.00  0.00     0.043 A 
HETATM   27  H   UNL     1      44.060 -17.905   7.018  1.00  0.00     0.165 HD
HETATM   28  C   UNL     1      43.603 -16.620   5.400  1.00  0.00     0.106 A 
HETATM   29  F   UNL     1      43.235 -18.730   1.543  1.00  0.00    -0.205 F 
ENDBRANCH   2  19
TORSDOF 3
ENDMDL
MODEL 3
REMARK VINA RESULT:      -9.3      3.012      9.074
REMARK  3 active torsions:
REMARK  status: ('A' for Active; 'I' for Inactive)
REMARK    1  A    between atoms: C_3  and  C_4 
REMARK       I    between atoms: C_4  and  N_5 
REMARK    2  A    between atoms: N_5  and  N_6 
REMARK       I    between atoms: N_6  and  C_7 
REMARK    3  A    between atoms: C_7  and  C_8 
ROOT
HETATM    1  N   UNL     1      43.530 -12.204   6.133  1.00  0.00    -0.263 N 
HETATM    2  C   UNL     1      42.476 -12.852   5.529  1.00  0.00     0.272 C 
HETATM    3  O   UNL     1      41.342 -12.815   6.009  1.00  0.00    -0.266 OA
HETATM    4  H   UNL     1      44.483 -12.208   5.774  1.00  0.00     0.190 HD
ENDROOT
BRANCH   1   5
HETATM    5  N   UNL     1      43.305 -11.493   7.316  1.00  0.00    -0.261 N 
HETATM    6  C   UNL     1      44.379 -11.113   8.099  1.00  0.00     0.294 C 
HETATM    7  O   UNL     1      45.536 -11.385   7.777  1.00  0.00    -0.264 OA
HETATM    8  H   UNL     1      42.343 -11.275   7.571  1.00  0.00     0.190 HD
BRANCH   6   9
HETATM    9  C   UNL     1      44.012 -10.386   9.298  1.00  0.00     0.152 A 
HETATM   10  C   UNL     1      44.002  -9.026   9.597  1.00  0.00    -0.009 A 
HETATM   11  C   UNL     1      44.387  -7.891   8.720  1.00  0.00     0.052 C 
HETATM   12  C   UNL     1      43.534  -8.921  10.944  1.00  0.00     0.007 A 
HETATM   13  C   UNL     1      43.295 -10.218  11.375  1.00  0.00     0.087 A 
HETATM   14  C   UNL     1      43.288  -7.864  11.841  1.00  0.00     0.015 A 
HETATM   15  O   UNL     1      43.583 -11.103  10.386  1.00  0.00    -0.304 OA
HETATM   16  C   UNL     1      42.826 -10.550  12.643  1.00  0.00     0.038 A 
HETATM   17  C   UNL     1      42.588  -9.485  13.519  1.00  0.00     0.003 A 
HETATM   18  C   UNL     1      42.815  -8.164  13.126  1.00  0.00     0.001 A 
ENDBRANCH   6   9
ENDBRANCH   1   5
BRANCH   2  19
HETATM   19  C   UNL     1      42.771 -13.582   4.293  1.00  0.00     0.064 A 
HETATM   20  C   UNL     1      42.922 -14.987   4.011  1.00  0.00     0.046 A 
HETATM   21  C   UNL     1      43.204 -15.116   2.645  1.00  0.00     0.046 A 
HETATM   22  C   UNL     1      42.856 -16.183   4.759  1.00  0.00     0.130 A 
HETATM   23  C   UNL     1      43.413 -16.353   2.018  1.00  0.00     0.030 A 
HETATM   24  N   UNL     1      43.223 -13.850   2.111  1.00  0.00    -0.364 N 
HETATM   25  C   UNL     1      43.336 -17.509   2.800  1.00  0.00     0.005 A 
HETATM   26  C   UNL     1      43.060 -17.427   4.160  1.00  0.00     0.043 A 
HETATM   27  H   UNL     1      43.403 -13.638   1.138  1.00  0.00     0.165 HD
HETATM   28  C   UNL     1      42.967 -12.929   3.083  1.00  0.00     0.106 A 
HETATM   29  F   UNL     1      42.591 -16.152   6.073  1.00  0.00    -0.205 F 
ENDBRANCH   2  19
TORSDOF 3
ENDMDL
MODEL 4
REMARK VINA RESULT:      -9.3      2.420      8.985
REMARK  3 active torsions:
REMARK  status: ('A' for Active; 'I' for Inactive)
REMARK    1  A    between atoms: C_3  and  C_4 
REMARK       I    between atoms: C_4  and  N_5 
REMARK    2  A    between atoms: N_5  and  N_6 
REMARK       I    between atoms: N_6  and  C_7 
REMARK    3  A    between atoms: C_7  and  C_8 
ROOT
HETATM    1  N   UNL     1      43.663 -14.379   6.306  1.00  0.00    -0.263 N 
HETATM    2  C   UNL     1      42.768 -14.678   5.303  1.00  0.00     0.272 C 
HETATM    3  O   UNL     1      41.749 -14.006   5.133  1.00  0.00    -0.266 OA
HETATM    4  H   UNL     1      44.516 -14.906   6.485  1.00  0.00     0.190 HD
ENDROOT
BRANCH   1   5
HETATM    5  N   UNL     1      43.406 -13.291   7.148  1.00  0.00    -0.261 N 
HETATM    6  C   UNL     1      44.248 -12.196   7.123  1.00  0.00     0.294 C 
HETATM    7  O   UNL     1      45.222 -12.151   6.372  1.00  0.00    -0.264 OA
HETATM    8  H   UNL     1      42.597 -13.341   7.764  1.00  0.00     0.190 HD
BRANCH   6   9
HETATM    9  C   UNL     1      43.874 -11.140   8.044  1.00  0.00     0.152 A 
HETATM   10  C   UNL     1      43.027 -10.043   7.910  1.00  0.00    -0.009 A 
HETATM   11  C   UNL     1      42.235  -9.635   6.722  1.00  0.00     0.052 C 
HETATM   12  C   UNL     1      43.059  -9.363   9.168  1.00  0.00     0.007 A 
HETATM   13  C   UNL     1      43.922 -10.086   9.978  1.00  0.00     0.087 A 
HETATM   14  C   UNL     1      42.447  -8.214   9.702  1.00  0.00     0.015 A 
HETATM   15  O   UNL     1      44.416 -11.156   9.304  1.00  0.00    -0.304 OA
HETATM   16  C   UNL     1      44.228  -9.751  11.295  1.00  0.00     0.038 A 
HETATM   17  C   UNL     1      43.609  -8.605  11.807  1.00  0.00     0.003 A 
HETATM   18  C   UNL     1      42.733  -7.848  11.025  1.00  0.00     0.001 A 
ENDBRANCH   6   9
ENDBRANCH   1   5
BRANCH   2  19
HETATM   19  C   UNL     1      43.089 -15.828   4.454  1.00  0.00     0.064 A 
HETATM   20  C   UNL     1      43.379 -17.207   4.760  1.00  0.00     0.046 A 
HETATM   21  C   UNL     1      43.615 -17.868   3.548  1.00  0.00     0.046 A 
HETATM   22  C   UNL     1      43.472 -17.985   5.935  1.00  0.00     0.130 A 
HETATM   23  C   UNL     1      43.931 -19.232   3.467  1.00  0.00     0.030 A 
HETATM   24  N   UNL     1      43.476 -16.941   2.544  1.00  0.00    -0.364 N 
HETATM   25  C   UNL     1      44.011 -19.961   4.657  1.00  0.00     0.005 A 
HETATM   26  C   UNL     1      43.784 -19.344   5.882  1.00  0.00     0.043 A 
HETATM   27  H   UNL     1      43.591 -17.137   1.558  1.00  0.00     0.165 HD
HETATM   28  C   UNL     1      43.163 -15.723   3.072  1.00  0.00     0.106 A 
HETATM   29  F   UNL     1      43.260 -17.433   7.138  1.00  0.00    -0.205 F 
ENDBRANCH   2  19
TORSDOF 3
ENDMDL
MODEL 5
REMARK VINA RESULT:      -9.3      2.405      9.056
REMARK  3 active torsions:
REMARK  status: ('A' for Active; 'I' for Inactive)
REMARK    1  A    between atoms: C_3  and  C_4 
REMARK       I    between atoms: C_4  and  N_5 
REMARK    2  A    between atoms: N_5  and  N_6 
REMARK       I    between atoms: N_6  and  C_7 
REMARK    3  A    between atoms: C_7  and  C_8 
ROOT
HETATM    1  N   UNL     1      43.622 -14.400   6.636  1.00  0.00    -0.263 N 
HETATM    2  C   UNL     1      42.957 -15.573   6.911  1.00  0.00     0.272 C 
HETATM    3  O   UNL     1      42.151 -15.650   7.840  1.00  0.00    -0.266 OA
HETATM    4  H   UNL     1      44.297 -14.291   5.881  1.00  0.00     0.190 HD
ENDROOT
BRANCH   1   5
HETATM    5  N   UNL     1      43.378 -13.275   7.431  1.00  0.00    -0.261 N 
HETATM    6  C   UNL     1      44.142 -12.137   7.257  1.00  0.00     0.294 C 
HETATM    7  O   UNL     1      45.037 -12.088   6.412  1.00  0.00    -0.264 OA
HETATM    8  H   UNL     1      42.635 -13.329   8.125  1.00  0.00     0.190 HD
BRANCH   6   9
HETATM    9  C   UNL     1      43.791 -11.045   8.143  1.00  0.00     0.152 A 
HETATM   10  C   UNL     1      43.017  -9.904   7.955  1.00  0.00    -0.009 A 
HETATM   11  C   UNL     1      42.302  -9.473   6.726  1.00  0.00     0.052 C 
HETATM   12  C   UNL     1      43.033  -9.204   9.201  1.00  0.00     0.007 A 
HETATM   13  C   UNL     1      43.817  -9.960  10.061  1.00  0.00     0.087 A 
HETATM   14  C   UNL     1      42.467  -8.011   9.689  1.00  0.00     0.015 A 
HETATM   15  O   UNL     1      44.276 -11.069   9.426  1.00  0.00    -0.304 OA
HETATM   16  C   UNL     1      44.084  -9.619  11.384  1.00  0.00     0.038 A 
HETATM   17  C   UNL     1      43.512  -8.430  11.850  1.00  0.00     0.003 A 
HETATM   18  C   UNL     1      42.716  -7.638  11.018  1.00  0.00     0.001 A 
ENDBRANCH   6   9
ENDBRANCH   1   5
BRANCH   2  19
HETATM   19  C   UNL     1      43.254 -16.718   6.046  1.00  0.00     0.064 A 
HETATM   20  C   UNL     1      43.288 -16.866   4.612  1.00  0.00     0.046 A 
HETATM   21  C   UNL     1      43.635 -18.194   4.333  1.00  0.00     0.046 A 
HETATM   22  C   UNL     1      43.063 -16.023   3.502  1.00  0.00     0.130 A 
HETATM   23  C   UNL     1      43.762 -18.696   3.030  1.00  0.00     0.030 A 
HETATM   24  N   UNL     1      43.808 -18.833   5.537  1.00  0.00    -0.364 N 
HETATM   25  C   UNL     1      43.529 -17.824   1.963  1.00  0.00     0.005 A 
HETATM   26  C   UNL     1      43.182 -16.497   2.195  1.00  0.00     0.043 A 
HETATM   27  H   UNL     1      44.063 -19.806   5.641  1.00  0.00     0.165 HD
HETATM   28  C   UNL     1      43.583 -17.964   6.564  1.00  0.00     0.106 A 
HETATM   29  F   UNL     1      42.727 -14.738   3.678  1.00  0.00    -0.205 F 
ENDBRANCH   2  19
TORSDOF 3
ENDMDL
MODEL 6
REMARK VINA RESULT:      -9.2      2.459      3.626
REMARK  3 active torsions:
REMARK  status: ('A' for Active; 'I' for Inactive)
REMARK    1  A    between atoms: C_3  and  C_4 
REMARK       I    between atoms: C_4  and  N_5 
REMARK    2  A    between atoms: N_5  and  N_6 
REMARK       I    between atoms: N_6  and  C_7 
REMARK    3  A    between atoms: C_7  and  C_8 
ROOT
HETATM    1  N   UNL     1      42.974 -11.436   7.525  1.00  0.00    -0.263 N 
HETATM    2  C   UNL     1      43.977 -10.827   8.246  1.00  0.00     0.272 C 
HETATM    3  O   UNL     1      45.099 -11.329   8.329  1.00  0.00    -0.266 OA
HETATM    4  H   UNL     1      42.032 -11.060   7.430  1.00  0.00     0.190 HD
ENDROOT
BRANCH   1   5
HETATM    5  N   UNL     1      43.237 -12.649   6.879  1.00  0.00    -0.261 N 
HETATM    6  C   UNL     1      42.231 -13.275   6.168  1.00  0.00     0.294 C 
HETATM    7  O   UNL     1      41.103 -12.788   6.085  1.00  0.00    -0.264 OA
HETATM    8  H   UNL     1      44.174 -13.041   6.956  1.00  0.00     0.190 HD
BRANCH   6   9
HETATM    9  C   UNL     1      42.631 -14.524   5.550  1.00  0.00     0.152 A 
HETATM   10  C   UNL     1      43.079 -15.728   6.086  1.00  0.00    -0.009 A 
HETATM   11  C   UNL     1      43.280 -16.077   7.516  1.00  0.00     0.052 C 
HETATM   12  C   UNL     1      43.314 -16.595   4.973  1.00  0.00     0.007 A 
HETATM   13  C   UNL     1      42.997 -15.862   3.838  1.00  0.00     0.087 A 
HETATM   14  C   UNL     1      43.759 -17.920   4.810  1.00  0.00     0.015 A 
HETATM   15  O   UNL     1      42.587 -14.614   4.182  1.00  0.00    -0.304 OA
HETATM   16  C   UNL     1      43.091 -16.351   2.537  1.00  0.00     0.038 A 
HETATM   17  C   UNL     1      43.535 -17.671   2.397  1.00  0.00     0.003 A 
HETATM   18  C   UNL     1      43.864 -18.443   3.514  1.00  0.00     0.001 A 
ENDBRANCH   6   9
ENDBRANCH   1   5
BRANCH   2  19
HETATM   19  C   UNL     1      43.642  -9.561   8.901  1.00  0.00     0.064 A 
HETATM   20  C   UNL     1      43.374  -9.224  10.277  1.00  0.00     0.046 A 
HETATM   21  C   UNL     1      43.110  -7.849  10.331  1.00  0.00     0.046 A 
HETATM   22  C   UNL     1      43.322  -9.927  11.501  1.00  0.00     0.130 A 
HETATM   23  C   UNL     1      42.805  -7.173  11.521  1.00  0.00     0.030 A 
HETATM   24  N   UNL     1      43.211  -7.363   9.050  1.00  0.00    -0.364 N 
HETATM   25  C   UNL     1      42.765  -7.912  12.707  1.00  0.00     0.005 A 
HETATM   26  C   UNL     1      43.022  -9.278  12.699  1.00  0.00     0.043 A 
HETATM   27  H   UNL     1      43.070  -6.396   8.788  1.00  0.00     0.165 HD
HETATM   28  C   UNL     1      43.528  -8.373   8.191  1.00  0.00     0.106 A 
HETATM   29  F   UNL     1      43.563 -11.245  11.540  1.00  0.00    -0.205 F 
ENDBRANCH   2  19
TORSDOF 3
ENDMDL
MODEL 7
REMARK VINA RESULT:      -9.0      2.212      3.030
REMARK  3 active torsions:
REMARK  status: ('A' for Active; 'I' for Inactive)
REMARK    1  A    between atoms: C_3  and  C_4 
REMARK       I    between atoms: C_4  and  N_5 
REMARK    2  A    between atoms: N_5  and  N_6 
REMARK       I    between atoms: N_6  and  C_7 
REMARK    3  A    between atoms: C_7  and  C_8 
ROOT
HETATM    1  N   UNL     1      42.885 -11.722   7.297  1.00  0.00    -0.263 N 
HETATM    2  C   UNL     1      43.932 -11.073   7.912  1.00  0.00     0.272 C 
HETATM    3  O   UNL     1      45.072 -11.539   7.895  1.00  0.00    -0.266 OA
HETATM    4  H   UNL     1      41.927 -11.376   7.286  1.00  0.00     0.190 HD
ENDROOT
BRANCH   1   5
HETATM    5  N   UNL     1      43.124 -12.935   6.643  1.00  0.00    -0.261 N 
HETATM    6  C   UNL     1      42.512 -13.190   5.431  1.00  0.00     0.294 C 
HETATM    7  O   UNL     1      41.758 -12.369   4.907  1.00  0.00    -0.264 OA
HETATM    8  H   UNL     1      43.750 -13.606   7.087  1.00  0.00     0.190 HD
BRANCH   6   9
HETATM    9  C   UNL     1      42.839 -14.482   4.860  1.00  0.00     0.152 A 
HETATM   10  C   UNL     1      42.841 -14.948   3.548  1.00  0.00    -0.009 A 
HETATM   11  C   UNL     1      42.487 -14.206   2.310  1.00  0.00     0.052 C 
HETATM   12  C   UNL     1      43.263 -16.312   3.613  1.00  0.00     0.007 A 
HETATM   13  C   UNL     1      43.486 -16.586   4.955  1.00  0.00     0.087 A 
HETATM   14  C   UNL     1      43.480 -17.341   2.677  1.00  0.00     0.015 A 
HETATM   15  O   UNL     1      43.230 -15.486   5.709  1.00  0.00    -0.304 OA
HETATM   16  C   UNL     1      43.912 -17.818   5.444  1.00  0.00     0.038 A 
HETATM   17  C   UNL     1      44.122 -18.827   4.498  1.00  0.00     0.003 A 
HETATM   18  C   UNL     1      43.909 -18.594   3.137  1.00  0.00     0.001 A 
ENDBRANCH   6   9
ENDBRANCH   1   5
BRANCH   2  19
HETATM   19  C   UNL     1      43.621  -9.808   8.582  1.00  0.00     0.064 A 
HETATM   20  C   UNL     1      43.400  -9.474   9.967  1.00  0.00     0.046 A 
HETATM   21  C   UNL     1      43.138  -8.099  10.033  1.00  0.00     0.046 A 
HETATM   22  C   UNL     1      43.389 -10.180  11.189  1.00  0.00     0.130 A 
HETATM   23  C   UNL     1      42.875  -7.426  11.234  1.00  0.00     0.030 A 
HETATM   24  N   UNL     1      43.196  -7.610   8.750  1.00  0.00    -0.364 N 
HETATM   25  C   UNL     1      42.875  -8.167  12.419  1.00  0.00     0.005 A 
HETATM   26  C   UNL     1      43.130  -9.534  12.399  1.00  0.00     0.043 A 
HETATM   27  H   UNL     1      43.047  -6.642   8.495  1.00  0.00     0.165 HD
HETATM   28  C   UNL     1      43.483  -8.619   7.878  1.00  0.00     0.106 A 
HETATM   29  F   UNL     1      43.630 -11.498  11.217  1.00  0.00    -0.205 F 
ENDBRANCH   2  19
TORSDOF 3
ENDMDL
MODEL 8
REMARK VINA RESULT:      -9.0      2.286      9.286
REMARK  3 active torsions:
REMARK  status: ('A' for Active; 'I' for Inactive)
REMARK    1  A    between atoms: C_3  and  C_4 
REMARK       I    between atoms: C_4  and  N_5 
REMARK    2  A    between atoms: N_5  and  N_6 
REMARK       I    between atoms: N_6  and  C_7 
REMARK    3  A    between atoms: C_7  and  C_8 
ROOT
HETATM    1  N   UNL     1      43.666 -13.855   7.163  1.00  0.00    -0.263 N 
HETATM    2  C   UNL     1      42.834 -14.468   6.253  1.00  0.00     0.272 C 
HETATM    3  O   UNL     1      41.852 -13.884   5.790  1.00  0.00    -0.266 OA
HETATM    4  H   UNL     1      44.486 -14.299   7.574  1.00  0.00     0.190 HD
ENDROOT
BRANCH   1   5
HETATM    5  N   UNL     1      43.387 -12.546   7.569  1.00  0.00    -0.261 N 
HETATM    6  C   UNL     1      44.334 -11.557   7.382  1.00  0.00     0.294 C 
HETATM    7  O   UNL     1      45.422 -11.801   6.860  1.00  0.00    -0.264 OA
HETATM    8  H   UNL     1      42.483 -12.358   8.000  1.00  0.00     0.190 HD
BRANCH   6   9
HETATM    9  C   UNL     1      43.924 -10.247   7.848  1.00  0.00     0.152 A 
HETATM   10  C   UNL     1      44.284  -9.502   8.968  1.00  0.00    -0.009 A 
HETATM   11  C   UNL     1      45.236  -9.869  10.047  1.00  0.00     0.052 C 
HETATM   12  C   UNL     1      43.547  -8.279   8.883  1.00  0.00     0.007 A 
HETATM   13  C   UNL     1      42.789  -8.363   7.724  1.00  0.00     0.087 A 
HETATM   14  C   UNL     1      43.445  -7.113   9.665  1.00  0.00     0.015 A 
HETATM   15  O   UNL     1      43.013  -9.547   7.099  1.00  0.00    -0.304 OA
HETATM   16  C   UNL     1      41.926  -7.365   7.277  1.00  0.00     0.038 A 
HETATM   17  C   UNL     1      41.840  -6.214   8.068  1.00  0.00     0.003 A 
HETATM   18  C   UNL     1      42.586  -6.089   9.243  1.00  0.00     0.001 A 
ENDBRANCH   6   9
ENDBRANCH   1   5
BRANCH   2  19
HETATM   19  C   UNL     1      43.175 -15.839   5.866  1.00  0.00     0.064 A 
HETATM   20  C   UNL     1      43.276 -16.486   4.582  1.00  0.00     0.046 A 
HETATM   21  C   UNL     1      43.640 -17.820   4.809  1.00  0.00     0.046 A 
HETATM   22  C   UNL     1      43.100 -16.098   3.236  1.00  0.00     0.130 A 
HETATM   23  C   UNL     1      43.828 -18.749   3.776  1.00  0.00     0.030 A 
HETATM   24  N   UNL     1      43.758 -17.985   6.168  1.00  0.00    -0.364 N 
HETATM   25  C   UNL     1      43.643 -18.318   2.460  1.00  0.00     0.005 A 
HETATM   26  C   UNL     1      43.282 -17.003   2.190  1.00  0.00     0.043 A 
HETATM   27  H   UNL     1      44.011 -18.853   6.622  1.00  0.00     0.165 HD
HETATM   28  C   UNL     1      43.483 -16.812   6.807  1.00  0.00     0.106 A 
HETATM   29  F   UNL     1      42.753 -14.840   2.929  1.00  0.00    -0.205 F 
ENDBRANCH   2  19
TORSDOF 3
ENDMDL
MODEL 9
REMARK VINA RESULT:      -8.9      1.754      2.533
REMARK  3 active torsions:
REMARK  status: ('A' for Active; 'I' for Inactive)
REMARK    1  A    between atoms: C_3  and  C_4 
REMARK       I    between atoms: C_4  and  N_5 
REMARK    2  A    between atoms: N_5  and  N_6 
REMARK       I    between atoms: N_6  and  C_7 
REMARK    3  A    between atoms: C_7  and  C_8 
ROOT
HETATM    1  N   UNL     1      44.082 -12.481   7.147  1.00  0.00    -0.263 N 
HETATM    2  C   UNL     1      44.852 -11.410   6.752  1.00  0.00     0.272 C 
HETATM    3  O   UNL     1      45.562 -11.469   5.747  1.00  0.00    -0.266 OA
HETATM    4  H   UNL     1      43.482 -12.478   7.970  1.00  0.00     0.190 HD
ENDROOT
BRANCH   1   5
HETATM    5  N   UNL     1      44.110 -13.657   6.391  1.00  0.00    -0.261 N 
HETATM    6  C   UNL     1      42.992 -14.033   5.672  1.00  0.00     0.294 C 
HETATM    7  O   UNL     1      41.965 -13.353   5.677  1.00  0.00    -0.264 OA
HETATM    8  H   UNL     1      44.965 -14.211   6.395  1.00  0.00     0.190 HD
BRANCH   6   9
HETATM    9  C   UNL     1      43.149 -15.272   4.935  1.00  0.00     0.152 A 
HETATM   10  C   UNL     1      42.968 -15.586   3.591  1.00  0.00    -0.009 A 
HETATM   11  C   UNL     1      42.538 -14.688   2.488  1.00  0.00     0.052 C 
HETATM   12  C   UNL     1      43.284 -16.975   3.463  1.00  0.00     0.007 A 
HETATM   13  C   UNL     1      43.632 -17.412   4.733  1.00  0.00     0.087 A 
HETATM   14  C   UNL     1      43.312 -17.904   2.406  1.00  0.00     0.015 A 
HETATM   15  O   UNL     1      43.550 -16.389   5.622  1.00  0.00    -0.304 OA
HETATM   16  C   UNL     1      44.010 -18.718   5.037  1.00  0.00     0.038 A 
HETATM   17  C   UNL     1      44.031 -19.626   3.972  1.00  0.00     0.003 A 
HETATM   18  C   UNL     1      43.688 -19.227   2.678  1.00  0.00     0.001 A 
ENDBRANCH   6   9
ENDBRANCH   1   5
BRANCH   2  19
HETATM   19  C   UNL     1      44.783 -10.205   7.583  1.00  0.00     0.064 A 
HETATM   20  C   UNL     1      43.675  -9.396   8.025  1.00  0.00     0.046 A 
HETATM   21  C   UNL     1      44.197  -8.356   8.806  1.00  0.00     0.046 A 
HETATM   22  C   UNL     1      42.273  -9.417   7.853  1.00  0.00     0.130 A 
HETATM   23  C   UNL     1      43.397  -7.371   9.403  1.00  0.00     0.030 A 
HETATM   24  N   UNL     1      45.560  -8.519   8.845  1.00  0.00    -0.364 N 
HETATM   25  C   UNL     1      42.016  -7.434   9.205  1.00  0.00     0.005 A 
HETATM   26  C   UNL     1      41.456  -8.448   8.437  1.00  0.00     0.043 A 
HETATM   27  H   UNL     1      46.199  -7.911   9.339  1.00  0.00     0.165 HD
HETATM   28  C   UNL     1      45.921  -9.617   8.120  1.00  0.00     0.106 A 
HETATM   29  F   UNL     1      41.691 -10.377   7.121  1.00  0.00    -0.205 F 
ENDBRANCH   2  19
TORSDOF 3
ENDMDL
MODEL 10
REMARK VINA RESULT:      -8.5      1.677      1.992
REMARK  3 active torsions:
REMARK  status: ('A' for Active; 'I' for Inactive)
REMARK    1  A    between atoms: C_3  and  C_4 
REMARK       I    between atoms: C_4  and  N_5 
REMARK    2  A    between atoms: N_5  and  N_6 
REMARK       I    between atoms: N_6  and  C_7 
REMARK    3  A    between atoms: C_7  and  C_8 
ROOT
HETATM    1  N   UNL     1      42.625 -12.261   6.771  1.00  0.00    -0.263 N 
HETATM    2  C   UNL     1      42.883 -11.013   6.248  1.00  0.00     0.272 C 
HETATM    3  O   UNL     1      43.333 -10.877   5.109  1.00  0.00    -0.266 OA
HETATM    4  H   UNL     1      42.255 -12.421   7.706  1.00  0.00     0.190 HD
ENDROOT
BRANCH   1   5
HETATM    5  N   UNL     1      42.882 -13.394   5.992  1.00  0.00    -0.261 N 
HETATM    6  C   UNL     1      41.883 -14.326   5.793  1.00  0.00     0.294 C 
HETATM    7  O   UNL     1      40.763 -14.184   6.284  1.00  0.00    -0.264 OA
HETATM    8  H   UNL     1      43.813 -13.500   5.591  1.00  0.00     0.190 HD
BRANCH   6   9
HETATM    9  C   UNL     1      42.279 -15.454   4.971  1.00  0.00     0.152 A 
HETATM   10  C   UNL     1      41.978 -15.800   3.657  1.00  0.00    -0.009 A 
HETATM   11  C   UNL     1      41.121 -15.069   2.688  1.00  0.00     0.052 C 
HETATM   12  C   UNL     1      42.669 -17.026   3.402  1.00  0.00     0.007 A 
HETATM   13  C   UNL     1      43.339 -17.344   4.574  1.00  0.00     0.087 A 
HETATM   14  C   UNL     1      42.797 -17.895   2.303  1.00  0.00     0.015 A 
HETATM   15  O   UNL     1      43.105 -16.400   5.522  1.00  0.00    -0.304 OA
HETATM   16  C   UNL     1      44.136 -18.474   4.741  1.00  0.00     0.038 A 
HETATM   17  C   UNL     1      44.251 -19.326   3.636  1.00  0.00     0.003 A 
HETATM   18  C   UNL     1      43.592 -19.043   2.437  1.00  0.00     0.001 A 
ENDBRANCH   6   9
ENDBRANCH   1   5
BRANCH   2  19
HETATM   19  C   UNL     1      42.595  -9.864   7.111  1.00  0.00     0.064 A 
HETATM   20  C   UNL     1      43.070  -9.493   8.420  1.00  0.00     0.046 A 
HETATM   21  C   UNL     1      42.455  -8.282   8.764  1.00  0.00     0.046 A 
HETATM   22  C   UNL     1      43.959 -10.044   9.368  1.00  0.00     0.130 A 
HETATM   23  C   UNL     1      42.687  -7.624   9.980  1.00  0.00     0.030 A 
HETATM   24  N   UNL     1      41.640  -7.925   7.717  1.00  0.00    -0.364 N 
HETATM   25  C   UNL     1      43.575  -8.208  10.887  1.00  0.00     0.005 A 
HETATM   26  C   UNL     1      44.207  -9.408  10.585  1.00  0.00     0.043 A 
HETATM   27  H   UNL     1      41.070  -7.090   7.690  1.00  0.00     0.165 HD
HETATM   28  C   UNL     1      41.716  -8.860   6.727  1.00  0.00     0.106 A 
HETATM   29  F   UNL     1      44.591 -11.199   9.120  1.00  0.00    -0.205 F 
ENDBRANCH   2  19
TORSDOF 3
ENDMDL
