MODEL 1
REMARK VINA RESULT:     -10.2      0.000      0.000
REMARK  6 active torsions:
REMARK  status: ('A' for Active; 'I' for Inactive)
REMARK    1  A    between atoms: C_2  and  O_3 
REMARK    2  A    between atoms: C_2  and  C_4 
REMARK    3  A    between atoms: C_6  and  N_7 
REMARK       I    between atoms: N_7  and  C_8 
REMARK    4  A    between atoms: C_8  and  C_9 
REMARK    5  A    between atoms: C_12  and  C_13 
REMARK    6  A    between atoms: C_18  and  C_19 
ROOT
HETATM    1  C   UNL     1      42.097 -14.876   5.520  1.00  0.00     0.096 A 
HETATM    2  C   UNL     1      42.439 -15.411   4.293  1.00  0.00     0.138 A 
HETATM    3  N   UNL     1      41.256 -15.803   3.710  1.00  0.00    -0.240 N 
HETATM    4  C   UNL     1      41.153 -16.447   2.413  1.00  0.00     0.221 C 
HETATM    5  C   UNL     1      42.500 -16.375   1.662  1.00  0.00     0.066 C 
HETATM    6  C   UNL     1      43.685 -16.651   2.605  1.00  0.00     0.118 C 
HETATM    7  N   UNL     1      43.632 -15.629   3.667  1.00  0.00    -0.365 N 
HETATM    8  N   UNL     1      40.200 -15.705   4.532  1.00  0.00    -0.181 NA
HETATM    9  C   UNL     1      40.709 -15.128   5.624  1.00  0.00     0.160 A 
HETATM   10  H   UNL     1      44.488 -15.603   4.222  1.00  0.00     0.161 HD
ENDROOT
BRANCH   1  11
HETATM   11  C   UNL     1      42.948 -14.257   6.520  1.00  0.00     0.261 C 
HETATM   12  N   UNL     1      43.315 -12.966   6.189  1.00  0.00    -0.323 N 
HETATM   13  H   UNL     1      42.854 -12.581   5.370  1.00  0.00     0.169 HD
HETATM   14  O   UNL     1      43.231 -14.849   7.556  1.00  0.00    -0.267 OA
BRANCH  12  15
HETATM   15  C   UNL     1      44.135 -12.090   6.922  1.00  0.00     0.035 A 
HETATM   16  C   UNL     1      43.809 -11.597   8.188  1.00  0.00     0.039 A 
HETATM   17  C   UNL     1      44.677 -10.729   8.878  1.00  0.00    -0.028 A 
HETATM   18  C   UNL     1      45.885 -10.362   8.272  1.00  0.00     0.010 A 
HETATM   19  C   UNL     1      46.220 -10.849   7.009  1.00  0.00     0.003 A 
HETATM   20  C   UNL     1      45.353 -11.715   6.342  1.00  0.00     0.029 A 
BRANCH  17  21
HETATM   21  C   UNL     1      44.306 -10.256  10.266  1.00  0.00     0.147 C 
HETATM   22  C   UNL     1      43.579  -8.916  10.216  1.00  0.00     0.044 C 
BRANCH  21  23
HETATM   23  O   UNL     1      43.468 -11.213  10.912  1.00  0.00    -0.391 OA
HETATM   24  H   UNL     1      43.628 -12.067  10.476  1.00  0.00     0.210 HD
ENDBRANCH  21  23
ENDBRANCH  17  21
ENDBRANCH  12  15
ENDBRANCH   1  11
BRANCH   4  25
HETATM   25  C   UNL     1      40.075 -15.809   1.566  1.00  0.00     0.409 C 
HETATM   26  F   UNL     1      39.422 -16.676   0.768  1.00  0.00    -0.169 F 
HETATM   27  F   UNL     1      39.161 -15.146   2.312  1.00  0.00    -0.169 F 
HETATM   28  F   UNL     1      40.636 -14.884   0.738  1.00  0.00    -0.169 F 
ENDBRANCH   4  25
BRANCH   6  29
HETATM   29  C   UNL     1      43.751 -18.081   3.140  1.00  0.00    -0.035 A 
HETATM   30  C   UNL     1      43.460 -19.168   2.293  1.00  0.00     0.009 A 
HETATM   31  C   UNL     1      43.512 -20.486   2.756  1.00  0.00     0.001 A 
HETATM   32  C   UNL     1      43.881 -20.750   4.070  1.00  0.00     0.000 A 
HETATM   33  C   UNL     1      44.206 -19.697   4.918  1.00  0.00     0.001 A 
HETATM   34  C   UNL     1      44.147 -18.378   4.457  1.00  0.00     0.009 A 
ENDBRANCH   6  29
TORSDOF 6
ENDMDL
MODEL 2
REMARK VINA RESULT:      -9.6      4.723      8.160
REMARK  6 active torsions:
REMARK  status: ('A' for Active; 'I' for Inactive)
REMARK    1  A    between atoms: C_2  and  O_3 
REMARK    2  A    between atoms: C_2  and  C_4 
REMARK    3  A    between atoms: C_6  and  N_7 
REMARK       I    between atoms: N_7  and  C_8 
REMARK    4  A    between atoms: C_8  and  C_9 
REMARK    5  A    between atoms: C_12  and  C_13 
REMARK    6  A    between atoms: C_18  and  C_19 
ROOT
HETATM    1  C   UNL     1      41.040 -13.081   2.700  1.00  0.00     0.096 A 
HETATM    2  C   UNL     1      41.306 -13.875   3.799  1.00  0.00     0.138 A 
HETATM    3  N   UNL     1      42.477 -13.394   4.337  1.00  0.00    -0.240 N 
HETATM    4  C   UNL     1      43.142 -13.959   5.499  1.00  0.00     0.221 C 
HETATM    5  C   UNL     1      42.223 -14.976   6.208  1.00  0.00     0.066 C 
HETATM    6  C   UNL     1      41.480 -15.865   5.195  1.00  0.00     0.118 C 
HETATM    7  N   UNL     1      40.687 -14.964   4.339  1.00  0.00    -0.365 N 
HETATM    8  N   UNL     1      43.065 -12.455   3.580  1.00  0.00    -0.181 NA
HETATM    9  C   UNL     1      42.184 -12.255   2.596  1.00  0.00     0.160 A 
HETATM   10  H   UNL     1      40.005 -15.471   3.771  1.00  0.00     0.161 HD
ENDROOT
BRANCH   1  11
HETATM   11  C   UNL     1      39.899 -13.107   1.804  1.00  0.00     0.261 C 
HETATM   12  N   UNL     1      40.256 -13.316   0.485  1.00  0.00    -0.323 N 
HETATM   13  H   UNL     1      41.234 -13.543   0.331  1.00  0.00     0.169 HD
HETATM   14  O   UNL     1      38.758 -13.003   2.239  1.00  0.00    -0.267 OA
BRANCH  12  15
HETATM   15  C   UNL     1      39.409 -13.387  -0.635  1.00  0.00     0.035 A 
HETATM   16  C   UNL     1      38.580 -12.340  -1.049  1.00  0.00     0.039 A 
HETATM   17  C   UNL     1      37.760 -12.467  -2.187  1.00  0.00    -0.028 A 
HETATM   18  C   UNL     1      37.786 -13.668  -2.906  1.00  0.00     0.010 A 
HETATM   19  C   UNL     1      38.610 -14.718  -2.502  1.00  0.00     0.003 A 
HETATM   20  C   UNL     1      39.423 -14.573  -1.377  1.00  0.00     0.029 A 
BRANCH  17  21
HETATM   21  C   UNL     1      36.913 -11.293  -2.627  1.00  0.00     0.147 C 
HETATM   22  C   UNL     1      37.775 -10.182  -3.219  1.00  0.00     0.044 C 
BRANCH  21  23
HETATM   23  O   UNL     1      35.959 -11.707  -3.604  1.00  0.00    -0.391 OA
HETATM   24  H   UNL     1      35.695 -12.614  -3.374  1.00  0.00     0.210 HD
ENDBRANCH  21  23
ENDBRANCH  17  21
ENDBRANCH  12  15
ENDBRANCH   1  11
BRANCH   4  25
HETATM   25  C   UNL     1      43.545 -12.881   6.480  1.00  0.00     0.409 C 
HETATM   26  F   UNL     1      44.775 -12.377   6.263  1.00  0.00    -0.169 F 
HETATM   27  F   UNL     1      42.664 -11.854   6.506  1.00  0.00    -0.169 F 
HETATM   28  F   UNL     1      43.567 -13.400   7.739  1.00  0.00    -0.169 F 
ENDBRANCH   4  25
BRANCH   6  29
HETATM   29  C   UNL     1      42.379 -16.818   4.407  1.00  0.00    -0.035 A 
HETATM   30  C   UNL     1      43.390 -17.545   5.066  1.00  0.00     0.009 A 
HETATM   31  C   UNL     1      44.227 -18.422   4.370  1.00  0.00     0.001 A 
HETATM   32  C   UNL     1      44.056 -18.614   3.004  1.00  0.00     0.000 A 
HETATM   33  C   UNL     1      43.043 -17.934   2.335  1.00  0.00     0.001 A 
HETATM   34  C   UNL     1      42.211 -17.051   3.030  1.00  0.00     0.009 A 
ENDBRANCH   6  29
TORSDOF 6
ENDMDL
MODEL 3
REMARK VINA RESULT:      -9.2      4.736      7.999
REMARK  6 active torsions:
REMARK  status: ('A' for Active; 'I' for Inactive)
REMARK    1  A    between atoms: C_2  and  O_3 
REMARK    2  A    between atoms: C_2  and  C_4 
REMARK    3  A    between atoms: C_6  and  N_7 
REMARK       I    between atoms: N_7  and  C_8 
REMARK    4  A    between atoms: C_8  and  C_9 
REMARK    5  A    between atoms: C_12  and  C_13 
REMARK    6  A    between atoms: C_18  and  C_19 
ROOT
HETATM    1  C   UNL     1      41.667 -12.554   2.784  1.00  0.00     0.096 A 
HETATM    2  C   UNL     1      41.679 -13.454   3.832  1.00  0.00     0.138 A 
HETATM    3  N   UNL     1      42.826 -13.188   4.544  1.00  0.00    -0.240 N 
HETATM    4  C   UNL     1      43.252 -13.924   5.721  1.00  0.00     0.221 C 
HETATM    5  C   UNL     1      42.119 -14.844   6.225  1.00  0.00     0.066 C 
HETATM    6  C   UNL     1      41.399 -15.542   5.058  1.00  0.00     0.118 C 
HETATM    7  N   UNL     1      40.852 -14.477   4.197  1.00  0.00    -0.365 N 
HETATM    8  N   UNL     1      43.628 -12.294   3.946  1.00  0.00    -0.181 NA
HETATM    9  C   UNL     1      42.917 -11.899   2.887  1.00  0.00     0.160 A 
HETATM   10  H   UNL     1      40.187 -14.836   3.511  1.00  0.00     0.161 HD
ENDROOT
BRANCH   1  11
HETATM   11  C   UNL     1      40.658 -12.350   1.761  1.00  0.00     0.261 C 
HETATM   12  N   UNL     1      41.195 -12.218   0.494  1.00  0.00    -0.323 N 
HETATM   13  H   UNL     1      42.192 -12.400   0.425  1.00  0.00     0.169 HD
HETATM   14  O   UNL     1      39.466 -12.358   2.046  1.00  0.00    -0.267 OA
BRANCH  12  15
HETATM   15  C   UNL     1      40.509 -12.001  -0.714  1.00  0.00     0.035 A 
HETATM   16  C   UNL     1      39.893 -13.016  -1.450  1.00  0.00     0.039 A 
HETATM   17  C   UNL     1      39.210 -12.734  -2.649  1.00  0.00    -0.028 A 
HETATM   18  C   UNL     1      39.156 -11.409  -3.099  1.00  0.00     0.010 A 
HETATM   19  C   UNL     1      39.767 -10.389  -2.371  1.00  0.00     0.003 A 
HETATM   20  C   UNL     1      40.432 -10.683  -1.180  1.00  0.00     0.029 A 
BRANCH  17  21
HETATM   21  C   UNL     1      38.517 -13.856  -3.392  1.00  0.00     0.147 C 
HETATM   22  C   UNL     1      38.720 -15.192  -2.687  1.00  0.00     0.044 C 
BRANCH  21  23
HETATM   23  O   UNL     1      37.118 -13.595  -3.494  1.00  0.00    -0.391 OA
HETATM   24  H   UNL     1      36.731 -14.327  -4.002  1.00  0.00     0.210 HD
ENDBRANCH  21  23
ENDBRANCH  17  21
ENDBRANCH  12  15
ENDBRANCH   1  11
BRANCH   4  25
HETATM   25  C   UNL     1      43.668 -12.989   6.834  1.00  0.00     0.409 C 
HETATM   26  F   UNL     1      43.035 -11.800   6.814  1.00  0.00    -0.169 F 
HETATM   27  F   UNL     1      43.499 -13.540   8.058  1.00  0.00    -0.169 F 
HETATM   28  F   UNL     1      44.997 -12.712   6.720  1.00  0.00    -0.169 F 
ENDBRANCH   4  25
BRANCH   6  29
HETATM   29  C   UNL     1      42.253 -16.558   4.300  1.00  0.00    -0.035 A 
HETATM   30  C   UNL     1      42.086 -16.726   2.912  1.00  0.00     0.009 A 
HETATM   31  C   UNL     1      42.852 -17.649   2.193  1.00  0.00     0.001 A 
HETATM   32  C   UNL     1      43.821 -18.406   2.841  1.00  0.00     0.000 A 
HETATM   33  C   UNL     1      44.030 -18.235   4.206  1.00  0.00     0.001 A 
HETATM   34  C   UNL     1      43.258 -17.318   4.925  1.00  0.00     0.009 A 
ENDBRANCH   6  29
TORSDOF 6
ENDMDL
MODEL 4
REMARK VINA RESULT:      -9.2      1.955      2.463
REMARK  6 active torsions:
REMARK  status: ('A' for Active; 'I' for Inactive)
REMARK    1  A    between atoms: C_2  and  O_3 
REMARK    2  A    between atoms: C_2  and  C_4 
REMARK    3  A    between atoms: C_6  and  N_7 
REMARK       I    between atoms: N_7  and  C_8 
REMARK    4  A    between atoms: C_8  and  C_9 
REMARK    5  A    between atoms: C_12  and  C_13 
REMARK    6  A    between atoms: C_18  and  C_19 
ROOT
HETATM    1  C   UNL     1      42.273 -12.683   5.683  1.00  0.00     0.096 A 
HETATM    2  C   UNL     1      42.388 -13.089   4.368  1.00  0.00     0.138 A 
HETATM    3  N   UNL     1      41.105 -13.327   3.933  1.00  0.00    -0.240 N 
HETATM    4  C   UNL     1      40.761 -13.803   2.605  1.00  0.00     0.221 C 
HETATM    5  C   UNL     1      41.988 -13.734   1.670  1.00  0.00     0.066 C 
HETATM    6  C   UNL     1      43.268 -14.200   2.385  1.00  0.00     0.118 C 
HETATM    7  N   UNL     1      43.455 -13.311   3.547  1.00  0.00    -0.365 N 
HETATM    8  N   UNL     1      40.189 -13.257   4.912  1.00  0.00    -0.181 NA
HETATM    9  C   UNL     1      40.897 -12.851   5.970  1.00  0.00     0.160 A 
HETATM   10  H   UNL     1      44.382 -13.409   3.965  1.00  0.00     0.161 HD
ENDROOT
BRANCH   1  11
HETATM   11  C   UNL     1      43.307 -12.247   6.603  1.00  0.00     0.261 C 
HETATM   12  N   UNL     1      42.912 -11.182   7.391  1.00  0.00    -0.323 N 
HETATM   13  H   UNL     1      41.932 -10.928   7.316  1.00  0.00     0.169 HD
HETATM   14  O   UNL     1      44.380 -12.836   6.665  1.00  0.00    -0.267 OA
BRANCH  12  15
HETATM   15  C   UNL     1      43.665 -10.511   8.371  1.00  0.00     0.035 A 
HETATM   16  C   UNL     1      43.253 -10.360   9.698  1.00  0.00     0.039 A 
HETATM   17  C   UNL     1      44.056  -9.686  10.638  1.00  0.00    -0.028 A 
HETATM   18  C   UNL     1      45.286  -9.163  10.221  1.00  0.00     0.010 A 
HETATM   19  C   UNL     1      45.706  -9.308   8.900  1.00  0.00     0.003 A 
HETATM   20  C   UNL     1      44.903  -9.987   7.982  1.00  0.00     0.029 A 
BRANCH  17  21
HETATM   21  C   UNL     1      43.595  -9.585  12.075  1.00  0.00     0.147 C 
HETATM   22  C   UNL     1      43.152  -8.165  12.414  1.00  0.00     0.044 C 
BRANCH  21  23
HETATM   23  O   UNL     1      42.507 -10.477  12.312  1.00  0.00    -0.391 OA
HETATM   24  H   UNL     1      42.728 -11.315  11.874  1.00  0.00     0.210 HD
ENDBRANCH  21  23
ENDBRANCH  17  21
ENDBRANCH  12  15
ENDBRANCH   1  11
BRANCH   4  25
HETATM   25  C   UNL     1      39.631 -12.997   2.007  1.00  0.00     0.409 C 
HETATM   26  F   UNL     1      39.465 -13.187   0.683  1.00  0.00    -0.169 F 
HETATM   27  F   UNL     1      38.449 -13.234   2.622  1.00  0.00    -0.169 F 
HETATM   28  F   UNL     1      39.886 -11.669   2.168  1.00  0.00    -0.169 F 
ENDBRANCH   4  25
BRANCH   6  29
HETATM   29  C   UNL     1      43.289 -15.685   2.746  1.00  0.00    -0.035 A 
HETATM   30  C   UNL     1      43.116 -16.659   1.744  1.00  0.00     0.009 A 
HETATM   31  C   UNL     1      43.130 -18.024   2.046  1.00  0.00     0.001 A 
HETATM   32  C   UNL     1      43.343 -18.448   3.352  1.00  0.00     0.000 A 
HETATM   33  C   UNL     1      43.551 -17.507   4.356  1.00  0.00     0.001 A 
HETATM   34  C   UNL     1      43.529 -16.142   4.054  1.00  0.00     0.009 A 
ENDBRANCH   6  29
TORSDOF 6
ENDMDL
MODEL 5
REMARK VINA RESULT:      -8.9     15.483     16.907
REMARK  6 active torsions:
REMARK  status: ('A' for Active; 'I' for Inactive)
REMARK    1  A    between atoms: C_2  and  O_3 
REMARK    2  A    between atoms: C_2  and  C_4 
REMARK    3  A    between atoms: C_6  and  N_7 
REMARK       I    between atoms: N_7  and  C_8 
REMARK    4  A    between atoms: C_8  and  C_9 
REMARK    5  A    between atoms: C_12  and  C_13 
REMARK    6  A    between atoms: C_18  and  C_19 
ROOT
HETATM    1  C   UNL     1      43.603 -30.454   0.542  1.00  0.00     0.096 A 
HETATM    2  C   UNL     1      44.374 -29.604  -0.228  1.00  0.00     0.138 A 
HETATM    3  N   UNL     1      44.463 -30.195  -1.467  1.00  0.00    -0.240 N 
HETATM    4  C   UNL     1      45.212 -29.650  -2.586  1.00  0.00     0.221 C 
HETATM    5  C   UNL     1      45.651 -28.200  -2.290  1.00  0.00     0.066 C 
HETATM    6  C   UNL     1      46.145 -28.046  -0.841  1.00  0.00     0.118 C 
HETATM    7  N   UNL     1      45.024 -28.434   0.035  1.00  0.00    -0.365 N 
HETATM    8  N   UNL     1      43.942 -31.431  -1.506  1.00  0.00    -0.181 NA
HETATM    9  C   UNL     1      43.407 -31.581  -0.292  1.00  0.00     0.160 A 
HETATM   10  H   UNL     1      45.185 -28.171   1.009  1.00  0.00     0.161 HD
ENDROOT
BRANCH   1  11
HETATM   11  C   UNL     1      43.144 -30.291   1.909  1.00  0.00     0.261 C 
HETATM   12  N   UNL     1      42.474 -31.401   2.388  1.00  0.00    -0.323 N 
HETATM   13  H   UNL     1      42.497 -32.215   1.782  1.00  0.00     0.169 HD
HETATM   14  O   UNL     1      43.401 -29.271   2.539  1.00  0.00    -0.267 OA
BRANCH  12  15
HETATM   15  C   UNL     1      41.893 -31.575   3.656  1.00  0.00     0.035 A 
HETATM   16  C   UNL     1      42.630 -31.704   4.836  1.00  0.00     0.039 A 
HETATM   17  C   UNL     1      41.990 -31.866   6.080  1.00  0.00    -0.028 A 
HETATM   18  C   UNL     1      40.590 -31.896   6.119  1.00  0.00     0.010 A 
HETATM   19  C   UNL     1      39.846 -31.768   4.948  1.00  0.00     0.003 A 
HETATM   20  C   UNL     1      40.495 -31.600   3.724  1.00  0.00     0.029 A 
BRANCH  17  21
HETATM   21  C   UNL     1      42.823 -31.955   7.340  1.00  0.00     0.147 C 
HETATM   22  C   UNL     1      44.281 -32.264   7.016  1.00  0.00     0.044 C 
BRANCH  21  23
HETATM   23  O   UNL     1      42.762 -30.727   8.065  1.00  0.00    -0.391 OA
HETATM   24  H   UNL     1      43.410 -30.127   7.660  1.00  0.00     0.210 HD
ENDBRANCH  21  23
ENDBRANCH  17  21
ENDBRANCH  12  15
ENDBRANCH   1  11
BRANCH   4  25
HETATM   25  C   UNL     1      44.395 -29.674  -3.858  1.00  0.00     0.409 C 
HETATM   26  F   UNL     1      44.380 -30.872  -4.475  1.00  0.00    -0.169 F 
HETATM   27  F   UNL     1      43.115 -29.285  -3.655  1.00  0.00    -0.169 F 
HETATM   28  F   UNL     1      44.925 -28.796  -4.754  1.00  0.00    -0.169 F 
ENDBRANCH   4  25
BRANCH   6  29
HETATM   29  C   UNL     1      47.445 -28.790  -0.530  1.00  0.00    -0.035 A 
HETATM   30  C   UNL     1      48.374 -29.048  -1.556  1.00  0.00     0.009 A 
HETATM   31  C   UNL     1      49.570 -29.727  -1.300  1.00  0.00     0.001 A 
HETATM   32  C   UNL     1      49.875 -30.140  -0.009  1.00  0.00     0.000 A 
HETATM   33  C   UNL     1      48.989 -29.868   1.028  1.00  0.00     0.001 A 
HETATM   34  C   UNL     1      47.791 -29.196   0.771  1.00  0.00     0.009 A 
ENDBRANCH   6  29
TORSDOF 6
ENDMDL
MODEL 6
REMARK VINA RESULT:      -8.9      4.760      7.958
REMARK  6 active torsions:
REMARK  status: ('A' for Active; 'I' for Inactive)
REMARK    1  A    between atoms: C_2  and  O_3 
REMARK    2  A    between atoms: C_2  and  C_4 
REMARK    3  A    between atoms: C_6  and  N_7 
REMARK       I    between atoms: N_7  and  C_8 
REMARK    4  A    between atoms: C_8  and  C_9 
REMARK    5  A    between atoms: C_12  and  C_13 
REMARK    6  A    between atoms: C_18  and  C_19 
ROOT
HETATM    1  C   UNL     1      40.986 -13.617   2.092  1.00  0.00     0.096 A 
HETATM    2  C   UNL     1      40.733 -12.716   1.075  1.00  0.00     0.138 A 
HETATM    3  N   UNL     1      39.605 -12.026   1.456  1.00  0.00    -0.240 N 
HETATM    4  C   UNL     1      38.966 -10.992   0.661  1.00  0.00     0.221 C 
HETATM    5  C   UNL     1      39.871 -10.579  -0.520  1.00  0.00     0.066 C 
HETATM    6  C   UNL     1      40.534 -11.802  -1.175  1.00  0.00     0.118 C 
HETATM    7  N   UNL     1      41.328 -12.469  -0.127  1.00  0.00    -0.365 N 
HETATM    8  N   UNL     1      39.026 -12.520   2.562  1.00  0.00    -0.181 NA
HETATM    9  C   UNL     1      39.874 -13.475   2.955  1.00  0.00     0.160 A 
HETATM   10  H   UNL     1      41.965 -13.170  -0.511  1.00  0.00     0.161 HD
ENDROOT
BRANCH   1  11
HETATM   11  C   UNL     1      42.087 -14.551   2.236  1.00  0.00     0.261 C 
HETATM   12  N   UNL     1      41.866 -15.495   3.222  1.00  0.00    -0.323 N 
HETATM   13  H   UNL     1      40.934 -15.492   3.623  1.00  0.00     0.169 HD
HETATM   14  O   UNL     1      43.062 -14.490   1.495  1.00  0.00    -0.267 OA
BRANCH  12  15
HETATM   15  C   UNL     1      42.725 -16.533   3.628  1.00  0.00     0.035 A 
HETATM   16  C   UNL     1      42.829 -17.758   2.965  1.00  0.00     0.039 A 
HETATM   17  C   UNL     1      43.716 -18.756   3.414  1.00  0.00    -0.028 A 
HETATM   18  C   UNL     1      44.499 -18.501   4.546  1.00  0.00     0.010 A 
HETATM   19  C   UNL     1      44.403 -17.281   5.214  1.00  0.00     0.003 A 
HETATM   20  C   UNL     1      43.526 -16.299   4.751  1.00  0.00     0.029 A 
BRANCH  17  21
HETATM   21  C   UNL     1      43.832 -20.051   2.640  1.00  0.00     0.147 C 
HETATM   22  C   UNL     1      44.025 -21.238   3.578  1.00  0.00     0.044 C 
BRANCH  21  23
HETATM   23  O   UNL     1      42.662 -20.268   1.854  1.00  0.00    -0.391 OA
HETATM   24  H   UNL     1      42.586 -21.227   1.720  1.00  0.00     0.210 HD
ENDBRANCH  21  23
ENDBRANCH  17  21
ENDBRANCH  12  15
ENDBRANCH   1  11
BRANCH   4  25
HETATM   25  C   UNL     1      38.648  -9.773   1.497  1.00  0.00     0.409 C 
HETATM   26  F   UNL     1      37.483  -9.859   2.168  1.00  0.00    -0.169 F 
HETATM   27  F   UNL     1      39.630  -9.488   2.385  1.00  0.00    -0.169 F 
HETATM   28  F   UNL     1      38.538  -8.683   0.687  1.00  0.00    -0.169 F 
ENDBRANCH   4  25
BRANCH   6  29
HETATM   29  C   UNL     1      39.565 -12.741  -1.894  1.00  0.00    -0.035 A 
HETATM   30  C   UNL     1      38.287 -12.286  -2.270  1.00  0.00     0.009 A 
HETATM   31  C   UNL     1      37.380 -13.124  -2.927  1.00  0.00     0.001 A 
HETATM   32  C   UNL     1      37.741 -14.427  -3.247  1.00  0.00     0.000 A 
HETATM   33  C   UNL     1      39.010 -14.891  -2.918  1.00  0.00     0.001 A 
HETATM   34  C   UNL     1      39.913 -14.056  -2.254  1.00  0.00     0.009 A 
ENDBRANCH   6  29
TORSDOF 6
ENDMDL
MODEL 7
REMARK VINA RESULT:      -8.7     15.903     17.562
REMARK  6 active torsions:
REMARK  status: ('A' for Active; 'I' for Inactive)
REMARK    1  A    between atoms: C_2  and  O_3 
REMARK    2  A    between atoms: C_2  and  C_4 
REMARK    3  A    between atoms: C_6  and  N_7 
REMARK       I    between atoms: N_7  and  C_8 
REMARK    4  A    between atoms: C_8  and  C_9 
REMARK    5  A    between atoms: C_12  and  C_13 
REMARK    6  A    between atoms: C_18  and  C_19 
ROOT
HETATM    1  C   UNL     1      44.022 -31.325  -0.281  1.00  0.00     0.096 A 
HETATM    2  C   UNL     1      44.728 -30.190  -0.631  1.00  0.00     0.138 A 
HETATM    3  N   UNL     1      44.916 -30.268  -1.992  1.00  0.00    -0.240 N 
HETATM    4  C   UNL     1      45.642 -29.287  -2.779  1.00  0.00     0.221 C 
HETATM    5  C   UNL     1      45.923 -28.020  -1.943  1.00  0.00     0.066 C 
HETATM    6  C   UNL     1      46.352 -28.376  -0.509  1.00  0.00     0.118 C 
HETATM    7  N   UNL     1      45.247 -29.152   0.086  1.00  0.00    -0.365 N 
HETATM    8  N   UNL     1      44.524 -31.439  -2.517  1.00  0.00    -0.181 NA
HETATM    9  C   UNL     1      43.968 -32.073  -1.481  1.00  0.00     0.160 A 
HETATM   10  H   UNL     1      45.349 -29.259   1.097  1.00  0.00     0.161 HD
ENDROOT
BRANCH   1  11
HETATM   11  C   UNL     1      43.504 -31.720   1.016  1.00  0.00     0.261 C 
HETATM   12  N   UNL     1      42.306 -31.104   1.327  1.00  0.00    -0.323 N 
HETATM   13  H   UNL     1      41.889 -30.564   0.575  1.00  0.00     0.169 HD
HETATM   14  O   UNL     1      44.087 -32.557   1.695  1.00  0.00    -0.267 OA
BRANCH  12  15
HETATM   15  C   UNL     1      41.542 -31.250   2.498  1.00  0.00     0.035 A 
HETATM   16  C   UNL     1      40.466 -32.133   2.618  1.00  0.00     0.039 A 
HETATM   17  C   UNL     1      39.744 -32.242   3.822  1.00  0.00    -0.028 A 
HETATM   18  C   UNL     1      40.123 -31.445   4.910  1.00  0.00     0.010 A 
HETATM   19  C   UNL     1      41.196 -30.562   4.801  1.00  0.00     0.003 A 
HETATM   20  C   UNL     1      41.907 -30.472   3.603  1.00  0.00     0.029 A 
BRANCH  17  21
HETATM   21  C   UNL     1      38.615 -33.244   3.924  1.00  0.00     0.147 C 
HETATM   22  C   UNL     1      39.058 -34.501   4.665  1.00  0.00     0.044 C 
BRANCH  21  23
HETATM   23  O   UNL     1      37.503 -32.671   4.611  1.00  0.00    -0.391 OA
HETATM   24  H   UNL     1      36.929 -33.408   4.882  1.00  0.00     0.210 HD
ENDBRANCH  21  23
ENDBRANCH  17  21
ENDBRANCH  12  15
ENDBRANCH   1  11
BRANCH   4  25
HETATM   25  C   UNL     1      44.874 -28.903  -4.024  1.00  0.00     0.409 C 
HETATM   26  F   UNL     1      45.137 -29.683  -5.091  1.00  0.00    -0.169 F 
HETATM   27  F   UNL     1      43.535 -28.898  -3.821  1.00  0.00    -0.169 F 
HETATM   28  F   UNL     1      45.209 -27.635  -4.391  1.00  0.00    -0.169 F 
ENDBRANCH   4  25
BRANCH   6  29
HETATM   29  C   UNL     1      47.708 -29.073  -0.406  1.00  0.00    -0.035 A 
HETATM   30  C   UNL     1      48.140 -29.600   0.827  1.00  0.00     0.009 A 
HETATM   31  C   UNL     1      49.377 -30.241   0.951  1.00  0.00     0.001 A 
HETATM   32  C   UNL     1      50.199 -30.392  -0.160  1.00  0.00     0.000 A 
HETATM   33  C   UNL     1      49.781 -29.911  -1.396  1.00  0.00     0.001 A 
HETATM   34  C   UNL     1      48.548 -29.264  -1.518  1.00  0.00     0.009 A 
ENDBRANCH   6  29
TORSDOF 6
ENDMDL
MODEL 8
REMARK VINA RESULT:      -8.3      5.056      7.854
REMARK  6 active torsions:
REMARK  status: ('A' for Active; 'I' for Inactive)
REMARK    1  A    between atoms: C_2  and  O_3 
REMARK    2  A    between atoms: C_2  and  C_4 
REMARK    3  A    between atoms: C_6  and  N_7 
REMARK       I    between atoms: N_7  and  C_8 
REMARK    4  A    between atoms: C_8  and  C_9 
REMARK    5  A    between atoms: C_12  and  C_13 
REMARK    6  A    between atoms: C_18  and  C_19 
ROOT
HETATM    1  C   UNL     1      41.458 -12.989   2.630  1.00  0.00     0.096 A 
HETATM    2  C   UNL     1      41.562 -13.833   3.719  1.00  0.00     0.138 A 
HETATM    3  N   UNL     1      42.703 -13.449   4.385  1.00  0.00    -0.240 N 
HETATM    4  C   UNL     1      43.212 -14.093   5.583  1.00  0.00     0.221 C 
HETATM    5  C   UNL     1      42.164 -15.068   6.162  1.00  0.00     0.066 C 
HETATM    6  C   UNL     1      41.469 -15.872   5.050  1.00  0.00     0.118 C 
HETATM    7  N   UNL     1      40.824 -14.894   4.155  1.00  0.00    -0.365 N 
HETATM    8  N   UNL     1      43.422 -12.529   3.723  1.00  0.00    -0.181 NA
HETATM    9  C   UNL     1      42.658 -12.239   2.667  1.00  0.00     0.160 A 
HETATM   10  H   UNL     1      40.170 -15.335   3.505  1.00  0.00     0.161 HD
ENDROOT
BRANCH   1  11
HETATM   11  C   UNL     1      40.412 -12.910   1.627  1.00  0.00     0.261 C 
HETATM   12  N   UNL     1      40.278 -11.644   1.087  1.00  0.00    -0.323 N 
HETATM   13  H   UNL     1      40.993 -10.978   1.363  1.00  0.00     0.169 HD
HETATM   14  O   UNL     1      39.783 -13.909   1.298  1.00  0.00    -0.267 OA
BRANCH  12  15
HETATM   15  C   UNL     1      39.363 -11.218   0.108  1.00  0.00     0.035 A 
HETATM   16  C   UNL     1      39.714 -10.946  -1.216  1.00  0.00     0.039 A 
HETATM   17  C   UNL     1      38.749 -10.532  -2.155  1.00  0.00    -0.028 A 
HETATM   18  C   UNL     1      37.419 -10.395  -1.738  1.00  0.00     0.010 A 
HETATM   19  C   UNL     1      37.059 -10.664  -0.419  1.00  0.00     0.003 A 
HETATM   20  C   UNL     1      38.025 -11.083   0.497  1.00  0.00     0.029 A 
BRANCH  17  21
HETATM   21  C   UNL     1      39.163 -10.292  -3.591  1.00  0.00     0.147 C 
HETATM   22  C   UNL     1      38.267  -9.252  -4.256  1.00  0.00     0.044 C 
BRANCH  21  23
HETATM   23  O   UNL     1      40.515  -9.843  -3.650  1.00  0.00    -0.391 OA
HETATM   24  H   UNL     1      40.646  -9.457  -4.532  1.00  0.00     0.210 HD
ENDBRANCH  21  23
ENDBRANCH  17  21
ENDBRANCH  12  15
ENDBRANCH   1  11
BRANCH   4  25
HETATM   25  C   UNL     1      43.585 -13.076   6.638  1.00  0.00     0.409 C 
HETATM   26  F   UNL     1      43.476 -13.534   7.901  1.00  0.00    -0.169 F 
HETATM   27  F   UNL     1      44.838 -12.595   6.467  1.00  0.00    -0.169 F 
HETATM   28  F   UNL     1      42.748 -12.005   6.552  1.00  0.00    -0.169 F 
ENDBRANCH   4  25
BRANCH   6  29
HETATM   29  C   UNL     1      42.378 -16.860   4.317  1.00  0.00    -0.035 A 
HETATM   30  C   UNL     1      42.202 -17.093   2.939  1.00  0.00     0.009 A 
HETATM   31  C   UNL     1      43.017 -17.991   2.244  1.00  0.00     0.001 A 
HETATM   32  C   UNL     1      44.043 -18.657   2.904  1.00  0.00     0.000 A 
HETATM   33  C   UNL     1      44.260 -18.419   4.257  1.00  0.00     0.001 A 
HETATM   34  C   UNL     1      43.440 -17.526   4.953  1.00  0.00     0.009 A 
ENDBRANCH   6  29
TORSDOF 6
ENDMDL
MODEL 9
REMARK VINA RESULT:      -8.3      4.602      7.506
REMARK  6 active torsions:
REMARK  status: ('A' for Active; 'I' for Inactive)
REMARK    1  A    between atoms: C_2  and  O_3 
REMARK    2  A    between atoms: C_2  and  C_4 
REMARK    3  A    between atoms: C_6  and  N_7 
REMARK       I    between atoms: N_7  and  C_8 
REMARK    4  A    between atoms: C_8  and  C_9 
REMARK    5  A    between atoms: C_12  and  C_13 
REMARK    6  A    between atoms: C_18  and  C_19 
ROOT
HETATM    1  C   UNL     1      40.653 -13.129   2.176  1.00  0.00     0.096 A 
HETATM    2  C   UNL     1      40.423 -12.318   1.081  1.00  0.00     0.138 A 
HETATM    3  N   UNL     1      39.241 -11.663   1.339  1.00  0.00    -0.240 N 
HETATM    4  C   UNL     1      38.605 -10.724   0.431  1.00  0.00     0.221 C 
HETATM    5  C   UNL     1      39.564 -10.349  -0.719  1.00  0.00     0.066 C 
HETATM    6  C   UNL     1      40.328 -11.579  -1.239  1.00  0.00     0.118 C 
HETATM    7  N   UNL     1      41.083 -12.126  -0.097  1.00  0.00    -0.365 N 
HETATM    8  N   UNL     1      38.615 -12.107   2.441  1.00  0.00    -0.181 NA
HETATM    9  C   UNL     1      39.481 -12.985   2.955  1.00  0.00     0.160 A 
HETATM   10  H   UNL     1      41.777 -12.817  -0.387  1.00  0.00     0.161 HD
ENDROOT
BRANCH   1  11
HETATM   11  C   UNL     1      41.787 -13.990   2.457  1.00  0.00     0.261 C 
HETATM   12  N   UNL     1      41.412 -15.246   2.896  1.00  0.00    -0.323 N 
HETATM   13  H   UNL     1      40.418 -15.443   2.847  1.00  0.00     0.169 HD
HETATM   14  O   UNL     1      42.933 -13.603   2.256  1.00  0.00    -0.267 OA
BRANCH  12  15
HETATM   15  C   UNL     1      42.250 -16.314   3.264  1.00  0.00     0.035 A 
HETATM   16  C   UNL     1      42.627 -16.586   4.582  1.00  0.00     0.039 A 
HETATM   17  C   UNL     1      43.461 -17.678   4.891  1.00  0.00    -0.028 A 
HETATM   18  C   UNL     1      43.912 -18.496   3.848  1.00  0.00     0.010 A 
HETATM   19  C   UNL     1      43.541 -18.234   2.530  1.00  0.00     0.003 A 
HETATM   20  C   UNL     1      42.706 -17.153   2.242  1.00  0.00     0.029 A 
BRANCH  17  21
HETATM   21  C   UNL     1      43.808 -17.964   6.335  1.00  0.00     0.147 C 
HETATM   22  C   UNL     1      43.256 -16.884   7.259  1.00  0.00     0.044 C 
BRANCH  21  23
HETATM   23  O   UNL     1      43.278 -19.228   6.733  1.00  0.00    -0.391 OA
HETATM   24  H   UNL     1      43.154 -19.191   7.696  1.00  0.00     0.210 HD
ENDBRANCH  21  23
ENDBRANCH  17  21
ENDBRANCH  12  15
ENDBRANCH   1  11
BRANCH   4  25
HETATM   25  C   UNL     1      38.174  -9.467   1.152  1.00  0.00     0.409 C 
HETATM   26  F   UNL     1      38.130  -8.374   0.366  1.00  0.00    -0.169 F 
HETATM   27  F   UNL     1      36.970  -9.607   1.753  1.00  0.00    -0.169 F 
HETATM   28  F   UNL     1      39.065  -9.184   2.143  1.00  0.00    -0.169 F 
ENDBRANCH   4  25
BRANCH   6  29
HETATM   29  C   UNL     1      39.455 -12.617  -1.945  1.00  0.00    -0.035 A 
HETATM   30  C   UNL     1      38.165 -12.271  -2.392  1.00  0.00     0.009 A 
HETATM   31  C   UNL     1      37.346 -13.201  -3.038  1.00  0.00     0.001 A 
HETATM   32  C   UNL     1      37.806 -14.491  -3.276  1.00  0.00     0.000 A 
HETATM   33  C   UNL     1      39.089 -14.849  -2.875  1.00  0.00     0.001 A 
HETATM   34  C   UNL     1      39.905 -13.920  -2.222  1.00  0.00     0.009 A 
ENDBRANCH   6  29
TORSDOF 6
ENDMDL
MODEL 10
REMARK VINA RESULT:      -8.2     15.077     17.386
REMARK  6 active torsions:
REMARK  status: ('A' for Active; 'I' for Inactive)
REMARK    1  A    between atoms: C_2  and  O_3 
REMARK    2  A    between atoms: C_2  and  C_4 
REMARK    3  A    between atoms: C_6  and  N_7 
REMARK       I    between atoms: N_7  and  C_8 
REMARK    4  A    between atoms: C_8  and  C_9 
REMARK    5  A    between atoms: C_12  and  C_13 
REMARK    6  A    between atoms: C_18  and  C_19 
ROOT
HETATM    1  C   UNL     1      43.809 -30.458   1.010  1.00  0.00     0.096 A 
HETATM    2  C   UNL     1      44.898 -29.612   1.101  1.00  0.00     0.138 A 
HETATM    3  N   UNL     1      45.749 -29.984   0.086  1.00  0.00    -0.240 N 
HETATM    4  C   UNL     1      47.040 -29.371  -0.169  1.00  0.00     0.221 C 
HETATM    5  C   UNL     1      47.201 -28.078   0.659  1.00  0.00     0.066 C 
HETATM    6  C   UNL     1      46.665 -28.257   2.090  1.00  0.00     0.118 C 
HETATM    7  N   UNL     1      45.240 -28.617   1.970  1.00  0.00    -0.365 N 
HETATM    8  N   UNL     1      45.364 -31.101  -0.550  1.00  0.00    -0.181 NA
HETATM    9  C   UNL     1      44.179 -31.378   0.001  1.00  0.00     0.160 A 
HETATM   10  H   UNL     1      44.748 -28.557   2.863  1.00  0.00     0.161 HD
ENDROOT
BRANCH   1  11
HETATM   11  C   UNL     1      42.587 -30.468   1.794  1.00  0.00     0.261 C 
HETATM   12  N   UNL     1      42.588 -31.441   2.777  1.00  0.00    -0.323 N 
HETATM   13  H   UNL     1      43.469 -31.928   2.904  1.00  0.00     0.169 HD
HETATM   14  O   UNL     1      41.706 -29.641   1.593  1.00  0.00    -0.267 OA
BRANCH  12  15
HETATM   15  C   UNL     1      41.568 -31.731   3.701  1.00  0.00     0.035 A 
HETATM   16  C   UNL     1      40.358 -32.339   3.355  1.00  0.00     0.039 A 
HETATM   17  C   UNL     1      39.377 -32.615   4.327  1.00  0.00    -0.028 A 
HETATM   18  C   UNL     1      39.634 -32.268   5.660  1.00  0.00     0.010 A 
HETATM   19  C   UNL     1      40.838 -31.662   6.015  1.00  0.00     0.003 A 
HETATM   20  C   UNL     1      41.803 -31.403   5.040  1.00  0.00     0.029 A 
BRANCH  17  21
HETATM   21  C   UNL     1      38.101 -33.316   3.919  1.00  0.00     0.147 C 
HETATM   22  C   UNL     1      38.130 -34.789   4.314  1.00  0.00     0.044 C 
BRANCH  21  23
HETATM   23  O   UNL     1      36.973 -32.695   4.533  1.00  0.00    -0.391 OA
HETATM   24  H   UNL     1      36.344 -32.485   3.823  1.00  0.00     0.210 HD
ENDBRANCH  21  23
ENDBRANCH  17  21
ENDBRANCH  12  15
ENDBRANCH   1  11
BRANCH   4  25
HETATM   25  C   UNL     1      47.216 -29.049  -1.636  1.00  0.00     0.409 C 
HETATM   26  F   UNL     1      47.783 -30.041  -2.349  1.00  0.00    -0.169 F 
HETATM   27  F   UNL     1      46.048 -28.712  -2.232  1.00  0.00    -0.169 F 
HETATM   28  F   UNL     1      48.038 -27.971  -1.769  1.00  0.00    -0.169 F 
ENDBRANCH   4  25
BRANCH   6  29
HETATM   29  C   UNL     1      47.468 -29.230   2.953  1.00  0.00    -0.035 A 
HETATM   30  C   UNL     1      46.814 -30.273   3.637  1.00  0.00     0.009 A 
HETATM   31  C   UNL     1      47.523 -31.177   4.434  1.00  0.00     0.001 A 
HETATM   32  C   UNL     1      48.905 -31.075   4.545  1.00  0.00     0.000 A 
HETATM   33  C   UNL     1      49.579 -30.074   3.853  1.00  0.00     0.001 A 
HETATM   34  C   UNL     1      48.869 -29.166   3.062  1.00  0.00     0.009 A 
ENDBRANCH   6  29
TORSDOF 6
ENDMDL
