MODEL 1
REMARK VINA RESULT:      -9.2      0.000      0.000
REMARK  8 active torsions:
REMARK  status: ('A' for Active; 'I' for Inactive)
REMARK    1  A    between atoms: C_4  and  C_5 
REMARK    2  A    between atoms: C_5  and  N_6 
REMARK    3  A    between atoms: C_8  and  N_9 
REMARK       I    between atoms: N_9  and  C_10 
REMARK       I    between atoms: C_10  and  N_11 
REMARK    4  A    between atoms: N_11  and  C_12 
REMARK    5  A    between atoms: C_12  and  C_13 
REMARK    6  A    between atoms: C_13  and  N_14 
REMARK       I    between atoms: N_14  and  C_15 
REMARK    7  A    between atoms: C_15  and  C_16 
REMARK    8  A    between atoms: C_17  and  O_18 
ROOT
HETATM    1  N   UNL     1      40.108 -14.474   5.268  1.00  0.00    -0.292 N 
HETATM    2  C   UNL     1      40.394 -13.236   5.759  1.00  0.00     0.321 C 
HETATM    3  N   UNL     1      41.529 -12.636   5.314  1.00  0.00    -0.341 N 
HETATM    4  O   UNL     1      39.650 -12.724   6.594  1.00  0.00    -0.247 OA
HETATM    5  H   UNL     1      39.289 -14.896   5.676  1.00  0.00     0.172 HD
HETATM    6  H   UNL     1      41.985 -13.096   4.526  1.00  0.00     0.164 HD
ENDROOT
BRANCH   1   7
HETATM    7  C   UNL     1      40.760 -15.180   4.283  1.00  0.00     0.153 A 
HETATM    8  N   UNL     1      42.029 -15.597   4.355  1.00  0.00    -0.154 NA
HETATM    9  N   UNL     1      42.241 -16.226   3.179  1.00  0.00    -0.275 N 
HETATM   10  C   UNL     1      41.152 -16.209   2.357  1.00  0.00     0.116 A 
HETATM   11  C   UNL     1      40.172 -15.537   3.047  1.00  0.00     0.071 A 
BRANCH   9  12
HETATM   12  C   UNL     1      43.560 -16.765   2.865  1.00  0.00     0.189 C 
BRANCH  12  13
HETATM   13  C   UNL     1      43.664 -18.234   3.188  1.00  0.00    -0.038 A 
HETATM   14  C   UNL     1      43.392 -19.201   2.208  1.00  0.00     0.009 A 
HETATM   15  C   UNL     1      43.514 -20.560   2.501  1.00  0.00     0.001 A 
HETATM   16  C   UNL     1      43.911 -20.968   3.773  1.00  0.00     0.000 A 
HETATM   17  C   UNL     1      44.185 -20.019   4.755  1.00  0.00     0.001 A 
HETATM   18  C   UNL     1      44.066 -18.659   4.464  1.00  0.00     0.009 A 
ENDBRANCH  12  13
ENDBRANCH   9  12
ENDBRANCH   1   7
BRANCH   3  19
HETATM   19  C   UNL     1      41.893 -11.283   5.674  1.00  0.00     0.144 C 
BRANCH  19  20
HETATM   20  C   UNL     1      43.159 -11.209   6.538  1.00  0.00     0.142 C 
BRANCH  20  21
HETATM   21  N   UNL     1      42.909 -10.596   7.831  1.00  0.00    -0.355 N 
HETATM   22  C   UNL     1      43.858 -10.598   8.830  1.00  0.00     0.254 C 
HETATM   23  O   UNL     1      44.955 -11.139   8.711  1.00  0.00    -0.268 OA
HETATM   24  H   UNL     1      42.121  -9.967   7.882  1.00  0.00     0.162 HD
BRANCH  22  25
HETATM   25  C   UNL     1      43.542  -9.857  10.086  1.00  0.00     0.065 A 
HETATM   26  C   UNL     1      43.463 -10.558  11.300  1.00  0.00     0.081 A 
HETATM   27  C   UNL     1      43.198  -9.889  12.494  1.00  0.00     0.037 A 
HETATM   28  C   UNL     1      42.991  -8.512  12.490  1.00  0.00     0.003 A 
HETATM   29  C   UNL     1      43.039  -7.804  11.290  1.00  0.00     0.001 A 
HETATM   30  C   UNL     1      43.309  -8.473  10.090  1.00  0.00     0.020 A 
BRANCH  26  31
HETATM   31  O   UNL     1      43.635 -11.914  11.397  1.00  0.00    -0.360 OA
HETATM   32  H   UNL     1      43.530 -12.161  12.343  1.00  0.00     0.217 HD
ENDBRANCH  26  31
ENDBRANCH  22  25
ENDBRANCH  20  21
ENDBRANCH  19  20
ENDBRANCH   3  19
TORSDOF 8
ENDMDL
MODEL 2
REMARK VINA RESULT:      -9.0      2.217      2.996
REMARK  8 active torsions:
REMARK  status: ('A' for Active; 'I' for Inactive)
REMARK    1  A    between atoms: C_4  and  C_5 
REMARK    2  A    between atoms: C_5  and  N_6 
REMARK    3  A    between atoms: C_8  and  N_9 
REMARK       I    between atoms: N_9  and  C_10 
REMARK       I    between atoms: C_10  and  N_11 
REMARK    4  A    between atoms: N_11  and  C_12 
REMARK    5  A    between atoms: C_12  and  C_13 
REMARK    6  A    between atoms: C_13  and  N_14 
REMARK       I    between atoms: N_14  and  C_15 
REMARK    7  A    between atoms: C_15  and  C_16 
REMARK    8  A    between atoms: C_17  and  O_18 
ROOT
HETATM    1  N   UNL     1      42.309 -13.228   6.779  1.00  0.00    -0.292 N 
HETATM    2  C   UNL     1      43.121 -12.144   6.640  1.00  0.00     0.321 C 
HETATM    3  N   UNL     1      44.442 -12.379   6.424  1.00  0.00    -0.341 N 
HETATM    4  O   UNL     1      42.650 -11.012   6.741  1.00  0.00    -0.247 OA
HETATM    5  H   UNL     1      41.351 -12.996   6.996  1.00  0.00     0.172 HD
HETATM    6  H   UNL     1      44.685 -13.348   6.223  1.00  0.00     0.164 HD
ENDROOT
BRANCH   1   7
HETATM    7  C   UNL     1      42.617 -14.560   6.626  1.00  0.00     0.153 A 
HETATM    8  N   UNL     1      43.744 -15.024   6.071  1.00  0.00    -0.154 NA
HETATM    9  N   UNL     1      43.611 -16.367   6.121  1.00  0.00    -0.275 N 
HETATM   10  C   UNL     1      42.431 -16.770   6.676  1.00  0.00     0.116 A 
HETATM   11  C   UNL     1      41.764 -15.619   7.015  1.00  0.00     0.071 A 
BRANCH   9  12
HETATM   12  C   UNL     1      44.636 -17.225   5.538  1.00  0.00     0.189 C 
BRANCH  12  13
HETATM   13  C   UNL     1      44.120 -17.996   4.348  1.00  0.00    -0.038 A 
HETATM   14  C   UNL     1      44.270 -19.390   4.281  1.00  0.00     0.009 A 
HETATM   15  C   UNL     1      43.769 -20.105   3.193  1.00  0.00     0.001 A 
HETATM   16  C   UNL     1      43.111 -19.437   2.161  1.00  0.00     0.000 A 
HETATM   17  C   UNL     1      42.954 -18.054   2.215  1.00  0.00     0.001 A 
HETATM   18  C   UNL     1      43.453 -17.336   3.304  1.00  0.00     0.009 A 
ENDBRANCH  12  13
ENDBRANCH   9  12
ENDBRANCH   1   7
BRANCH   3  19
HETATM   19  C   UNL     1      45.392 -11.322   6.155  1.00  0.00     0.144 C 
BRANCH  19  20
HETATM   20  C   UNL     1      46.220 -10.928   7.384  1.00  0.00     0.142 C 
BRANCH  20  21
HETATM   21  N   UNL     1      45.394 -10.413   8.464  1.00  0.00    -0.355 N 
HETATM   22  C   UNL     1      45.286  -9.063   8.714  1.00  0.00     0.254 C 
HETATM   23  O   UNL     1      45.897  -8.212   8.072  1.00  0.00    -0.268 OA
HETATM   24  H   UNL     1      44.724 -11.057   8.858  1.00  0.00     0.162 HD
BRANCH  22  25
HETATM   25  C   UNL     1      44.336  -8.630   9.780  1.00  0.00     0.065 A 
HETATM   26  C   UNL     1      43.436  -7.584   9.520  1.00  0.00     0.081 A 
HETATM   27  C   UNL     1      42.518  -7.176  10.487  1.00  0.00     0.037 A 
HETATM   28  C   UNL     1      42.496  -7.797  11.733  1.00  0.00     0.003 A 
HETATM   29  C   UNL     1      43.401  -8.819  12.017  1.00  0.00     0.001 A 
HETATM   30  C   UNL     1      44.321  -9.233  11.048  1.00  0.00     0.020 A 
BRANCH  26  31
HETATM   31  O   UNL     1      43.398  -6.905   8.330  1.00  0.00    -0.360 OA
HETATM   32  H   UNL     1      43.320  -5.947   8.536  1.00  0.00     0.217 HD
ENDBRANCH  26  31
ENDBRANCH  22  25
ENDBRANCH  20  21
ENDBRANCH  19  20
ENDBRANCH   3  19
TORSDOF 8
ENDMDL
MODEL 3
REMARK VINA RESULT:      -9.0      5.039      7.646
REMARK  8 active torsions:
REMARK  status: ('A' for Active; 'I' for Inactive)
REMARK    1  A    between atoms: C_4  and  C_5 
REMARK    2  A    between atoms: C_5  and  N_6 
REMARK    3  A    between atoms: C_8  and  N_9 
REMARK       I    between atoms: N_9  and  C_10 
REMARK       I    between atoms: C_10  and  N_11 
REMARK    4  A    between atoms: N_11  and  C_12 
REMARK    5  A    between atoms: C_12  and  C_13 
REMARK    6  A    between atoms: C_13  and  N_14 
REMARK       I    between atoms: N_14  and  C_15 
REMARK    7  A    between atoms: C_15  and  C_16 
REMARK    8  A    between atoms: C_17  and  O_18 
ROOT
HETATM    1  N   UNL     1      39.810 -14.575   3.823  1.00  0.00    -0.292 N 
HETATM    2  C   UNL     1      39.802 -13.257   3.479  1.00  0.00     0.321 C 
HETATM    3  N   UNL     1      40.844 -12.495   3.907  1.00  0.00    -0.341 N 
HETATM    4  O   UNL     1      38.861 -12.801   2.832  1.00  0.00    -0.247 OA
HETATM    5  H   UNL     1      38.986 -15.078   3.532  1.00  0.00     0.172 HD
HETATM    6  H   UNL     1      41.623 -13.012   4.311  1.00  0.00     0.164 HD
ENDROOT
BRANCH   1   7
HETATM    7  C   UNL     1      40.793 -15.290   4.467  1.00  0.00     0.153 A 
HETATM    8  N   UNL     1      41.992 -15.578   3.948  1.00  0.00    -0.154 NA
HETATM    9  N   UNL     1      42.611 -16.293   4.912  1.00  0.00    -0.275 N 
HETATM   10  C   UNL     1      41.837 -16.481   6.021  1.00  0.00     0.116 A 
HETATM   11  C   UNL     1      40.650 -15.840   5.763  1.00  0.00     0.071 A 
BRANCH   9  12
HETATM   12  C   UNL     1      43.939 -16.846   4.675  1.00  0.00     0.189 C 
BRANCH  12  13
HETATM   13  C   UNL     1      43.881 -18.277   4.200  1.00  0.00    -0.038 A 
HETATM   14  C   UNL     1      43.658 -18.571   2.846  1.00  0.00     0.009 A 
HETATM   15  C   UNL     1      43.632 -19.895   2.404  1.00  0.00     0.001 A 
HETATM   16  C   UNL     1      43.829 -20.937   3.307  1.00  0.00     0.000 A 
HETATM   17  C   UNL     1      44.052 -20.660   4.654  1.00  0.00     0.001 A 
HETATM   18  C   UNL     1      44.081 -19.336   5.099  1.00  0.00     0.009 A 
ENDBRANCH  12  13
ENDBRANCH   9  12
ENDBRANCH   1   7
BRANCH   3  19
HETATM   19  C   UNL     1      41.010 -11.111   3.523  1.00  0.00     0.144 C 
BRANCH  19  20
HETATM   20  C   UNL     1      41.919 -10.929   2.300  1.00  0.00     0.142 C 
BRANCH  20  21
HETATM   21  N   UNL     1      41.290 -11.387   1.073  1.00  0.00    -0.355 N 
HETATM   22  C   UNL     1      41.452 -12.675   0.612  1.00  0.00     0.254 C 
HETATM   23  O   UNL     1      42.155 -13.507   1.182  1.00  0.00    -0.268 OA
HETATM   24  H   UNL     1      40.547 -10.809   0.709  1.00  0.00     0.162 HD
BRANCH  22  25
HETATM   25  C   UNL     1      40.686 -13.077  -0.603  1.00  0.00     0.065 A 
HETATM   26  C   UNL     1      39.821 -14.181  -0.540  1.00  0.00     0.081 A 
HETATM   27  C   UNL     1      39.070 -14.564  -1.652  1.00  0.00     0.037 A 
HETATM   28  C   UNL     1      39.186 -13.858  -2.847  1.00  0.00     0.003 A 
HETATM   29  C   UNL     1      40.060 -12.776  -2.934  1.00  0.00     0.001 A 
HETATM   30  C   UNL     1      40.811 -12.388  -1.820  1.00  0.00     0.020 A 
BRANCH  26  31
HETATM   31  O   UNL     1      39.657 -14.944   0.587  1.00  0.00    -0.360 OA
HETATM   32  H   UNL     1      38.924 -15.577   0.415  1.00  0.00     0.217 HD
ENDBRANCH  26  31
ENDBRANCH  22  25
ENDBRANCH  20  21
ENDBRANCH  19  20
ENDBRANCH   3  19
TORSDOF 8
ENDMDL
MODEL 4
REMARK VINA RESULT:      -9.0      1.662      2.105
REMARK  8 active torsions:
REMARK  status: ('A' for Active; 'I' for Inactive)
REMARK    1  A    between atoms: C_4  and  C_5 
REMARK    2  A    between atoms: C_5  and  N_6 
REMARK    3  A    between atoms: C_8  and  N_9 
REMARK       I    between atoms: N_9  and  C_10 
REMARK       I    between atoms: C_10  and  N_11 
REMARK    4  A    between atoms: N_11  and  C_12 
REMARK    5  A    between atoms: C_12  and  C_13 
REMARK    6  A    between atoms: C_13  and  N_14 
REMARK       I    between atoms: N_14  and  C_15 
REMARK    7  A    between atoms: C_15  and  C_16 
REMARK    8  A    between atoms: C_17  and  O_18 
ROOT
HETATM    1  N   UNL     1      41.603 -13.413   6.273  1.00  0.00    -0.292 N 
HETATM    2  C   UNL     1      42.251 -12.215   6.251  1.00  0.00     0.321 C 
HETATM    3  N   UNL     1      43.606 -12.238   6.357  1.00  0.00    -0.341 N 
HETATM    4  O   UNL     1      41.604 -11.173   6.167  1.00  0.00    -0.247 OA
HETATM    5  H   UNL     1      40.598 -13.334   6.251  1.00  0.00     0.172 HD
HETATM    6  H   UNL     1      44.033 -13.160   6.281  1.00  0.00     0.164 HD
ENDROOT
BRANCH   1   7
HETATM    7  C   UNL     1      42.138 -14.680   6.282  1.00  0.00     0.153 A 
HETATM    8  N   UNL     1      43.276 -15.034   5.672  1.00  0.00    -0.154 NA
HETATM    9  N   UNL     1      43.399 -16.353   5.935  1.00  0.00    -0.275 N 
HETATM   10  C   UNL     1      42.369 -16.851   6.680  1.00  0.00     0.116 A 
HETATM   11  C   UNL     1      41.534 -15.788   6.922  1.00  0.00     0.071 A 
BRANCH   9  12
HETATM   12  C   UNL     1      44.508 -17.111   5.367  1.00  0.00     0.189 C 
BRANCH  12  13
HETATM   13  C   UNL     1      44.044 -18.103   4.330  1.00  0.00    -0.038 A 
HETATM   14  C   UNL     1      43.439 -17.664   3.143  1.00  0.00     0.009 A 
HETATM   15  C   UNL     1      43.034 -18.582   2.172  1.00  0.00     0.001 A 
HETATM   16  C   UNL     1      43.231 -19.946   2.376  1.00  0.00     0.000 A 
HETATM   17  C   UNL     1      43.831 -20.396   3.549  1.00  0.00     0.001 A 
HETATM   18  C   UNL     1      44.239 -19.480   4.521  1.00  0.00     0.009 A 
ENDBRANCH  12  13
ENDBRANCH   9  12
ENDBRANCH   1   7
BRANCH   3  19
HETATM   19  C   UNL     1      44.420 -11.048   6.242  1.00  0.00     0.144 C 
BRANCH  19  20
HETATM   20  C   UNL     1      45.208 -10.730   7.520  1.00  0.00     0.142 C 
BRANCH  20  21
HETATM   21  N   UNL     1      44.351 -10.248   8.590  1.00  0.00    -0.355 N 
HETATM   22  C   UNL     1      44.730 -10.325   9.912  1.00  0.00     0.254 C 
HETATM   23  O   UNL     1      45.790 -10.828  10.277  1.00  0.00    -0.268 OA
HETATM   24  H   UNL     1      43.591  -9.643   8.315  1.00  0.00     0.162 HD
BRANCH  22  25
HETATM   25  C   UNL     1      43.825  -9.713  10.928  1.00  0.00     0.065 A 
HETATM   26  C   UNL     1      43.324 -10.505  11.973  1.00  0.00     0.081 A 
HETATM   27  C   UNL     1      42.498  -9.955  12.953  1.00  0.00     0.037 A 
HETATM   28  C   UNL     1      42.148  -8.609  12.894  1.00  0.00     0.003 A 
HETATM   29  C   UNL     1      42.615  -7.814  11.848  1.00  0.00     0.001 A 
HETATM   30  C   UNL     1      43.446  -8.362  10.865  1.00  0.00     0.020 A 
BRANCH  26  31
HETATM   31  O   UNL     1      43.601 -11.842  12.102  1.00  0.00    -0.360 OA
HETATM   32  H   UNL     1      42.826 -12.267  12.533  1.00  0.00     0.217 HD
ENDBRANCH  26  31
ENDBRANCH  22  25
ENDBRANCH  20  21
ENDBRANCH  19  20
ENDBRANCH   3  19
TORSDOF 8
ENDMDL
MODEL 5
REMARK VINA RESULT:      -8.8      4.159      8.484
REMARK  8 active torsions:
REMARK  status: ('A' for Active; 'I' for Inactive)
REMARK    1  A    between atoms: C_4  and  C_5 
REMARK    2  A    between atoms: C_5  and  N_6 
REMARK    3  A    between atoms: C_8  and  N_9 
REMARK       I    between atoms: N_9  and  C_10 
REMARK       I    between atoms: C_10  and  N_11 
REMARK    4  A    between atoms: N_11  and  C_12 
REMARK    5  A    between atoms: C_12  and  C_13 
REMARK    6  A    between atoms: C_13  and  N_14 
REMARK       I    between atoms: N_14  and  C_15 
REMARK    7  A    between atoms: C_15  and  C_16 
REMARK    8  A    between atoms: C_17  and  O_18 
ROOT
HETATM    1  N   UNL     1      39.903 -14.225   4.385  1.00  0.00    -0.292 N 
HETATM    2  C   UNL     1      40.819 -14.126   5.387  1.00  0.00     0.321 C 
HETATM    3  N   UNL     1      42.122 -14.344   5.064  1.00  0.00    -0.341 N 
HETATM    4  O   UNL     1      40.447 -13.875   6.532  1.00  0.00    -0.247 OA
HETATM    5  H   UNL     1      38.948 -14.113   4.691  1.00  0.00     0.172 HD
HETATM    6  H   UNL     1      42.319 -14.404   4.066  1.00  0.00     0.164 HD
ENDROOT
BRANCH   1   7
HETATM    7  C   UNL     1      40.116 -14.417   3.039  1.00  0.00     0.153 A 
HETATM    8  N   UNL     1      40.426 -13.448   2.169  1.00  0.00    -0.154 NA
HETATM    9  N   UNL     1      40.529 -14.085   0.983  1.00  0.00    -0.275 N 
HETATM   10  C   UNL     1      40.280 -15.424   1.069  1.00  0.00     0.116 A 
HETATM   11  C   UNL     1      40.010 -15.671   2.393  1.00  0.00     0.071 A 
BRANCH   9  12
HETATM   12  C   UNL     1      40.795 -13.326  -0.234  1.00  0.00     0.189 C 
BRANCH  12  13
HETATM   13  C   UNL     1      39.664 -13.430  -1.226  1.00  0.00    -0.038 A 
HETATM   14  C   UNL     1      39.736 -14.333  -2.298  1.00  0.00     0.009 A 
HETATM   15  C   UNL     1      38.677 -14.447  -3.200  1.00  0.00     0.001 A 
HETATM   16  C   UNL     1      37.536 -13.663  -3.041  1.00  0.00     0.000 A 
HETATM   17  C   UNL     1      37.451 -12.764  -1.981  1.00  0.00     0.001 A 
HETATM   18  C   UNL     1      38.508 -12.649  -1.076  1.00  0.00     0.009 A 
ENDBRANCH  12  13
ENDBRANCH   9  12
ENDBRANCH   1   7
BRANCH   3  19
HETATM   19  C   UNL     1      43.203 -14.166   6.008  1.00  0.00     0.144 C 
BRANCH  19  20
HETATM   20  C   UNL     1      43.869 -15.486   6.418  1.00  0.00     0.142 C 
BRANCH  20  21
HETATM   21  N   UNL     1      43.910 -16.445   5.327  1.00  0.00    -0.355 N 
HETATM   22  C   UNL     1      43.659 -17.784   5.530  1.00  0.00     0.254 C 
HETATM   23  O   UNL     1      43.418 -18.261   6.637  1.00  0.00    -0.268 OA
HETATM   24  H   UNL     1      43.886 -16.061   4.394  1.00  0.00     0.162 HD
BRANCH  22  25
HETATM   25  C   UNL     1      43.626 -18.672   4.331  1.00  0.00     0.065 A 
HETATM   26  C   UNL     1      44.008 -20.017   4.457  1.00  0.00     0.081 A 
HETATM   27  C   UNL     1      43.961 -20.878   3.360  1.00  0.00     0.037 A 
HETATM   28  C   UNL     1      43.548 -20.402   2.119  1.00  0.00     0.003 A 
HETATM   29  C   UNL     1      43.191 -19.063   1.970  1.00  0.00     0.001 A 
HETATM   30  C   UNL     1      43.233 -18.198   3.069  1.00  0.00     0.020 A 
BRANCH  26  31
HETATM   31  O   UNL     1      44.445 -20.567   5.634  1.00  0.00    -0.360 OA
HETATM   32  H   UNL     1      44.006 -21.441   5.735  1.00  0.00     0.217 HD
ENDBRANCH  26  31
ENDBRANCH  22  25
ENDBRANCH  20  21
ENDBRANCH  19  20
ENDBRANCH   3  19
TORSDOF 8
ENDMDL
MODEL 6
REMARK VINA RESULT:      -8.6      2.106      2.784
REMARK  8 active torsions:
REMARK  status: ('A' for Active; 'I' for Inactive)
REMARK    1  A    between atoms: C_4  and  C_5 
REMARK    2  A    between atoms: C_5  and  N_6 
REMARK    3  A    between atoms: C_8  and  N_9 
REMARK       I    between atoms: N_9  and  C_10 
REMARK       I    between atoms: C_10  and  N_11 
REMARK    4  A    between atoms: N_11  and  C_12 
REMARK    5  A    between atoms: C_12  and  C_13 
REMARK    6  A    between atoms: C_13  and  N_14 
REMARK       I    between atoms: N_14  and  C_15 
REMARK    7  A    between atoms: C_15  and  C_16 
REMARK    8  A    between atoms: C_17  and  O_18 
ROOT
HETATM    1  N   UNL     1      40.051 -14.423   5.098  1.00  0.00    -0.292 N 
HETATM    2  C   UNL     1      39.842 -13.079   5.161  1.00  0.00     0.321 C 
HETATM    3  N   UNL     1      40.413 -12.313   4.195  1.00  0.00    -0.341 N 
HETATM    4  O   UNL     1      39.181 -12.607   6.085  1.00  0.00    -0.247 OA
HETATM    5  H   UNL     1      39.655 -14.935   5.871  1.00  0.00     0.172 HD
HETATM    6  H   UNL     1      40.816 -12.828   3.413  1.00  0.00     0.164 HD
ENDROOT
BRANCH   1   7
HETATM    7  C   UNL     1      40.686 -15.150   4.117  1.00  0.00     0.153 A 
HETATM    8  N   UNL     1      41.961 -15.552   4.169  1.00  0.00    -0.154 NA
HETATM    9  N   UNL     1      42.151 -16.211   3.006  1.00  0.00    -0.275 N 
HETATM   10  C   UNL     1      41.041 -16.228   2.211  1.00  0.00     0.116 A 
HETATM   11  C   UNL     1      40.072 -15.548   2.907  1.00  0.00     0.071 A 
BRANCH   9  12
HETATM   12  C   UNL     1      43.467 -16.744   2.674  1.00  0.00     0.189 C 
BRANCH  12  13
HETATM   13  C   UNL     1      43.604 -18.196   3.058  1.00  0.00    -0.038 A 
HETATM   14  C   UNL     1      43.325 -19.210   2.129  1.00  0.00     0.009 A 
HETATM   15  C   UNL     1      43.478 -20.553   2.478  1.00  0.00     0.001 A 
HETATM   16  C   UNL     1      43.913 -20.897   3.756  1.00  0.00     0.000 A 
HETATM   17  C   UNL     1      44.194 -19.901   4.688  1.00  0.00     0.001 A 
HETATM   18  C   UNL     1      44.044 -18.557   4.342  1.00  0.00     0.009 A 
ENDBRANCH  12  13
ENDBRANCH   9  12
ENDBRANCH   1   7
BRANCH   3  19
HETATM   19  C   UNL     1      40.183 -10.890   4.085  1.00  0.00     0.144 C 
BRANCH  19  20
HETATM   20  C   UNL     1      41.476 -10.080   3.920  1.00  0.00     0.142 C 
BRANCH  20  21
HETATM   21  N   UNL     1      42.252 -10.024   5.147  1.00  0.00    -0.355 N 
HETATM   22  C   UNL     1      43.229 -10.952   5.430  1.00  0.00     0.254 C 
HETATM   23  O   UNL     1      43.488 -11.899   4.691  1.00  0.00    -0.268 OA
HETATM   24  H   UNL     1      42.217  -9.153   5.658  1.00  0.00     0.162 HD
BRANCH  22  25
HETATM   25  C   UNL     1      44.038 -10.751   6.668  1.00  0.00     0.065 A 
HETATM   26  C   UNL     1      45.437 -10.843   6.601  1.00  0.00     0.081 A 
HETATM   27  C   UNL     1      46.221 -10.632   7.735  1.00  0.00     0.037 A 
HETATM   28  C   UNL     1      45.617 -10.341   8.956  1.00  0.00     0.003 A 
HETATM   29  C   UNL     1      44.227 -10.272   9.045  1.00  0.00     0.001 A 
HETATM   30  C   UNL     1      43.438 -10.480   7.909  1.00  0.00     0.020 A 
BRANCH  26  31
HETATM   31  O   UNL     1      46.116 -11.141   5.449  1.00  0.00    -0.360 OA
HETATM   32  H   UNL     1      45.464 -11.147   4.712  1.00  0.00     0.217 HD
ENDBRANCH  26  31
ENDBRANCH  22  25
ENDBRANCH  20  21
ENDBRANCH  19  20
ENDBRANCH   3  19
TORSDOF 8
ENDMDL
MODEL 7
REMARK VINA RESULT:      -8.5      4.723      7.764
REMARK  8 active torsions:
REMARK  status: ('A' for Active; 'I' for Inactive)
REMARK    1  A    between atoms: C_4  and  C_5 
REMARK    2  A    between atoms: C_5  and  N_6 
REMARK    3  A    between atoms: C_8  and  N_9 
REMARK       I    between atoms: N_9  and  C_10 
REMARK       I    between atoms: C_10  and  N_11 
REMARK    4  A    between atoms: N_11  and  C_12 
REMARK    5  A    between atoms: C_12  and  C_13 
REMARK    6  A    between atoms: C_13  and  N_14 
REMARK       I    between atoms: N_14  and  C_15 
REMARK    7  A    between atoms: C_15  and  C_16 
REMARK    8  A    between atoms: C_17  and  O_18 
ROOT
HETATM    1  N   UNL     1      40.060 -13.905   4.350  1.00  0.00    -0.292 N 
HETATM    2  C   UNL     1      40.168 -12.548   4.309  1.00  0.00     0.321 C 
HETATM    3  N   UNL     1      41.028 -12.019   3.398  1.00  0.00    -0.341 N 
HETATM    4  O   UNL     1      39.522 -11.860   5.098  1.00  0.00    -0.247 OA
HETATM    5  H   UNL     1      39.455 -14.245   5.083  1.00  0.00     0.172 HD
HETATM    6  H   UNL     1      41.397 -12.678   2.714  1.00  0.00     0.164 HD
ENDROOT
BRANCH   1   7
HETATM    7  C   UNL     1      40.629 -14.839   3.516  1.00  0.00     0.153 A 
HETATM    8  N   UNL     1      41.921 -15.187   3.526  1.00  0.00    -0.154 NA
HETATM    9  N   UNL     1      42.026 -16.111   2.547  1.00  0.00    -0.275 N 
HETATM   10  C   UNL     1      40.845 -16.351   1.906  1.00  0.00     0.116 A 
HETATM   11  C   UNL     1      39.917 -15.540   2.514  1.00  0.00     0.071 A 
BRANCH   9  12
HETATM   12  C   UNL     1      43.327 -16.681   2.215  1.00  0.00     0.189 C 
BRANCH  12  13
HETATM   13  C   UNL     1      43.526 -18.040   2.838  1.00  0.00    -0.038 A 
HETATM   14  C   UNL     1      43.266 -19.207   2.104  1.00  0.00     0.009 A 
HETATM   15  C   UNL     1      43.476 -20.464   2.673  1.00  0.00     0.001 A 
HETATM   16  C   UNL     1      43.951 -20.569   3.979  1.00  0.00     0.000 A 
HETATM   17  C   UNL     1      44.214 -19.419   4.719  1.00  0.00     0.001 A 
HETATM   18  C   UNL     1      44.007 -18.160   4.152  1.00  0.00     0.009 A 
ENDBRANCH  12  13
ENDBRANCH   9  12
ENDBRANCH   1   7
BRANCH   3  19
HETATM   19  C   UNL     1      41.157 -10.595   3.180  1.00  0.00     0.144 C 
BRANCH  19  20
HETATM   20  C   UNL     1      40.165 -10.051   2.143  1.00  0.00     0.142 C 
BRANCH  20  21
HETATM   21  N   UNL     1      40.078 -10.898   0.965  1.00  0.00    -0.355 N 
HETATM   22  C   UNL     1      39.048 -11.796   0.792  1.00  0.00     0.254 C 
HETATM   23  O   UNL     1      38.160 -11.965   1.624  1.00  0.00    -0.268 OA
HETATM   24  H   UNL     1      40.656 -10.632   0.181  1.00  0.00     0.162 HD
BRANCH  22  25
HETATM   25  C   UNL     1      38.994 -12.547  -0.496  1.00  0.00     0.065 A 
HETATM   26  C   UNL     1      40.073 -13.369  -0.862  1.00  0.00     0.081 A 
HETATM   27  C   UNL     1      40.040 -14.105  -2.046  1.00  0.00     0.037 A 
HETATM   28  C   UNL     1      38.935 -14.018  -2.889  1.00  0.00     0.003 A 
HETATM   29  C   UNL     1      37.868 -13.186  -2.554  1.00  0.00     0.001 A 
HETATM   30  C   UNL     1      37.897 -12.449  -1.366  1.00  0.00     0.020 A 
BRANCH  26  31
HETATM   31  O   UNL     1      41.207 -13.502  -0.103  1.00  0.00    -0.360 OA
HETATM   32  H   UNL     1      41.376 -12.638   0.335  1.00  0.00     0.217 HD
ENDBRANCH  26  31
ENDBRANCH  22  25
ENDBRANCH  20  21
ENDBRANCH  19  20
ENDBRANCH   3  19
TORSDOF 8
ENDMDL
MODEL 8
REMARK VINA RESULT:      -8.4      2.407     10.673
REMARK  8 active torsions:
REMARK  status: ('A' for Active; 'I' for Inactive)
REMARK    1  A    between atoms: C_4  and  C_5 
REMARK    2  A    between atoms: C_5  and  N_6 
REMARK    3  A    between atoms: C_8  and  N_9 
REMARK       I    between atoms: N_9  and  C_10 
REMARK       I    between atoms: C_10  and  N_11 
REMARK    4  A    between atoms: N_11  and  C_12 
REMARK    5  A    between atoms: C_12  and  C_13 
REMARK    6  A    between atoms: C_13  and  N_14 
REMARK       I    between atoms: N_14  and  C_15 
REMARK    7  A    between atoms: C_15  and  C_16 
REMARK    8  A    between atoms: C_17  and  O_18 
ROOT
HETATM    1  N   UNL     1      42.687  -9.615   7.314  1.00  0.00    -0.292 N 
HETATM    2  C   UNL     1      43.050 -10.712   6.593  1.00  0.00     0.321 C 
HETATM    3  N   UNL     1      43.190 -11.884   7.267  1.00  0.00    -0.341 N 
HETATM    4  O   UNL     1      43.261 -10.605   5.386  1.00  0.00    -0.247 OA
HETATM    5  H   UNL     1      42.656  -8.763   6.775  1.00  0.00     0.172 HD
HETATM    6  H   UNL     1      42.854 -11.874   8.229  1.00  0.00     0.164 HD
ENDROOT
BRANCH   1   7
HETATM    7  C   UNL     1      42.333  -9.537   8.641  1.00  0.00     0.153 A 
HETATM    8  N   UNL     1      43.076  -9.988   9.658  1.00  0.00    -0.154 NA
HETATM    9  N   UNL     1      42.340  -9.714  10.757  1.00  0.00    -0.275 N 
HETATM   10  C   UNL     1      41.147  -9.118  10.469  1.00  0.00     0.116 A 
HETATM   11  C   UNL     1      41.114  -8.987   9.102  1.00  0.00     0.071 A 
BRANCH   9  12
HETATM   12  C   UNL     1      42.810 -10.129  12.074  1.00  0.00     0.189 C 
BRANCH  12  13
HETATM   13  C   UNL     1      42.611  -9.053  13.112  1.00  0.00    -0.038 A 
HETATM   14  C   UNL     1      41.635  -9.196  14.110  1.00  0.00     0.009 A 
HETATM   15  C   UNL     1      41.470  -8.211  15.085  1.00  0.00     0.001 A 
HETATM   16  C   UNL     1      42.279  -7.076  15.077  1.00  0.00     0.000 A 
HETATM   17  C   UNL     1      43.252  -6.923  14.093  1.00  0.00     0.001 A 
HETATM   18  C   UNL     1      43.421  -7.907  13.117  1.00  0.00     0.009 A 
ENDBRANCH  12  13
ENDBRANCH   9  12
ENDBRANCH   1   7
BRANCH   3  19
HETATM   19  C   UNL     1      43.466 -13.139   6.606  1.00  0.00     0.144 C 
BRANCH  19  20
HETATM   20  C   UNL     1      42.202 -13.843   6.094  1.00  0.00     0.142 C 
BRANCH  20  21
HETATM   21  N   UNL     1      42.486 -15.162   5.554  1.00  0.00    -0.355 N 
HETATM   22  C   UNL     1      42.818 -15.346   4.230  1.00  0.00     0.254 C 
HETATM   23  O   UNL     1      42.867 -14.426   3.417  1.00  0.00    -0.268 OA
HETATM   24  H   UNL     1      42.666 -15.891   6.228  1.00  0.00     0.162 HD
BRANCH  22  25
HETATM   25  C   UNL     1      43.188 -16.725   3.795  1.00  0.00     0.065 A 
HETATM   26  C   UNL     1      44.090 -17.474   4.568  1.00  0.00     0.081 A 
HETATM   27  C   UNL     1      44.434 -18.775   4.203  1.00  0.00     0.037 A 
HETATM   28  C   UNL     1      43.893 -19.341   3.051  1.00  0.00     0.003 A 
HETATM   29  C   UNL     1      43.017 -18.601   2.257  1.00  0.00     0.001 A 
HETATM   30  C   UNL     1      42.668 -17.297   2.623  1.00  0.00     0.020 A 
BRANCH  26  31
HETATM   31  O   UNL     1      44.684 -16.993   5.706  1.00  0.00    -0.360 OA
HETATM   32  H   UNL     1      45.639 -16.863   5.512  1.00  0.00     0.217 HD
ENDBRANCH  26  31
ENDBRANCH  22  25
ENDBRANCH  20  21
ENDBRANCH  19  20
ENDBRANCH   3  19
TORSDOF 8
ENDMDL
MODEL 9
REMARK VINA RESULT:      -8.3      4.162      5.261
REMARK  8 active torsions:
REMARK  status: ('A' for Active; 'I' for Inactive)
REMARK    1  A    between atoms: C_4  and  C_5 
REMARK    2  A    between atoms: C_5  and  N_6 
REMARK    3  A    between atoms: C_8  and  N_9 
REMARK       I    between atoms: N_9  and  C_10 
REMARK       I    between atoms: C_10  and  N_11 
REMARK    4  A    between atoms: N_11  and  C_12 
REMARK    5  A    between atoms: C_12  and  C_13 
REMARK    6  A    between atoms: C_13  and  N_14 
REMARK       I    between atoms: N_14  and  C_15 
REMARK    7  A    between atoms: C_15  and  C_16 
REMARK    8  A    between atoms: C_17  and  O_18 
ROOT
HETATM    1  N   UNL     1      39.770 -14.684   0.253  1.00  0.00    -0.292 N 
HETATM    2  C   UNL     1      39.886 -13.432  -0.269  1.00  0.00     0.321 C 
HETATM    3  N   UNL     1      40.629 -12.532   0.427  1.00  0.00    -0.341 N 
HETATM    4  O   UNL     1      39.305 -13.152  -1.317  1.00  0.00    -0.247 OA
HETATM    5  H   UNL     1      39.160 -15.291  -0.273  1.00  0.00     0.172 HD
HETATM    6  H   UNL     1      41.170 -12.919   1.200  1.00  0.00     0.164 HD
ENDROOT
BRANCH   1   7
HETATM    7  C   UNL     1      40.394 -15.217   1.357  1.00  0.00     0.153 A 
HETATM    8  N   UNL     1      41.715 -15.190   1.575  1.00  0.00    -0.154 NA
HETATM    9  N   UNL     1      41.871 -15.829   2.754  1.00  0.00    -0.275 N 
HETATM   10  C   UNL     1      40.695 -16.275   3.284  1.00  0.00     0.116 A 
HETATM   11  C   UNL     1      39.716 -15.890   2.400  1.00  0.00     0.071 A 
BRANCH   9  12
HETATM   12  C   UNL     1      43.208 -16.055   3.292  1.00  0.00     0.189 C 
BRANCH  12  13
HETATM   13  C   UNL     1      43.499 -17.522   3.491  1.00  0.00    -0.038 A 
HETATM   14  C   UNL     1      43.811 -18.021   4.764  1.00  0.00     0.009 A 
HETATM   15  C   UNL     1      44.054 -19.383   4.951  1.00  0.00     0.001 A 
HETATM   16  C   UNL     1      43.985 -20.260   3.871  1.00  0.00     0.000 A 
HETATM   17  C   UNL     1      43.675 -19.779   2.601  1.00  0.00     0.001 A 
HETATM   18  C   UNL     1      43.429 -18.417   2.411  1.00  0.00     0.009 A 
ENDBRANCH  12  13
ENDBRANCH   9  12
ENDBRANCH   1   7
BRANCH   3  19
HETATM   19  C   UNL     1      40.919 -11.205  -0.068  1.00  0.00     0.144 C 
BRANCH  19  20
HETATM   20  C   UNL     1      41.554 -10.291   0.989  1.00  0.00     0.142 C 
BRANCH  20  21
HETATM   21  N   UNL     1      42.016 -11.031   2.151  1.00  0.00    -0.355 N 
HETATM   22  C   UNL     1      41.186 -11.302   3.216  1.00  0.00     0.254 C 
HETATM   23  O   UNL     1      40.021 -10.915   3.272  1.00  0.00    -0.268 OA
HETATM   24  H   UNL     1      42.881 -11.541   2.041  1.00  0.00     0.162 HD
BRANCH  22  25
HETATM   25  C   UNL     1      41.725 -12.153   4.316  1.00  0.00     0.065 A 
HETATM   26  C   UNL     1      40.875 -13.062   4.966  1.00  0.00     0.081 A 
HETATM   27  C   UNL     1      41.357 -13.891   5.979  1.00  0.00     0.037 A 
HETATM   28  C   UNL     1      42.692 -13.811   6.368  1.00  0.00     0.003 A 
HETATM   29  C   UNL     1      43.543 -12.895   5.751  1.00  0.00     0.001 A 
HETATM   30  C   UNL     1      43.063 -12.065   4.733  1.00  0.00     0.020 A 
BRANCH  26  31
HETATM   31  O   UNL     1      39.546 -13.197   4.662  1.00  0.00    -0.360 OA
HETATM   32  H   UNL     1      39.467 -13.891   3.969  1.00  0.00     0.217 HD
ENDBRANCH  26  31
ENDBRANCH  22  25
ENDBRANCH  20  21
ENDBRANCH  19  20
ENDBRANCH   3  19
TORSDOF 8
ENDMDL
MODEL 10
REMARK VINA RESULT:      -8.3      4.839      8.637
REMARK  8 active torsions:
REMARK  status: ('A' for Active; 'I' for Inactive)
REMARK    1  A    between atoms: C_4  and  C_5 
REMARK    2  A    between atoms: C_5  and  N_6 
REMARK    3  A    between atoms: C_8  and  N_9 
REMARK       I    between atoms: N_9  and  C_10 
REMARK       I    between atoms: C_10  and  N_11 
REMARK    4  A    between atoms: N_11  and  C_12 
REMARK    5  A    between atoms: C_12  and  C_13 
REMARK    6  A    between atoms: C_13  and  N_14 
REMARK       I    between atoms: N_14  and  C_15 
REMARK    7  A    between atoms: C_15  and  C_16 
REMARK    8  A    between atoms: C_17  and  O_18 
ROOT
HETATM    1  N   UNL     1      41.111 -14.070   5.244  1.00  0.00    -0.292 N 
HETATM    2  C   UNL     1      40.368 -13.965   4.109  1.00  0.00     0.321 C 
HETATM    3  N   UNL     1      40.499 -14.952   3.184  1.00  0.00    -0.341 N 
HETATM    4  O   UNL     1      39.638 -12.988   3.945  1.00  0.00    -0.247 OA
HETATM    5  H   UNL     1      41.020 -13.282   5.867  1.00  0.00     0.172 HD
HETATM    6  H   UNL     1      41.022 -15.771   3.493  1.00  0.00     0.164 HD
ENDROOT
BRANCH   1   7
HETATM    7  C   UNL     1      41.919 -15.107   5.651  1.00  0.00     0.153 A 
HETATM    8  N   UNL     1      43.020 -15.515   5.009  1.00  0.00    -0.154 NA
HETATM    9  N   UNL     1      43.475 -16.548   5.750  1.00  0.00    -0.275 N 
HETATM   10  C   UNL     1      42.690 -16.818   6.834  1.00  0.00     0.116 A 
HETATM   11  C   UNL     1      41.672 -15.897   6.798  1.00  0.00     0.071 A 
BRANCH   9  12
HETATM   12  C   UNL     1      44.646 -17.300   5.315  1.00  0.00     0.189 C 
BRANCH  12  13
HETATM   13  C   UNL     1      44.274 -18.472   4.442  1.00  0.00    -0.038 A 
HETATM   14  C   UNL     1      44.284 -19.778   4.956  1.00  0.00     0.009 A 
HETATM   15  C   UNL     1      43.914 -20.858   4.154  1.00  0.00     0.001 A 
HETATM   16  C   UNL     1      43.528 -20.648   2.832  1.00  0.00     0.000 A 
HETATM   17  C   UNL     1      43.513 -19.357   2.308  1.00  0.00     0.001 A 
HETATM   18  C   UNL     1      43.881 -18.274   3.109  1.00  0.00     0.009 A 
ENDBRANCH  12  13
ENDBRANCH   9  12
ENDBRANCH   1   7
BRANCH   3  19
HETATM   19  C   UNL     1      39.691 -15.016   1.986  1.00  0.00     0.144 C 
BRANCH  19  20
HETATM   20  C   UNL     1      40.523 -15.054   0.698  1.00  0.00     0.142 C 
BRANCH  20  21
HETATM   21  N   UNL     1      40.314 -13.877  -0.129  1.00  0.00    -0.355 N 
HETATM   22  C   UNL     1      39.545 -13.921  -1.270  1.00  0.00     0.254 C 
HETATM   23  O   UNL     1      39.015 -14.950  -1.682  1.00  0.00    -0.268 OA
HETATM   24  H   UNL     1      40.548 -12.990   0.292  1.00  0.00     0.162 HD
BRANCH  22  25
HETATM   25  C   UNL     1      39.310 -12.638  -1.995  1.00  0.00     0.065 A 
HETATM   26  C   UNL     1      40.405 -11.925  -2.511  1.00  0.00     0.081 A 
HETATM   27  C   UNL     1      40.214 -10.738  -3.217  1.00  0.00     0.037 A 
HETATM   28  C   UNL     1      38.928 -10.238  -3.404  1.00  0.00     0.003 A 
HETATM   29  C   UNL     1      37.833 -10.918  -2.876  1.00  0.00     0.001 A 
HETATM   30  C   UNL     1      38.020 -12.111  -2.170  1.00  0.00     0.020 A 
BRANCH  26  31
HETATM   31  O   UNL     1      41.705 -12.333  -2.360  1.00  0.00    -0.360 OA
HETATM   32  H   UNL     1      42.186 -12.105  -3.187  1.00  0.00     0.217 HD
ENDBRANCH  26  31
ENDBRANCH  22  25
ENDBRANCH  20  21
ENDBRANCH  19  20
ENDBRANCH   3  19
TORSDOF 8
ENDMDL
