MODEL 1
REMARK VINA RESULT:      -8.2      0.000      0.000
REMARK  3 active torsions:
REMARK  status: ('A' for Active; 'I' for Inactive)
REMARK    1  A    between atoms: C_9  and  N_10 
REMARK    2  A    between atoms: N_13  and  C_14 
REMARK    3  A    between atoms: C_14  and  C_15 
ROOT
HETATM    1  C   UNL     1      43.253 -17.780   3.548  1.00  0.00    -0.006 A 
HETATM    2  C   UNL     1      43.751 -18.383   4.726  1.00  0.00     0.052 A 
HETATM    3  C   UNL     1      43.887 -17.642   5.952  1.00  0.00     0.100 C 
HETATM    4  N   UNL     1      44.014 -17.048   6.941  1.00  0.00    -0.191 NA
HETATM    5  C   UNL     1      44.126 -19.737   4.716  1.00  0.00     0.026 A 
HETATM    6  C   UNL     1      44.015 -20.491   3.547  1.00  0.00     0.044 A 
HETATM    7  C   UNL     1      43.537 -19.892   2.390  1.00  0.00     0.117 A 
HETATM    8  F   UNL     1      43.427 -20.614   1.268  1.00  0.00    -0.206 F 
HETATM    9  C   UNL     1      43.160 -18.553   2.378  1.00  0.00     0.052 A 
ENDROOT
BRANCH   1  10
HETATM   10  C   UNL     1      42.796 -16.332   3.522  1.00  0.00     0.312 C 
BRANCH  10  11
HETATM   11  N   UNL     1      42.568 -15.863   2.149  1.00  0.00     0.096 N 
HETATM   12  C   UNL     1      41.134 -15.835   1.808  1.00  0.00     0.303 C 
HETATM   13  C   UNL     1      40.389 -14.564   2.280  1.00  0.00     0.303 C 
HETATM   14  N   UNL     1      40.983 -13.288   1.791  1.00  0.00     0.096 N 
HETATM   15  C   UNL     1      42.393 -13.319   2.292  1.00  0.00     0.303 C 
HETATM   16  C   UNL     1      43.210 -14.567   1.865  1.00  0.00     0.303 C 
BRANCH  14  17
HETATM   17  C   UNL     1      40.911 -13.095   0.314  1.00  0.00     0.227 C 
HETATM   18  C   UNL     1      39.526 -13.393  -0.328  1.00  0.00     0.069 C 
HETATM   19  C   UNL     1      38.531 -12.226  -0.292  1.00  0.00     0.190 C 
HETATM   20  N   UNL     1      39.125 -11.047  -1.031  1.00  0.00    -0.066 N 
HETATM   21  C   UNL     1      38.338 -11.622   1.102  1.00  0.00     0.035 C 
HETATM   22  C   UNL     1      39.461 -11.203  -2.479  1.00  0.00     0.270 C 
HETATM   23  H   UNL     1      38.412 -10.303  -1.014  1.00  0.00     0.280 HD
HETATM   24  C   UNL     1      40.217 -10.616  -0.079  1.00  0.00     0.190 C 
HETATM   25  C   UNL     1      39.445 -10.567   1.242  1.00  0.00     0.035 C 
HETATM   26  C   UNL     1      41.344 -11.657  -0.095  1.00  0.00     0.069 C 
ENDBRANCH  14  17
ENDBRANCH  10  11
ENDBRANCH   1  10
TORSDOF 3
ENDMDL
MODEL 2
REMARK VINA RESULT:      -8.1      1.510      2.047
REMARK  3 active torsions:
REMARK  status: ('A' for Active; 'I' for Inactive)
REMARK    1  A    between atoms: C_9  and  N_10 
REMARK    2  A    between atoms: N_13  and  C_14 
REMARK    3  A    between atoms: C_14  and  C_15 
ROOT
HETATM    1  C   UNL     1      42.501 -16.722   3.512  1.00  0.00    -0.006 A 
HETATM    2  C   UNL     1      43.360 -16.620   4.630  1.00  0.00     0.052 A 
HETATM    3  C   UNL     1      43.278 -15.511   5.543  1.00  0.00     0.100 C 
HETATM    4  N   UNL     1      43.228 -14.611   6.276  1.00  0.00    -0.191 NA
HETATM    5  C   UNL     1      44.321 -17.615   4.870  1.00  0.00     0.026 A 
HETATM    6  C   UNL     1      44.439 -18.705   4.007  1.00  0.00     0.044 A 
HETATM    7  C   UNL     1      43.602 -18.796   2.903  1.00  0.00     0.117 A 
HETATM    8  F   UNL     1      43.711 -19.842   2.076  1.00  0.00    -0.206 F 
HETATM    9  C   UNL     1      42.643 -17.821   2.647  1.00  0.00     0.052 A 
ENDROOT
BRANCH   1  10
HETATM   10  C   UNL     1      41.420 -15.693   3.235  1.00  0.00     0.312 C 
BRANCH  10  11
HETATM   11  N   UNL     1      41.855 -14.708   2.237  1.00  0.00     0.096 N 
HETATM   12  C   UNL     1      41.628 -15.182   0.860  1.00  0.00     0.303 C 
HETATM   13  C   UNL     1      40.190 -14.958   0.335  1.00  0.00     0.303 C 
HETATM   14  N   UNL     1      39.729 -13.543   0.395  1.00  0.00     0.096 N 
HETATM   15  C   UNL     1      39.853 -13.173   1.840  1.00  0.00     0.303 C 
HETATM   16  C   UNL     1      41.268 -13.373   2.446  1.00  0.00     0.303 C 
BRANCH  14  17
HETATM   17  C   UNL     1      40.477 -12.608  -0.495  1.00  0.00     0.227 C 
HETATM   18  C   UNL     1      40.574 -13.045  -1.985  1.00  0.00     0.069 C 
HETATM   19  C   UNL     1      39.374 -12.653  -2.854  1.00  0.00     0.190 C 
HETATM   20  N   UNL     1      39.220 -11.148  -2.837  1.00  0.00    -0.066 N 
HETATM   21  C   UNL     1      38.024 -13.085  -2.275  1.00  0.00     0.035 C 
HETATM   22  C   UNL     1      40.342 -10.306  -3.353  1.00  0.00     0.270 C 
HETATM   23  H   UNL     1      38.430 -10.928  -3.460  1.00  0.00     0.280 HD
HETATM   24  C   UNL     1      38.731 -10.913  -1.426  1.00  0.00     0.190 C 
HETATM   25  C   UNL     1      37.603 -11.945  -1.336  1.00  0.00     0.035 C 
HETATM   26  C   UNL     1      39.880 -11.171  -0.442  1.00  0.00     0.069 C 
ENDBRANCH  14  17
ENDBRANCH  10  11
ENDBRANCH   1  10
TORSDOF 3
ENDMDL
MODEL 3
REMARK VINA RESULT:      -7.8      1.932      2.660
REMARK  3 active torsions:
REMARK  status: ('A' for Active; 'I' for Inactive)
REMARK    1  A    between atoms: C_9  and  N_10 
REMARK    2  A    between atoms: N_13  and  C_14 
REMARK    3  A    between atoms: C_14  and  C_15 
ROOT
HETATM    1  C   UNL     1      41.812 -16.422   4.085  1.00  0.00    -0.006 A 
HETATM    2  C   UNL     1      41.733 -16.355   5.495  1.00  0.00     0.052 A 
HETATM    3  C   UNL     1      40.701 -15.602   6.157  1.00  0.00     0.100 C 
HETATM    4  N   UNL     1      39.881 -14.984   6.698  1.00  0.00    -0.191 NA
HETATM    5  C   UNL     1      42.677 -17.034   6.283  1.00  0.00     0.026 A 
HETATM    6  C   UNL     1      43.698 -17.773   5.683  1.00  0.00     0.044 A 
HETATM    7  C   UNL     1      43.778 -17.826   4.298  1.00  0.00     0.117 A 
HETATM    8  F   UNL     1      44.754 -18.536   3.720  1.00  0.00    -0.206 F 
HETATM    9  C   UNL     1      42.854 -17.161   3.499  1.00  0.00     0.052 A 
ENDROOT
BRANCH   1  10
HETATM   10  C   UNL     1      40.791 -15.739   3.193  1.00  0.00     0.312 C 
BRANCH  10  11
HETATM   11  N   UNL     1      41.414 -14.713   2.346  1.00  0.00     0.096 N 
HETATM   12  C   UNL     1      41.375 -15.081   0.919  1.00  0.00     0.303 C 
HETATM   13  C   UNL     1      40.044 -14.744   0.207  1.00  0.00     0.303 C 
HETATM   14  N   UNL     1      39.642 -13.313   0.305  1.00  0.00     0.096 N 
HETATM   15  C   UNL     1      39.563 -13.049   1.777  1.00  0.00     0.303 C 
HETATM   16  C   UNL     1      40.860 -13.366   2.567  1.00  0.00     0.303 C 
BRANCH  14  17
HETATM   17  C   UNL     1      40.554 -12.362  -0.393  1.00  0.00     0.227 C 
HETATM   18  C   UNL     1      40.733 -12.610  -1.918  1.00  0.00     0.069 C 
HETATM   19  C   UNL     1      39.657 -11.975  -2.807  1.00  0.00     0.190 C 
HETATM   20  N   UNL     1      39.659 -10.477  -2.593  1.00  0.00    -0.066 N 
HETATM   21  C   UNL     1      38.225 -12.322  -2.389  1.00  0.00     0.035 C 
HETATM   22  C   UNL     1      40.901  -9.708  -2.908  1.00  0.00     0.270 C 
HETATM   23  H   UNL     1      38.951 -10.090  -3.234  1.00  0.00     0.280 HD
HETATM   24  C   UNL     1      39.079 -10.373  -1.201  1.00  0.00     0.190 C 
HETATM   25  C   UNL     1      37.846 -11.273  -1.334  1.00  0.00     0.035 C 
HETATM   26  C   UNL     1      40.107 -10.885  -0.184  1.00  0.00     0.069 C 
ENDBRANCH  14  17
ENDBRANCH  10  11
ENDBRANCH   1  10
TORSDOF 3
ENDMDL
MODEL 4
REMARK VINA RESULT:      -7.7      2.578      3.456
REMARK  3 active torsions:
REMARK  status: ('A' for Active; 'I' for Inactive)
REMARK    1  A    between atoms: C_9  and  N_10 
REMARK    2  A    between atoms: N_13  and  C_14 
REMARK    3  A    between atoms: C_14  and  C_15 
ROOT
HETATM    1  C   UNL     1      42.330 -15.722   4.469  1.00  0.00    -0.006 A 
HETATM    2  C   UNL     1      43.243 -16.794   4.340  1.00  0.00     0.052 A 
HETATM    3  C   UNL     1      43.175 -17.712   3.234  1.00  0.00     0.100 C 
HETATM    4  N   UNL     1      43.117 -18.467   2.354  1.00  0.00    -0.191 NA
HETATM    5  C   UNL     1      44.247 -16.979   5.305  1.00  0.00     0.026 A 
HETATM    6  C   UNL     1      44.347 -16.115   6.395  1.00  0.00     0.044 A 
HETATM    7  C   UNL     1      43.441 -15.071   6.525  1.00  0.00     0.117 A 
HETATM    8  F   UNL     1      43.536 -14.239   7.568  1.00  0.00    -0.206 F 
HETATM    9  C   UNL     1      42.439 -14.869   5.581  1.00  0.00     0.052 A 
ENDROOT
BRANCH   1  10
HETATM   10  C   UNL     1      41.255 -15.457   3.431  1.00  0.00     0.312 C 
BRANCH  10  11
HETATM   11  N   UNL     1      41.730 -14.545   2.382  1.00  0.00     0.096 N 
HETATM   12  C   UNL     1      41.568 -15.123   1.036  1.00  0.00     0.303 C 
HETATM   13  C   UNL     1      40.155 -14.952   0.431  1.00  0.00     0.303 C 
HETATM   14  N   UNL     1      39.684 -13.541   0.364  1.00  0.00     0.096 N 
HETATM   15  C   UNL     1      39.739 -13.062   1.781  1.00  0.00     0.303 C 
HETATM   16  C   UNL     1      41.126 -13.203   2.464  1.00  0.00     0.303 C 
BRANCH  14  17
HETATM   17  C   UNL     1      40.466 -12.668  -0.560  1.00  0.00     0.227 C 
HETATM   18  C   UNL     1      40.484 -13.123  -2.047  1.00  0.00     0.069 C 
HETATM   19  C   UNL     1      39.286 -12.654  -2.882  1.00  0.00     0.190 C 
HETATM   20  N   UNL     1      39.241 -11.142  -2.875  1.00  0.00    -0.066 N 
HETATM   21  C   UNL     1      37.929 -12.984  -2.255  1.00  0.00     0.035 C 
HETATM   22  C   UNL     1      40.401 -10.386  -3.436  1.00  0.00     0.270 C 
HETATM   23  H   UNL     1      38.448 -10.871  -3.475  1.00  0.00     0.280 HD
HETATM   24  C   UNL     1      38.816 -10.861  -1.452  1.00  0.00     0.190 C 
HETATM   25  C   UNL     1      37.621 -11.809  -1.315  1.00  0.00     0.035 C 
HETATM   26  C   UNL     1      39.975 -11.192  -0.502  1.00  0.00     0.069 C 
ENDBRANCH  14  17
ENDBRANCH  10  11
ENDBRANCH   1  10
TORSDOF 3
ENDMDL
MODEL 5
REMARK VINA RESULT:      -7.7      2.656      7.864
REMARK  3 active torsions:
REMARK  status: ('A' for Active; 'I' for Inactive)
REMARK    1  A    between atoms: C_9  and  N_10 
REMARK    2  A    between atoms: N_13  and  C_14 
REMARK    3  A    between atoms: C_14  and  C_15 
ROOT
HETATM    1  C   UNL     1      40.150 -12.795  -0.362  1.00  0.00    -0.006 A 
HETATM    2  C   UNL     1      40.877 -11.732  -0.945  1.00  0.00     0.052 A 
HETATM    3  C   UNL     1      41.445 -10.680  -0.144  1.00  0.00     0.100 C 
HETATM    4  N   UNL     1      41.894  -9.820   0.494  1.00  0.00    -0.191 NA
HETATM    5  C   UNL     1      41.058 -11.686  -2.337  1.00  0.00     0.026 A 
HETATM    6  C   UNL     1      40.520 -12.683  -3.152  1.00  0.00     0.044 A 
HETATM    7  C   UNL     1      39.797 -13.719  -2.577  1.00  0.00     0.117 A 
HETATM    8  F   UNL     1      39.282 -14.678  -3.356  1.00  0.00    -0.206 F 
HETATM    9  C   UNL     1      39.605 -13.783  -1.201  1.00  0.00     0.052 A 
ENDROOT
BRANCH   1  10
HETATM   10  C   UNL     1      39.964 -12.910   1.140  1.00  0.00     0.312 C 
BRANCH  10  11
HETATM   11  N   UNL     1      40.313 -14.250   1.627  1.00  0.00     0.096 N 
HETATM   12  C   UNL     1      41.771 -14.468   1.642  1.00  0.00     0.303 C 
HETATM   13  C   UNL     1      42.489 -13.914   2.895  1.00  0.00     0.303 C 
HETATM   14  N   UNL     1      41.953 -14.430   4.186  1.00  0.00     0.096 N 
HETATM   15  C   UNL     1      40.505 -14.051   4.166  1.00  0.00     0.303 C 
HETATM   16  C   UNL     1      39.713 -14.566   2.936  1.00  0.00     0.303 C 
BRANCH  14  17
HETATM   17  C   UNL     1      42.153 -15.893   4.400  1.00  0.00     0.227 C 
HETATM   18  C   UNL     1      43.634 -16.350   4.529  1.00  0.00     0.069 C 
HETATM   19  C   UNL     1      44.230 -16.228   5.936  1.00  0.00     0.190 C 
HETATM   20  N   UNL     1      43.415 -17.072   6.892  1.00  0.00    -0.066 N 
HETATM   21  C   UNL     1      44.058 -14.841   6.562  1.00  0.00     0.035 C 
HETATM   22  C   UNL     1      43.327 -18.544   6.654  1.00  0.00     0.270 C 
HETATM   23  H   UNL     1      43.870 -16.990   7.813  1.00  0.00     0.280 HD
HETATM   24  C   UNL     1      42.133 -16.275   6.977  1.00  0.00     0.190 C 
HETATM   25  C   UNL     1      42.682 -14.871   7.243  1.00  0.00     0.035 C 
HETATM   26  C   UNL     1      41.372 -16.397   5.649  1.00  0.00     0.069 C 
ENDBRANCH  14  17
ENDBRANCH  10  11
ENDBRANCH   1  10
TORSDOF 3
ENDMDL
MODEL 6
REMARK VINA RESULT:      -7.3      2.290      3.400
REMARK  3 active torsions:
REMARK  status: ('A' for Active; 'I' for Inactive)
REMARK    1  A    between atoms: C_9  and  N_10 
REMARK    2  A    between atoms: N_13  and  C_14 
REMARK    3  A    between atoms: C_14  and  C_15 
ROOT
HETATM    1  C   UNL     1      42.318 -16.867   4.356  1.00  0.00    -0.006 A 
HETATM    2  C   UNL     1      43.323 -17.851   4.500  1.00  0.00     0.052 A 
HETATM    3  C   UNL     1      43.790 -18.621   3.377  1.00  0.00     0.100 C 
HETATM    4  N   UNL     1      44.160 -19.256   2.479  1.00  0.00    -0.191 NA
HETATM    5  C   UNL     1      43.891 -18.095   5.761  1.00  0.00     0.026 A 
HETATM    6  C   UNL     1      43.465 -17.375   6.878  1.00  0.00     0.044 A 
HETATM    7  C   UNL     1      42.469 -16.418   6.735  1.00  0.00     0.117 A 
HETATM    8  F   UNL     1      42.060 -15.724   7.804  1.00  0.00    -0.206 F 
HETATM    9  C   UNL     1      41.893 -16.161   5.495  1.00  0.00     0.052 A 
ENDROOT
BRANCH   1  10
HETATM   10  C   UNL     1      41.705 -16.540   3.006  1.00  0.00     0.312 C 
BRANCH  10  11
HETATM   11  N   UNL     1      40.991 -15.256   3.034  1.00  0.00     0.096 N 
HETATM   12  C   UNL     1      41.889 -14.122   2.751  1.00  0.00     0.303 C 
HETATM   13  C   UNL     1      42.134 -13.861   1.246  1.00  0.00     0.303 C 
HETATM   14  N   UNL     1      40.892 -13.650   0.450  1.00  0.00     0.096 N 
HETATM   15  C   UNL     1      40.093 -14.897   0.670  1.00  0.00     0.303 C 
HETATM   16  C   UNL     1      39.806 -15.233   2.158  1.00  0.00     0.303 C 
BRANCH  14  17
HETATM   17  C   UNL     1      40.129 -12.418   0.805  1.00  0.00     0.227 C 
HETATM   18  C   UNL     1      40.919 -11.085   0.667  1.00  0.00     0.069 C 
HETATM   19  C   UNL     1      40.925 -10.479  -0.741  1.00  0.00     0.190 C 
HETATM   20  N   UNL     1      39.500 -10.203  -1.167  1.00  0.00    -0.066 N 
HETATM   21  C   UNL     1      41.366 -11.457  -1.834  1.00  0.00     0.035 C 
HETATM   22  C   UNL     1      38.680  -9.250  -0.358  1.00  0.00     0.270 C 
HETATM   23  H   UNL     1      39.554  -9.764  -2.098  1.00  0.00     0.280 HD
HETATM   24  C   UNL     1      38.975 -11.604  -1.384  1.00  0.00     0.190 C 
HETATM   25  C   UNL     1      40.087 -12.197  -2.254  1.00  0.00     0.035 C 
HETATM   26  C   UNL     1      38.818 -12.301  -0.026  1.00  0.00     0.069 C 
ENDBRANCH  14  17
ENDBRANCH  10  11
ENDBRANCH   1  10
TORSDOF 3
ENDMDL
MODEL 7
REMARK VINA RESULT:      -7.0      2.319      3.657
REMARK  3 active torsions:
REMARK  status: ('A' for Active; 'I' for Inactive)
REMARK    1  A    between atoms: C_9  and  N_10 
REMARK    2  A    between atoms: N_13  and  C_14 
REMARK    3  A    between atoms: C_14  and  C_15 
ROOT
HETATM    1  C   UNL     1      42.193 -14.490   3.901  1.00  0.00    -0.006 A 
HETATM    2  C   UNL     1      41.436 -15.053   4.954  1.00  0.00     0.052 A 
HETATM    3  C   UNL     1      40.538 -14.254   5.746  1.00  0.00     0.100 C 
HETATM    4  N   UNL     1      39.823 -13.614   6.399  1.00  0.00    -0.191 NA
HETATM    5  C   UNL     1      41.551 -16.422   5.247  1.00  0.00     0.026 A 
HETATM    6  C   UNL     1      42.414 -17.231   4.508  1.00  0.00     0.044 A 
HETATM    7  C   UNL     1      43.164 -16.673   3.482  1.00  0.00     0.117 A 
HETATM    8  F   UNL     1      43.990 -17.448   2.770  1.00  0.00    -0.206 F 
HETATM    9  C   UNL     1      43.066 -15.320   3.176  1.00  0.00     0.052 A 
ENDROOT
BRANCH   1  10
HETATM   10  C   UNL     1      42.071 -13.025   3.520  1.00  0.00     0.312 C 
BRANCH  10  11
HETATM   11  N   UNL     1      40.769 -12.733   2.907  1.00  0.00     0.096 N 
HETATM   12  C   UNL     1      40.720 -11.371   2.345  1.00  0.00     0.303 C 
HETATM   13  C   UNL     1      41.325 -11.241   0.928  1.00  0.00     0.303 C 
HETATM   14  N   UNL     1      40.725 -12.157  -0.082  1.00  0.00     0.096 N 
HETATM   15  C   UNL     1      40.936 -13.526   0.485  1.00  0.00     0.303 C 
HETATM   16  C   UNL     1      40.360 -13.738   1.910  1.00  0.00     0.303 C 
BRANCH  14  17
HETATM   17  C   UNL     1      39.290 -11.887  -0.390  1.00  0.00     0.227 C 
HETATM   18  C   UNL     1      39.006 -10.532  -1.099  1.00  0.00     0.069 C 
HETATM   19  C   UNL     1      39.160 -10.555  -2.625  1.00  0.00     0.190 C 
HETATM   20  N   UNL     1      38.202 -11.574  -3.202  1.00  0.00    -0.066 N 
HETATM   21  C   UNL     1      40.500 -11.120  -3.102  1.00  0.00     0.035 C 
HETATM   22  C   UNL     1      36.736 -11.387  -2.980  1.00  0.00     0.270 C 
HETATM   23  H   UNL     1      38.311 -11.529  -4.226  1.00  0.00     0.280 HD
HETATM   24  C   UNL     1      38.840 -12.871  -2.759  1.00  0.00     0.190 C 
HETATM   25  C   UNL     1      40.292 -12.639  -3.189  1.00  0.00     0.035 C 
HETATM   26  C   UNL     1      38.665 -13.029  -1.243  1.00  0.00     0.069 C 
ENDBRANCH  14  17
ENDBRANCH  10  11
ENDBRANCH   1  10
TORSDOF 3
ENDMDL
MODEL 8
REMARK VINA RESULT:      -7.0     14.477     17.191
REMARK  3 active torsions:
REMARK  status: ('A' for Active; 'I' for Inactive)
REMARK    1  A    between atoms: C_9  and  N_10 
REMARK    2  A    between atoms: N_13  and  C_14 
REMARK    3  A    between atoms: C_14  and  C_15 
ROOT
HETATM    1  C   UNL     1      44.765 -29.463  -0.855  1.00  0.00    -0.006 A 
HETATM    2  C   UNL     1      45.760 -28.468  -0.990  1.00  0.00     0.052 A 
HETATM    3  C   UNL     1      46.603 -28.093   0.114  1.00  0.00     0.100 C 
HETATM    4  N   UNL     1      47.278 -27.773   1.004  1.00  0.00    -0.191 NA
HETATM    5  C   UNL     1      45.943 -27.821  -2.223  1.00  0.00     0.026 A 
HETATM    6  C   UNL     1      45.144 -28.151  -3.318  1.00  0.00     0.044 A 
HETATM    7  C   UNL     1      44.160 -29.120  -3.179  1.00  0.00     0.117 A 
HETATM    8  F   UNL     1      43.394 -29.441  -4.229  1.00  0.00    -0.206 F 
HETATM    9  C   UNL     1      43.961 -29.773  -1.967  1.00  0.00     0.052 A 
ENDROOT
BRANCH   1  10
HETATM   10  C   UNL     1      44.557 -30.218   0.446  1.00  0.00     0.312 C 
BRANCH  10  11
HETATM   11  N   UNL     1      43.139 -30.527   0.670  1.00  0.00     0.096 N 
HETATM   12  C   UNL     1      42.923 -31.965   0.917  1.00  0.00     0.303 C 
HETATM   13  C   UNL     1      43.168 -32.407   2.378  1.00  0.00     0.303 C 
HETATM   14  N   UNL     1      42.365 -31.661   3.387  1.00  0.00     0.096 N 
HETATM   15  C   UNL     1      42.740 -30.228   3.175  1.00  0.00     0.303 C 
HETATM   16  C   UNL     1      42.528 -29.705   1.730  1.00  0.00     0.303 C 
BRANCH  14  17
HETATM   17  C   UNL     1      40.892 -31.881   3.295  1.00  0.00     0.227 C 
HETATM   18  C   UNL     1      40.448 -33.367   3.180  1.00  0.00     0.069 C 
HETATM   19  C   UNL     1      40.310 -34.107   4.516  1.00  0.00     0.190 C 
HETATM   20  N   UNL     1      39.283 -33.397   5.370  1.00  0.00    -0.066 N 
HETATM   21  C   UNL     1      41.548 -34.004   5.411  1.00  0.00     0.035 C 
HETATM   22  C   UNL     1      37.882 -33.282   4.864  1.00  0.00     0.270 C 
HETATM   23  H   UNL     1      39.196 -33.946   6.238  1.00  0.00     0.280 HD
HETATM   24  C   UNL     1      40.024 -32.131   5.738  1.00  0.00     0.190 C 
HETATM   25  C   UNL     1      41.362 -32.707   6.211  1.00  0.00     0.035 C 
HETATM   26  C   UNL     1      40.143 -31.235   4.498  1.00  0.00     0.069 C 
ENDBRANCH  14  17
ENDBRANCH  10  11
ENDBRANCH   1  10
TORSDOF 3
ENDMDL
MODEL 9
REMARK VINA RESULT:      -6.8      5.565      7.967
REMARK  3 active torsions:
REMARK  status: ('A' for Active; 'I' for Inactive)
REMARK    1  A    between atoms: C_9  and  N_10 
REMARK    2  A    between atoms: N_13  and  C_14 
REMARK    3  A    between atoms: C_14  and  C_15 
ROOT
HETATM    1  C   UNL     1      41.824  -9.674   7.366  1.00  0.00    -0.006 A 
HETATM    2  C   UNL     1      42.791  -9.496   8.382  1.00  0.00     0.052 A 
HETATM    3  C   UNL     1      44.199  -9.606   8.108  1.00  0.00     0.100 C 
HETATM    4  N   UNL     1      45.337  -9.707   7.898  1.00  0.00    -0.191 NA
HETATM    5  C   UNL     1      42.384  -9.207   9.695  1.00  0.00     0.026 A 
HETATM    6  C   UNL     1      41.028  -9.097  10.005  1.00  0.00     0.044 A 
HETATM    7  C   UNL     1      40.081  -9.283   9.007  1.00  0.00     0.117 A 
HETATM    8  F   UNL     1      38.780  -9.175   9.302  1.00  0.00    -0.206 F 
HETATM    9  C   UNL     1      40.462  -9.571   7.701  1.00  0.00     0.052 A 
ENDROOT
BRANCH   1  10
HETATM   10  C   UNL     1      42.217  -9.947   5.925  1.00  0.00     0.312 C 
BRANCH  10  11
HETATM   11  N   UNL     1      42.869 -11.255   5.782  1.00  0.00     0.096 N 
HETATM   12  C   UNL     1      41.922 -12.367   5.984  1.00  0.00     0.303 C 
HETATM   13  C   UNL     1      41.092 -12.735   4.732  1.00  0.00     0.303 C 
HETATM   14  N   UNL     1      41.907 -13.064   3.530  1.00  0.00     0.096 N 
HETATM   15  C   UNL     1      42.740 -11.841   3.299  1.00  0.00     0.303 C 
HETATM   16  C   UNL     1      43.602 -11.401   4.512  1.00  0.00     0.303 C 
BRANCH  14  17
HETATM   17  C   UNL     1      42.737 -14.297   3.660  1.00  0.00     0.227 C 
HETATM   18  C   UNL     1      42.018 -15.515   4.307  1.00  0.00     0.069 C 
HETATM   19  C   UNL     1      41.193 -16.370   3.337  1.00  0.00     0.190 C 
HETATM   20  N   UNL     1      42.104 -16.907   2.255  1.00  0.00    -0.066 N 
HETATM   21  C   UNL     1      40.197 -15.565   2.498  1.00  0.00     0.035 C 
HETATM   22  C   UNL     1      43.244 -17.790   2.648  1.00  0.00     0.270 C 
HETATM   23  H   UNL     1      41.518 -17.503   1.651  1.00  0.00     0.280 HD
HETATM   24  C   UNL     1      42.400 -15.654   1.463  1.00  0.00     0.190 C 
HETATM   25  C   UNL     1      40.988 -15.094   1.270  1.00  0.00     0.035 C 
HETATM   26  C   UNL     1      43.318 -14.741   2.286  1.00  0.00     0.069 C 
ENDBRANCH  14  17
ENDBRANCH  10  11
ENDBRANCH   1  10
TORSDOF 3
ENDMDL
MODEL 10
REMARK VINA RESULT:      -6.8      2.554      3.091
REMARK  3 active torsions:
REMARK  status: ('A' for Active; 'I' for Inactive)
REMARK    1  A    between atoms: C_9  and  N_10 
REMARK    2  A    between atoms: N_13  and  C_14 
REMARK    3  A    between atoms: C_14  and  C_15 
ROOT
HETATM    1  C   UNL     1      43.238 -16.397   4.582  1.00  0.00    -0.006 A 
HETATM    2  C   UNL     1      43.742 -17.326   5.521  1.00  0.00     0.052 A 
HETATM    3  C   UNL     1      43.906 -16.981   6.908  1.00  0.00     0.100 C 
HETATM    4  N   UNL     1      44.055 -16.705   8.026  1.00  0.00    -0.191 NA
HETATM    5  C   UNL     1      44.096 -18.621   5.107  1.00  0.00     0.026 A 
HETATM    6  C   UNL     1      43.958 -18.997   3.770  1.00  0.00     0.044 A 
HETATM    7  C   UNL     1      43.474 -18.078   2.849  1.00  0.00     0.117 A 
HETATM    8  F   UNL     1      43.338 -18.437   1.566  1.00  0.00    -0.206 F 
HETATM    9  C   UNL     1      43.118 -16.791   3.237  1.00  0.00     0.052 A 
ENDROOT
BRANCH   1  10
HETATM   10  C   UNL     1      42.805 -15.001   4.990  1.00  0.00     0.312 C 
BRANCH  10  11
HETATM   11  N   UNL     1      42.138 -14.298   3.886  1.00  0.00     0.096 N 
HETATM   12  C   UNL     1      40.712 -14.057   4.170  1.00  0.00     0.303 C 
HETATM   13  C   UNL     1      40.434 -12.802   5.029  1.00  0.00     0.303 C 
HETATM   14  N   UNL     1      40.991 -11.539   4.468  1.00  0.00     0.096 N 
HETATM   15  C   UNL     1      42.459 -11.806   4.339  1.00  0.00     0.303 C 
HETATM   16  C   UNL     1      42.823 -13.054   3.493  1.00  0.00     0.303 C 
BRANCH  14  17
HETATM   17  C   UNL     1      40.378 -11.108   3.178  1.00  0.00     0.227 C 
HETATM   18  C   UNL     1      38.838 -10.896   3.213  1.00  0.00     0.069 C 
HETATM   19  C   UNL     1      38.386  -9.514   3.700  1.00  0.00     0.190 C 
HETATM   20  N   UNL     1      38.965  -8.454   2.789  1.00  0.00    -0.066 N 
HETATM   21  C   UNL     1      38.996  -9.102   5.043  1.00  0.00     0.035 C 
HETATM   22  C   UNL     1      38.598  -8.474   1.341  1.00  0.00     0.270 C 
HETATM   23  H   UNL     1      38.607  -7.550   3.130  1.00  0.00     0.280 HD
HETATM   24  C   UNL     1      40.429  -8.504   3.164  1.00  0.00     0.190 C 
HETATM   25  C   UNL     1      40.337  -8.441   4.692  1.00  0.00     0.035 C 
HETATM   26  C   UNL     1      41.043  -9.808   2.637  1.00  0.00     0.069 C 
ENDBRANCH  14  17
ENDBRANCH  10  11
ENDBRANCH   1  10
TORSDOF 3
ENDMDL
