MODEL 1
REMARK VINA RESULT:      -8.9      0.000      0.000
REMARK  9 active torsions:
REMARK  status: ('A' for Active; 'I' for Inactive)
REMARK    1  A    between atoms: O_2  and  C_3 
REMARK    2  A    between atoms: C_6  and  C_7 
REMARK    3  A    between atoms: C_13  and  C_14 
REMARK       I    between atoms: C_14  and  N_15 
REMARK    4  A    between atoms: N_15  and  N_16 
REMARK    5  A    between atoms: N_16  and  C_17 
REMARK    6  A    between atoms: C_17  and  N_18 
REMARK    7  A    between atoms: N_18  and  C_19 
REMARK    8  A    between atoms: C_19  and  C_20 
REMARK    9  A    between atoms: C_27  and  C_28 
ROOT
HETATM    1  C   UNL     1      40.789 -14.569   1.669  1.00  0.00     0.118 C 
HETATM    2  N   UNL     1      40.365 -14.036   2.955  1.00  0.00    -0.365 N 
HETATM    3  C   UNL     1      40.748 -14.631   4.110  1.00  0.00     0.138 A 
HETATM    4  N   UNL     1      41.306 -15.884   4.095  1.00  0.00    -0.240 N 
HETATM    5  N   UNL     1      41.577 -16.372   5.312  1.00  0.00    -0.181 NA
HETATM    6  C   UNL     1      41.203 -15.380   6.128  1.00  0.00     0.160 A 
HETATM    7  C   UNL     1      40.691 -14.250   5.437  1.00  0.00     0.098 A 
HETATM    8  C   UNL     1      41.548 -16.662   2.892  1.00  0.00     0.221 C 
HETATM    9  C   UNL     1      40.708 -16.108   1.724  1.00  0.00     0.066 C 
HETATM   10  H   UNL     1      39.982 -13.087   2.958  1.00  0.00     0.161 HD
ENDROOT
BRANCH   7  11
HETATM   11  C   UNL     1      40.161 -13.001   5.957  1.00  0.00     0.275 C 
HETATM   12  N   UNL     1      40.987 -12.214   6.740  1.00  0.00    -0.263 N 
HETATM   13  H   UNL     1      40.557 -11.350   7.057  1.00  0.00     0.190 HD
HETATM   14  O   UNL     1      39.018 -12.615   5.714  1.00  0.00    -0.266 OA
BRANCH  12  15
HETATM   15  N   UNL     1      42.375 -12.136   6.512  1.00  0.00    -0.274 N 
HETATM   16  H   UNL     1      42.970 -12.631   7.167  1.00  0.00     0.189 HD
BRANCH  15  17
HETATM   17  C   UNL     1      42.912 -11.188   5.679  1.00  0.00     0.186 C 
HETATM   18  S   UNL     1      42.044 -10.055   4.808  1.00  0.00    -0.040 SA
BRANCH  17  19
HETATM   19  N   UNL     1      44.265 -11.201   5.538  1.00  0.00    -0.360 N 
HETATM   20  H   UNL     1      44.602 -10.824   4.660  1.00  0.00     0.162 HD
BRANCH  19  21
HETATM   21  C   UNL     1      45.280 -11.688   6.456  1.00  0.00     0.187 C 
BRANCH  21  22
HETATM   22  C   UNL     1      45.347 -10.807   7.645  1.00  0.00     0.070 A 
HETATM   23  O   UNL     1      44.563 -11.156   8.707  1.00  0.00    -0.325 OA
HETATM   24  C   UNL     1      44.778 -10.232   9.677  1.00  0.00     0.142 A 
HETATM   25  C   UNL     1      45.676  -9.284   9.250  1.00  0.00     0.027 A 
HETATM   26  C   UNL     1      46.043  -9.651   7.933  1.00  0.00     0.036 A 
ENDBRANCH  21  22
ENDBRANCH  19  21
ENDBRANCH  17  19
ENDBRANCH  15  17
ENDBRANCH  12  15
ENDBRANCH   7  11
BRANCH   1  27
HETATM   27  C   UNL     1      39.982 -13.940   0.551  1.00  0.00    -0.035 A 
HETATM   28  C   UNL     1      39.769 -14.667  -0.630  1.00  0.00     0.012 A 
HETATM   29  C   UNL     1      39.004 -14.135  -1.672  1.00  0.00     0.037 A 
HETATM   30  C   UNL     1      38.433 -12.869  -1.556  1.00  0.00     0.068 A 
HETATM   31  C   UNL     1      38.676 -12.116  -0.409  1.00  0.00     0.037 A 
HETATM   32  C   UNL     1      39.452 -12.644   0.632  1.00  0.00     0.012 A 
BRANCH  30  33
HETATM   33  O   UNL     1      37.685 -12.474  -2.631  1.00  0.00    -0.356 OA
HETATM   34  C   UNL     1      37.070 -11.196  -2.534  1.00  0.00     0.210 C 
ENDBRANCH  30  33
ENDBRANCH   1  27
BRANCH   8  35
HETATM   35  C   UNL     1      43.028 -16.668   2.580  1.00  0.00     0.409 C 
HETATM   36  F   UNL     1      43.680 -17.726   3.113  1.00  0.00    -0.169 F 
HETATM   37  F   UNL     1      43.290 -16.656   1.255  1.00  0.00    -0.169 F 
HETATM   38  F   UNL     1      43.615 -15.555   3.094  1.00  0.00    -0.169 F 
ENDBRANCH   8  35
TORSDOF 9
ENDMDL
MODEL 2
REMARK VINA RESULT:      -8.8      2.708      5.310
REMARK  9 active torsions:
REMARK  status: ('A' for Active; 'I' for Inactive)
REMARK    1  A    between atoms: O_2  and  C_3 
REMARK    2  A    between atoms: C_6  and  C_7 
REMARK    3  A    between atoms: C_13  and  C_14 
REMARK       I    between atoms: C_14  and  N_15 
REMARK    4  A    between atoms: N_15  and  N_16 
REMARK    5  A    between atoms: N_16  and  C_17 
REMARK    6  A    between atoms: C_17  and  N_18 
REMARK    7  A    between atoms: N_18  and  C_19 
REMARK    8  A    between atoms: C_19  and  C_20 
REMARK    9  A    between atoms: C_27  and  C_28 
ROOT
HETATM    1  C   UNL     1      41.725 -15.639   2.648  1.00  0.00     0.118 C 
HETATM    2  N   UNL     1      41.482 -14.697   3.731  1.00  0.00    -0.365 N 
HETATM    3  C   UNL     1      40.987 -13.462   3.474  1.00  0.00     0.138 A 
HETATM    4  N   UNL     1      40.960 -12.977   2.191  1.00  0.00    -0.240 N 
HETATM    5  N   UNL     1      40.504 -11.721   2.095  1.00  0.00    -0.181 NA
HETATM    6  C   UNL     1      40.203 -11.410   3.360  1.00  0.00     0.160 A 
HETATM    7  C   UNL     1      40.465 -12.465   4.275  1.00  0.00     0.098 A 
HETATM    8  C   UNL     1      41.424 -13.709   1.025  1.00  0.00     0.221 C 
HETATM    9  C   UNL     1      42.338 -14.873   1.458  1.00  0.00     0.066 C 
HETATM   10  H   UNL     1      41.470 -15.077   4.681  1.00  0.00     0.161 HD
ENDROOT
BRANCH   7  11
HETATM   11  C   UNL     1      40.304 -12.509   5.718  1.00  0.00     0.275 C 
HETATM   12  N   UNL     1      41.395 -12.191   6.509  1.00  0.00    -0.263 N 
HETATM   13  H   UNL     1      41.207 -12.228   7.506  1.00  0.00     0.190 HD
HETATM   14  O   UNL     1      39.237 -12.800   6.257  1.00  0.00    -0.266 OA
BRANCH  12  15
HETATM   15  N   UNL     1      42.338 -11.221   6.119  1.00  0.00    -0.274 N 
HETATM   16  H   UNL     1      41.990 -10.276   5.995  1.00  0.00     0.189 HD
BRANCH  15  17
HETATM   17  C   UNL     1      43.561 -11.574   5.609  1.00  0.00     0.186 C 
HETATM   18  S   UNL     1      43.975 -11.574   3.989  1.00  0.00    -0.040 SA
BRANCH  17  19
HETATM   19  N   UNL     1      44.497 -11.983   6.507  1.00  0.00    -0.360 N 
HETATM   20  H   UNL     1      44.396 -12.944   6.813  1.00  0.00     0.162 HD
BRANCH  19  21
HETATM   21  C   UNL     1      45.600 -11.241   7.090  1.00  0.00     0.187 C 
BRANCH  21  22
HETATM   22  C   UNL     1      45.172 -10.625   8.367  1.00  0.00     0.070 A 
HETATM   23  O   UNL     1      44.094 -11.190   8.985  1.00  0.00    -0.325 OA
HETATM   24  C   UNL     1      43.878 -10.487  10.125  1.00  0.00     0.142 A 
HETATM   25  C   UNL     1      44.792  -9.468  10.243  1.00  0.00     0.027 A 
HETATM   26  C   UNL     1      45.629  -9.551   9.105  1.00  0.00     0.036 A 
ENDBRANCH  21  22
ENDBRANCH  19  21
ENDBRANCH  17  19
ENDBRANCH  15  17
ENDBRANCH  12  15
ENDBRANCH   7  11
BRANCH   1  27
HETATM   27  C   UNL     1      42.566 -16.799   3.145  1.00  0.00    -0.035 A 
HETATM   28  C   UNL     1      43.008 -16.802   4.476  1.00  0.00     0.012 A 
HETATM   29  C   UNL     1      43.759 -17.867   4.980  1.00  0.00     0.037 A 
HETATM   30  C   UNL     1      44.081 -18.953   4.169  1.00  0.00     0.068 A 
HETATM   31  C   UNL     1      43.689 -18.942   2.831  1.00  0.00     0.037 A 
HETATM   32  C   UNL     1      42.946 -17.869   2.322  1.00  0.00     0.012 A 
BRANCH  30  33
HETATM   33  O   UNL     1      44.793 -19.943   4.788  1.00  0.00    -0.356 OA
HETATM   34  C   UNL     1      44.035 -21.007   5.349  1.00  0.00     0.210 C 
ENDBRANCH  30  33
ENDBRANCH   1  27
BRANCH   8  35
HETATM   35  C   UNL     1      40.237 -14.183   0.217  1.00  0.00     0.409 C 
HETATM   36  F   UNL     1      40.458 -14.160  -1.118  1.00  0.00    -0.169 F 
HETATM   37  F   UNL     1      39.840 -15.433   0.540  1.00  0.00    -0.169 F 
HETATM   38  F   UNL     1      39.169 -13.375   0.444  1.00  0.00    -0.169 F 
ENDBRANCH   8  35
TORSDOF 9
ENDMDL
MODEL 3
REMARK VINA RESULT:      -8.7      3.462      6.283
REMARK  9 active torsions:
REMARK  status: ('A' for Active; 'I' for Inactive)
REMARK    1  A    between atoms: O_2  and  C_3 
REMARK    2  A    between atoms: C_6  and  C_7 
REMARK    3  A    between atoms: C_13  and  C_14 
REMARK       I    between atoms: C_14  and  N_15 
REMARK    4  A    between atoms: N_15  and  N_16 
REMARK    5  A    between atoms: N_16  and  C_17 
REMARK    6  A    between atoms: C_17  and  N_18 
REMARK    7  A    between atoms: N_18  and  C_19 
REMARK    8  A    between atoms: C_19  and  C_20 
REMARK    9  A    between atoms: C_27  and  C_28 
ROOT
HETATM    1  C   UNL     1      42.181 -15.387   2.708  1.00  0.00     0.118 C 
HETATM    2  N   UNL     1      42.730 -14.224   3.389  1.00  0.00    -0.365 N 
HETATM    3  C   UNL     1      42.430 -12.972   2.968  1.00  0.00     0.138 A 
HETATM    4  N   UNL     1      41.838 -12.772   1.747  1.00  0.00    -0.240 N 
HETATM    5  N   UNL     1      41.659 -11.482   1.435  1.00  0.00    -0.181 NA
HETATM    6  C   UNL     1      42.129 -10.841   2.510  1.00  0.00     0.160 A 
HETATM    7  C   UNL     1      42.612 -11.718   3.519  1.00  0.00     0.098 A 
HETATM    8  C   UNL     1      41.471 -13.835   0.827  1.00  0.00     0.221 C 
HETATM    9  C   UNL     1      42.224 -15.132   1.188  1.00  0.00     0.066 C 
HETATM   10  H   UNL     1      43.138 -14.380   4.315  1.00  0.00     0.161 HD
ENDROOT
BRANCH   7  11
HETATM   11  C   UNL     1      43.219 -11.416   4.803  1.00  0.00     0.275 C 
HETATM   12  N   UNL     1      42.708 -10.360   5.538  1.00  0.00    -0.263 N 
HETATM   13  H   UNL     1      43.170 -10.216   6.431  1.00  0.00     0.190 HD
HETATM   14  O   UNL     1      44.155 -12.070   5.263  1.00  0.00    -0.266 OA
BRANCH  12  15
HETATM   15  N   UNL     1      41.337 -10.039   5.522  1.00  0.00    -0.274 N 
HETATM   16  H   UNL     1      41.056  -9.281   4.910  1.00  0.00     0.189 HD
BRANCH  15  17
HETATM   17  C   UNL     1      40.487 -10.474   6.507  1.00  0.00     0.186 C 
HETATM   18  S   UNL     1      39.496  -9.500   7.436  1.00  0.00    -0.040 SA
BRANCH  17  19
HETATM   19  N   UNL     1      40.483 -11.811   6.756  1.00  0.00    -0.360 N 
HETATM   20  H   UNL     1      40.886 -12.076   7.648  1.00  0.00     0.162 HD
BRANCH  19  21
HETATM   21  C   UNL     1      39.999 -12.900   5.927  1.00  0.00     0.187 C 
BRANCH  21  22
HETATM   22  C   UNL     1      40.662 -14.165   6.320  1.00  0.00     0.070 A 
HETATM   23  O   UNL     1      41.924 -14.058   6.830  1.00  0.00    -0.325 OA
HETATM   24  C   UNL     1      42.339 -15.316   7.126  1.00  0.00     0.142 A 
HETATM   25  C   UNL     1      41.368 -16.232   6.799  1.00  0.00     0.027 A 
HETATM   26  C   UNL     1      40.284 -15.492   6.273  1.00  0.00     0.036 A 
ENDBRANCH  21  22
ENDBRANCH  19  21
ENDBRANCH  17  19
ENDBRANCH  15  17
ENDBRANCH  12  15
ENDBRANCH   7  11
BRANCH   1  27
HETATM   27  C   UNL     1      42.907 -16.642   3.151  1.00  0.00    -0.035 A 
HETATM   28  C   UNL     1      43.649 -16.618   4.342  1.00  0.00     0.012 A 
HETATM   29  C   UNL     1      44.307 -17.762   4.800  1.00  0.00     0.037 A 
HETATM   30  C   UNL     1      44.235 -18.956   4.084  1.00  0.00     0.068 A 
HETATM   31  C   UNL     1      43.541 -18.982   2.876  1.00  0.00     0.037 A 
HETATM   32  C   UNL     1      42.891 -17.832   2.409  1.00  0.00     0.012 A 
BRANCH  30  33
HETATM   33  O   UNL     1      44.897 -20.009   4.653  1.00  0.00    -0.356 OA
HETATM   34  C   UNL     1      44.118 -20.872   5.472  1.00  0.00     0.210 C 
ENDBRANCH  30  33
ENDBRANCH   1  27
BRANCH   8  35
HETATM   35  C   UNL     1      39.971 -14.023   0.838  1.00  0.00     0.409 C 
HETATM   36  F   UNL     1      39.590 -15.290   0.557  1.00  0.00    -0.169 F 
HETATM   37  F   UNL     1      39.402 -13.680   2.014  1.00  0.00    -0.169 F 
HETATM   38  F   UNL     1      39.398 -13.230  -0.106  1.00  0.00    -0.169 F 
ENDBRANCH   8  35
TORSDOF 9
ENDMDL
MODEL 4
REMARK VINA RESULT:      -8.6      3.371      5.685
REMARK  9 active torsions:
REMARK  status: ('A' for Active; 'I' for Inactive)
REMARK    1  A    between atoms: O_2  and  C_3 
REMARK    2  A    between atoms: C_6  and  C_7 
REMARK    3  A    between atoms: C_13  and  C_14 
REMARK       I    between atoms: C_14  and  N_15 
REMARK    4  A    between atoms: N_15  and  N_16 
REMARK    5  A    between atoms: N_16  and  C_17 
REMARK    6  A    between atoms: C_17  and  N_18 
REMARK    7  A    between atoms: N_18  and  C_19 
REMARK    8  A    between atoms: C_19  and  C_20 
REMARK    9  A    between atoms: C_27  and  C_28 
ROOT
HETATM    1  C   UNL     1      42.392 -15.406   3.023  1.00  0.00     0.118 C 
HETATM    2  N   UNL     1      42.956 -14.523   4.032  1.00  0.00    -0.365 N 
HETATM    3  C   UNL     1      42.847 -13.178   3.912  1.00  0.00     0.138 A 
HETATM    4  N   UNL     1      42.453 -12.616   2.724  1.00  0.00    -0.240 N 
HETATM    5  N   UNL     1      42.452 -11.277   2.731  1.00  0.00    -0.181 NA
HETATM    6  C   UNL     1      42.831 -10.979   3.978  1.00  0.00     0.160 A 
HETATM    7  C   UNL     1      43.078 -12.127   4.778  1.00  0.00     0.098 A 
HETATM    8  C   UNL     1      42.111 -13.371   1.531  1.00  0.00     0.221 C 
HETATM    9  C   UNL     1      42.671 -14.804   1.631  1.00  0.00     0.066 C 
HETATM   10  H   UNL     1      43.214 -14.948   4.927  1.00  0.00     0.161 HD
ENDROOT
BRANCH   7  11
HETATM   11  C   UNL     1      43.529 -12.223   6.155  1.00  0.00     0.275 C 
HETATM   12  N   UNL     1      42.974 -11.365   7.089  1.00  0.00    -0.263 N 
HETATM   13  H   UNL     1      43.325 -11.498   8.033  1.00  0.00     0.190 HD
HETATM   14  O   UNL     1      44.369 -13.045   6.521  1.00  0.00    -0.266 OA
BRANCH  12  15
HETATM   15  N   UNL     1      41.632 -10.947   7.009  1.00  0.00    -0.274 N 
HETATM   16  H   UNL     1      41.035 -11.462   6.370  1.00  0.00     0.189 HD
BRANCH  15  17
HETATM   17  C   UNL     1      41.230  -9.727   7.490  1.00  0.00     0.186 C 
HETATM   18  S   UNL     1      40.859  -8.390   6.559  1.00  0.00    -0.040 SA
BRANCH  17  19
HETATM   19  N   UNL     1      41.159  -9.603   8.843  1.00  0.00    -0.360 N 
HETATM   20  H   UNL     1      40.435 -10.161   9.281  1.00  0.00     0.162 HD
BRANCH  19  21
HETATM   21  C   UNL     1      41.960  -8.783   9.734  1.00  0.00     0.187 C 
BRANCH  21  22
HETATM   22  C   UNL     1      43.394  -8.918   9.389  1.00  0.00     0.070 A 
HETATM   23  O   UNL     1      44.001 -10.085   9.751  1.00  0.00    -0.325 OA
HETATM   24  C   UNL     1      45.292 -10.004   9.340  1.00  0.00     0.142 A 
HETATM   25  C   UNL     1      45.529  -8.794   8.734  1.00  0.00     0.027 A 
HETATM   26  C   UNL     1      44.304  -8.087   8.768  1.00  0.00     0.036 A 
ENDBRANCH  21  22
ENDBRANCH  19  21
ENDBRANCH  17  19
ENDBRANCH  15  17
ENDBRANCH  12  15
ENDBRANCH   7  11
BRANCH   1  27
HETATM   27  C   UNL     1      42.917 -16.816   3.211  1.00  0.00    -0.035 A 
HETATM   28  C   UNL     1      43.482 -17.176   4.444  1.00  0.00     0.012 A 
HETATM   29  C   UNL     1      43.949 -18.474   4.666  1.00  0.00     0.037 A 
HETATM   30  C   UNL     1      43.860 -19.441   3.666  1.00  0.00     0.068 A 
HETATM   31  C   UNL     1      43.345 -19.085   2.421  1.00  0.00     0.037 A 
HETATM   32  C   UNL     1      42.887 -17.781   2.193  1.00  0.00     0.012 A 
BRANCH  30  33
HETATM   33  O   UNL     1      44.325 -20.678   4.018  1.00  0.00    -0.356 OA
HETATM   34  C   UNL     1      44.240 -21.012   5.398  1.00  0.00     0.210 C 
ENDBRANCH  30  33
ENDBRANCH   1  27
BRANCH   8  35
HETATM   35  C   UNL     1      40.613 -13.354   1.330  1.00  0.00     0.409 C 
HETATM   36  F   UNL     1      40.186 -12.301   0.595  1.00  0.00    -0.169 F 
HETATM   37  F   UNL     1      40.144 -14.476   0.742  1.00  0.00    -0.169 F 
HETATM   38  F   UNL     1      39.985 -13.264   2.532  1.00  0.00    -0.169 F 
ENDBRANCH   8  35
TORSDOF 9
ENDMDL
MODEL 5
REMARK VINA RESULT:      -8.6      1.288      1.879
REMARK  9 active torsions:
REMARK  status: ('A' for Active; 'I' for Inactive)
REMARK    1  A    between atoms: O_2  and  C_3 
REMARK    2  A    between atoms: C_6  and  C_7 
REMARK    3  A    between atoms: C_13  and  C_14 
REMARK       I    between atoms: C_14  and  N_15 
REMARK    4  A    between atoms: N_15  and  N_16 
REMARK    5  A    between atoms: N_16  and  C_17 
REMARK    6  A    between atoms: C_17  and  N_18 
REMARK    7  A    between atoms: N_18  and  C_19 
REMARK    8  A    between atoms: C_19  and  C_20 
REMARK    9  A    between atoms: C_27  and  C_28 
ROOT
HETATM    1  C   UNL     1      40.858 -14.597   1.835  1.00  0.00     0.118 C 
HETATM    2  N   UNL     1      40.415 -14.018   3.095  1.00  0.00    -0.365 N 
HETATM    3  C   UNL     1      40.792 -14.563   4.276  1.00  0.00     0.138 A 
HETATM    4  N   UNL     1      41.363 -15.809   4.316  1.00  0.00    -0.240 N 
HETATM    5  N   UNL     1      41.627 -16.247   5.554  1.00  0.00    -0.181 NA
HETATM    6  C   UNL     1      41.235 -15.228   6.326  1.00  0.00     0.160 A 
HETATM    7  C   UNL     1      40.718 -14.131   5.586  1.00  0.00     0.098 A 
HETATM    8  C   UNL     1      41.626 -16.631   3.147  1.00  0.00     0.221 C 
HETATM    9  C   UNL     1      40.792 -16.133   1.949  1.00  0.00     0.066 C 
HETATM   10  H   UNL     1      40.022 -13.074   3.057  1.00  0.00     0.161 HD
ENDROOT
BRANCH   7  11
HETATM   11  C   UNL     1      40.169 -12.869   6.052  1.00  0.00     0.275 C 
HETATM   12  N   UNL     1      41.050 -11.888   6.475  1.00  0.00    -0.263 N 
HETATM   13  H   UNL     1      40.599 -11.028   6.772  1.00  0.00     0.190 HD
HETATM   14  O   UNL     1      38.961 -12.637   6.067  1.00  0.00    -0.266 OA
BRANCH  12  15
HETATM   15  N   UNL     1      42.315 -11.718   5.881  1.00  0.00    -0.274 N 
HETATM   16  H   UNL     1      42.422 -12.069   4.935  1.00  0.00     0.189 HD
BRANCH  15  17
HETATM   17  C   UNL     1      43.425 -11.419   6.630  1.00  0.00     0.186 C 
HETATM   18  S   UNL     1      45.005 -11.466   6.087  1.00  0.00    -0.040 SA
BRANCH  17  19
HETATM   19  N   UNL     1      43.206 -11.084   7.930  1.00  0.00    -0.360 N 
HETATM   20  H   UNL     1      42.899 -11.851   8.517  1.00  0.00     0.162 HD
BRANCH  19  21
HETATM   21  C   UNL     1      43.337  -9.794   8.582  1.00  0.00     0.187 C 
BRANCH  21  22
HETATM   22  C   UNL     1      43.256  -9.963  10.051  1.00  0.00     0.070 A 
HETATM   23  O   UNL     1      43.825 -11.091  10.568  1.00  0.00    -0.325 OA
HETATM   24  C   UNL     1      43.646 -11.045  11.912  1.00  0.00     0.142 A 
HETATM   25  C   UNL     1      42.955  -9.912  12.267  1.00  0.00     0.027 A 
HETATM   26  C   UNL     1      42.697  -9.211  11.066  1.00  0.00     0.036 A 
ENDBRANCH  21  22
ENDBRANCH  19  21
ENDBRANCH  17  19
ENDBRANCH  15  17
ENDBRANCH  12  15
ENDBRANCH   7  11
BRANCH   1  27
HETATM   27  C   UNL     1      40.056 -14.020   0.685  1.00  0.00    -0.035 A 
HETATM   28  C   UNL     1      39.534 -12.723   0.798  1.00  0.00     0.012 A 
HETATM   29  C   UNL     1      38.816 -12.145  -0.252  1.00  0.00     0.037 A 
HETATM   30  C   UNL     1      38.606 -12.846  -1.438  1.00  0.00     0.068 A 
HETATM   31  C   UNL     1      39.078 -14.153  -1.547  1.00  0.00     0.037 A 
HETATM   32  C   UNL     1      39.788 -14.738  -0.490  1.00  0.00     0.012 A 
BRANCH  30  33
HETATM   33  O   UNL     1      37.915 -12.160  -2.398  1.00  0.00    -0.356 OA
HETATM   34  C   UNL     1      38.559 -11.013  -2.938  1.00  0.00     0.210 C 
ENDBRANCH  30  33
ENDBRANCH   1  27
BRANCH   8  35
HETATM   35  C   UNL     1      43.109 -16.634   2.849  1.00  0.00     0.409 C 
HETATM   36  F   UNL     1      43.780 -17.614   3.496  1.00  0.00    -0.169 F 
HETATM   37  F   UNL     1      43.385 -16.753   1.533  1.00  0.00    -0.169 F 
HETATM   38  F   UNL     1      43.663 -15.459   3.249  1.00  0.00    -0.169 F 
ENDBRANCH   8  35
TORSDOF 9
ENDMDL
MODEL 6
REMARK VINA RESULT:      -8.5      2.449      3.894
REMARK  9 active torsions:
REMARK  status: ('A' for Active; 'I' for Inactive)
REMARK    1  A    between atoms: O_2  and  C_3 
REMARK    2  A    between atoms: C_6  and  C_7 
REMARK    3  A    between atoms: C_13  and  C_14 
REMARK       I    between atoms: C_14  and  N_15 
REMARK    4  A    between atoms: N_15  and  N_16 
REMARK    5  A    between atoms: N_16  and  C_17 
REMARK    6  A    between atoms: C_17  and  N_18 
REMARK    7  A    between atoms: N_18  and  C_19 
REMARK    8  A    between atoms: C_19  and  C_20 
REMARK    9  A    between atoms: C_27  and  C_28 
ROOT
HETATM    1  C   UNL     1      41.368 -14.776   2.012  1.00  0.00     0.118 C 
HETATM    2  N   UNL     1      40.749 -14.165   3.178  1.00  0.00    -0.365 N 
HETATM    3  C   UNL     1      40.873 -14.732   4.403  1.00  0.00     0.138 A 
HETATM    4  N   UNL     1      41.343 -16.015   4.531  1.00  0.00    -0.240 N 
HETATM    5  N   UNL     1      41.352 -16.466   5.791  1.00  0.00    -0.181 NA
HETATM    6  C   UNL     1      40.900 -15.421   6.492  1.00  0.00     0.160 A 
HETATM    7  C   UNL     1      40.597 -14.293   5.683  1.00  0.00     0.098 A 
HETATM    8  C   UNL     1      41.752 -16.855   3.418  1.00  0.00     0.221 C 
HETATM    9  C   UNL     1      41.179 -16.304   2.097  1.00  0.00     0.066 C 
HETATM   10  H   UNL     1      40.434 -13.197   3.081  1.00  0.00     0.161 HD
ENDROOT
BRANCH   7  11
HETATM   11  C   UNL     1      40.062 -12.996   6.056  1.00  0.00     0.275 C 
HETATM   12  N   UNL     1      40.951 -12.005   6.438  1.00  0.00    -0.263 N 
HETATM   13  H   UNL     1      40.509 -11.120   6.670  1.00  0.00     0.190 HD
HETATM   14  O   UNL     1      38.858 -12.743   6.030  1.00  0.00    -0.266 OA
BRANCH  12  15
HETATM   15  N   UNL     1      42.231 -11.894   5.863  1.00  0.00    -0.274 N 
HETATM   16  H   UNL     1      43.020 -11.998   6.491  1.00  0.00     0.189 HD
BRANCH  15  17
HETATM   17  C   UNL     1      42.414 -11.345   4.619  1.00  0.00     0.186 C 
HETATM   18  S   UNL     1      43.657 -11.719   3.565  1.00  0.00    -0.040 SA
BRANCH  17  19
HETATM   19  N   UNL     1      41.516 -10.398   4.237  1.00  0.00    -0.360 N 
HETATM   20  H   UNL     1      40.927 -10.048   4.985  1.00  0.00     0.162 HD
BRANCH  19  21
HETATM   21  C   UNL     1      41.277  -9.833   2.921  1.00  0.00     0.187 C 
BRANCH  21  22
HETATM   22  C   UNL     1      39.970 -10.299   2.403  1.00  0.00     0.070 A 
HETATM   23  O   UNL     1      39.501 -11.478   2.905  1.00  0.00    -0.325 OA
HETATM   24  C   UNL     1      38.304 -11.713   2.310  1.00  0.00     0.142 A 
HETATM   25  C   UNL     1      38.003 -10.710   1.420  1.00  0.00     0.027 A 
HETATM   26  C   UNL     1      39.081  -9.795   1.475  1.00  0.00     0.036 A 
ENDBRANCH  21  22
ENDBRANCH  19  21
ENDBRANCH  17  19
ENDBRANCH  15  17
ENDBRANCH  12  15
ENDBRANCH   7  11
BRANCH   1  27
HETATM   27  C   UNL     1      40.823 -14.149   0.743  1.00  0.00    -0.035 A 
HETATM   28  C   UNL     1      39.910 -14.873  -0.039  1.00  0.00     0.012 A 
HETATM   29  C   UNL     1      39.362 -14.318  -1.199  1.00  0.00     0.037 A 
HETATM   30  C   UNL     1      39.708 -13.029  -1.599  1.00  0.00     0.068 A 
HETATM   31  C   UNL     1      40.648 -12.316  -0.858  1.00  0.00     0.037 A 
HETATM   32  C   UNL     1      41.208 -12.876   0.298  1.00  0.00     0.012 A 
BRANCH  30  33
HETATM   33  O   UNL     1      39.081 -12.591  -2.733  1.00  0.00    -0.356 OA
HETATM   34  C   UNL     1      39.143 -11.193  -2.986  1.00  0.00     0.210 C 
ENDBRANCH  30  33
ENDBRANCH   1  27
BRANCH   8  35
HETATM   35  C   UNL     1      43.260 -16.960   3.388  1.00  0.00     0.409 C 
HETATM   36  F   UNL     1      43.880 -15.866   3.886  1.00  0.00    -0.169 F 
HETATM   37  F   UNL     1      43.731 -18.033   4.058  1.00  0.00    -0.169 F 
HETATM   38  F   UNL     1      43.689 -17.095   2.105  1.00  0.00    -0.169 F 
ENDBRANCH   8  35
TORSDOF 9
ENDMDL
MODEL 7
REMARK VINA RESULT:      -8.5      3.145      5.720
REMARK  9 active torsions:
REMARK  status: ('A' for Active; 'I' for Inactive)
REMARK    1  A    between atoms: O_2  and  C_3 
REMARK    2  A    between atoms: C_6  and  C_7 
REMARK    3  A    between atoms: C_13  and  C_14 
REMARK       I    between atoms: C_14  and  N_15 
REMARK    4  A    between atoms: N_15  and  N_16 
REMARK    5  A    between atoms: N_16  and  C_17 
REMARK    6  A    between atoms: C_17  and  N_18 
REMARK    7  A    between atoms: N_18  and  C_19 
REMARK    8  A    between atoms: C_19  and  C_20 
REMARK    9  A    between atoms: C_27  and  C_28 
ROOT
HETATM    1  C   UNL     1      42.062 -15.494   2.651  1.00  0.00     0.118 C 
HETATM    2  N   UNL     1      42.661 -14.217   3.010  1.00  0.00    -0.365 N 
HETATM    3  C   UNL     1      42.330 -13.087   2.341  1.00  0.00     0.138 A 
HETATM    4  N   UNL     1      41.646 -13.156   1.154  1.00  0.00    -0.240 N 
HETATM    5  N   UNL     1      41.444 -11.967   0.573  1.00  0.00    -0.181 NA
HETATM    6  C   UNL     1      41.994 -11.109   1.438  1.00  0.00     0.160 A 
HETATM    7  C   UNL     1      42.553 -11.744   2.579  1.00  0.00     0.098 A 
HETATM    8  C   UNL     1      41.210 -14.393   0.527  1.00  0.00     0.221 C 
HETATM    9  C   UNL     1      41.989 -15.588   1.114  1.00  0.00     0.066 C 
HETATM   10  H   UNL     1      43.138 -14.168   3.914  1.00  0.00     0.161 HD
ENDROOT
BRANCH   7  11
HETATM   11  C   UNL     1      43.256 -11.172   3.714  1.00  0.00     0.275 C 
HETATM   12  N   UNL     1      42.507 -10.663   4.761  1.00  0.00    -0.263 N 
HETATM   13  H   UNL     1      43.064 -10.293   5.526  1.00  0.00     0.190 HD
HETATM   14  O   UNL     1      44.485 -11.138   3.783  1.00  0.00    -0.266 OA
BRANCH  12  15
HETATM   15  N   UNL     1      41.281 -11.238   5.145  1.00  0.00    -0.274 N 
HETATM   16  H   UNL     1      40.468 -10.632   5.117  1.00  0.00     0.189 HD
BRANCH  15  17
HETATM   17  C   UNL     1      41.229 -12.422   5.836  1.00  0.00     0.186 C 
HETATM   18  S   UNL     1      40.146 -13.664   5.555  1.00  0.00    -0.040 SA
BRANCH  17  19
HETATM   19  N   UNL     1      42.121 -12.570   6.852  1.00  0.00    -0.360 N 
HETATM   20  H   UNL     1      41.761 -12.331   7.769  1.00  0.00     0.162 HD
BRANCH  19  21
HETATM   21  C   UNL     1      43.506 -13.006   6.804  1.00  0.00     0.187 C 
BRANCH  21  22
HETATM   22  C   UNL     1      44.387 -11.938   7.329  1.00  0.00     0.070 A 
HETATM   23  O   UNL     1      45.600 -11.794   6.720  1.00  0.00    -0.325 OA
HETATM   24  C   UNL     1      46.237 -10.771   7.343  1.00  0.00     0.142 A 
HETATM   25  C   UNL     1      45.458 -10.264   8.355  1.00  0.00     0.027 A 
HETATM   26  C   UNL     1      44.263 -11.020   8.352  1.00  0.00     0.036 A 
ENDBRANCH  21  22
ENDBRANCH  19  21
ENDBRANCH  17  19
ENDBRANCH  15  17
ENDBRANCH  12  15
ENDBRANCH   7  11
BRANCH   1  27
HETATM   27  C   UNL     1      42.820 -16.630   3.311  1.00  0.00    -0.035 A 
HETATM   28  C   UNL     1      43.029 -17.818   2.595  1.00  0.00     0.012 A 
HETATM   29  C   UNL     1      43.749 -18.876   3.157  1.00  0.00     0.037 A 
HETATM   30  C   UNL     1      44.278 -18.770   4.442  1.00  0.00     0.068 A 
HETATM   31  C   UNL     1      44.038 -17.614   5.182  1.00  0.00     0.037 A 
HETATM   32  C   UNL     1      43.306 -16.557   4.625  1.00  0.00     0.012 A 
BRANCH  30  33
HETATM   33  O   UNL     1      44.986 -19.861   4.865  1.00  0.00    -0.356 OA
HETATM   34  C   UNL     1      44.223 -20.944   5.379  1.00  0.00     0.210 C 
ENDBRANCH  30  33
ENDBRANCH   1  27
BRANCH   8  35
HETATM   35  C   UNL     1      39.715 -14.548   0.691  1.00  0.00     0.409 C 
HETATM   36  F   UNL     1      39.247 -14.006   1.839  1.00  0.00    -0.169 F 
HETATM   37  F   UNL     1      39.011 -14.009  -0.328  1.00  0.00    -0.169 F 
HETATM   38  F   UNL     1      39.387 -15.866   0.725  1.00  0.00    -0.169 F 
ENDBRANCH   8  35
TORSDOF 9
ENDMDL
MODEL 8
REMARK VINA RESULT:      -8.2      3.880      5.975
REMARK  9 active torsions:
REMARK  status: ('A' for Active; 'I' for Inactive)
REMARK    1  A    between atoms: O_2  and  C_3 
REMARK    2  A    between atoms: C_6  and  C_7 
REMARK    3  A    between atoms: C_13  and  C_14 
REMARK       I    between atoms: C_14  and  N_15 
REMARK    4  A    between atoms: N_15  and  N_16 
REMARK    5  A    between atoms: N_16  and  C_17 
REMARK    6  A    between atoms: C_17  and  N_18 
REMARK    7  A    between atoms: N_18  and  C_19 
REMARK    8  A    between atoms: C_19  and  C_20 
REMARK    9  A    between atoms: C_27  and  C_28 
ROOT
HETATM    1  C   UNL     1      41.883 -14.713   3.871  1.00  0.00     0.118 C 
HETATM    2  N   UNL     1      42.713 -13.874   4.721  1.00  0.00    -0.365 N 
HETATM    3  C   UNL     1      42.481 -12.543   4.815  1.00  0.00     0.138 A 
HETATM    4  N   UNL     1      41.652 -11.916   3.920  1.00  0.00    -0.240 N 
HETATM    5  N   UNL     1      41.566 -10.591   4.094  1.00  0.00    -0.181 NA
HETATM    6  C   UNL     1      42.347 -10.374   5.157  1.00  0.00     0.160 A 
HETATM    7  C   UNL     1      42.938 -11.559   5.671  1.00  0.00     0.098 A 
HETATM    8  C   UNL     1      40.954 -12.588   2.837  1.00  0.00     0.221 C 
HETATM    9  C   UNL     1      41.604 -13.958   2.556  1.00  0.00     0.066 C 
HETATM   10  H   UNL     1      43.301 -14.351   5.409  1.00  0.00     0.161 HD
ENDROOT
BRANCH   7  11
HETATM   11  C   UNL     1      43.859 -11.736   6.780  1.00  0.00     0.275 C 
HETATM   12  N   UNL     1      43.734 -10.899   7.876  1.00  0.00    -0.263 N 
HETATM   13  H   UNL     1      44.400 -11.089   8.619  1.00  0.00     0.190 HD
HETATM   14  O   UNL     1      44.728 -12.608   6.787  1.00  0.00    -0.266 OA
BRANCH  12  15
HETATM   15  N   UNL     1      42.482 -10.424   8.309  1.00  0.00    -0.274 N 
HETATM   16  H   UNL     1      41.681 -10.676   7.741  1.00  0.00     0.189 HD
BRANCH  15  17
HETATM   17  C   UNL     1      42.378  -9.412   9.229  1.00  0.00     0.186 C 
HETATM   18  S   UNL     1      42.601  -7.786   8.915  1.00  0.00    -0.040 SA
BRANCH  17  19
HETATM   19  N   UNL     1      42.096  -9.782  10.508  1.00  0.00    -0.360 N 
HETATM   20  H   UNL     1      41.107  -9.838  10.723  1.00  0.00     0.162 HD
BRANCH  19  21
HETATM   21  C   UNL     1      43.004 -10.093  11.597  1.00  0.00     0.187 C 
BRANCH  21  22
HETATM   22  C   UNL     1      42.766  -9.169  12.730  1.00  0.00     0.070 A 
HETATM   23  O   UNL     1      41.820  -9.549  13.638  1.00  0.00    -0.325 OA
HETATM   24  C   UNL     1      41.765  -8.577  14.583  1.00  0.00     0.142 A 
HETATM   25  C   UNL     1      42.651  -7.569  14.288  1.00  0.00     0.027 A 
HETATM   26  C   UNL     1      43.296  -7.946  13.087  1.00  0.00     0.036 A 
ENDBRANCH  21  22
ENDBRANCH  19  21
ENDBRANCH  17  19
ENDBRANCH  15  17
ENDBRANCH  12  15
ENDBRANCH   7  11
BRANCH   1  27
HETATM   27  C   UNL     1      42.530 -16.072   3.685  1.00  0.00    -0.035 A 
HETATM   28  C   UNL     1      42.278 -16.795   2.510  1.00  0.00     0.012 A 
HETATM   29  C   UNL     1      42.880 -18.036   2.288  1.00  0.00     0.037 A 
HETATM   30  C   UNL     1      43.750 -18.580   3.231  1.00  0.00     0.068 A 
HETATM   31  C   UNL     1      43.973 -17.896   4.424  1.00  0.00     0.037 A 
HETATM   32  C   UNL     1      43.361 -16.656   4.653  1.00  0.00     0.012 A 
BRANCH  30  33
HETATM   33  O   UNL     1      44.296 -19.785   2.883  1.00  0.00    -0.356 OA
HETATM   34  C   UNL     1      43.667 -20.473   1.809  1.00  0.00     0.210 C 
ENDBRANCH  30  33
ENDBRANCH   1  27
BRANCH   8  35
HETATM   35  C   UNL     1      39.485 -12.710   3.176  1.00  0.00     0.409 C 
HETATM   36  F   UNL     1      38.905 -13.808   2.641  1.00  0.00    -0.169 F 
HETATM   37  F   UNL     1      39.248 -12.731   4.505  1.00  0.00    -0.169 F 
HETATM   38  F   UNL     1      38.807 -11.639   2.686  1.00  0.00    -0.169 F 
ENDBRANCH   8  35
TORSDOF 9
ENDMDL
MODEL 9
REMARK VINA RESULT:      -8.2      1.942      2.396
REMARK  9 active torsions:
REMARK  status: ('A' for Active; 'I' for Inactive)
REMARK    1  A    between atoms: O_2  and  C_3 
REMARK    2  A    between atoms: C_6  and  C_7 
REMARK    3  A    between atoms: C_13  and  C_14 
REMARK       I    between atoms: C_14  and  N_15 
REMARK    4  A    between atoms: N_15  and  N_16 
REMARK    5  A    between atoms: N_16  and  C_17 
REMARK    6  A    between atoms: C_17  and  N_18 
REMARK    7  A    between atoms: N_18  and  C_19 
REMARK    8  A    between atoms: C_19  and  C_20 
REMARK    9  A    between atoms: C_27  and  C_28 
ROOT
HETATM    1  C   UNL     1      41.632 -14.526   1.819  1.00  0.00     0.118 C 
HETATM    2  N   UNL     1      42.101 -13.433   2.656  1.00  0.00    -0.365 N 
HETATM    3  C   UNL     1      42.560 -13.670   3.909  1.00  0.00     0.138 A 
HETATM    4  N   UNL     1      42.342 -14.883   4.511  1.00  0.00    -0.240 N 
HETATM    5  N   UNL     1      42.795 -14.953   5.769  1.00  0.00    -0.181 NA
HETATM    6  C   UNL     1      43.345 -13.749   5.962  1.00  0.00     0.160 A 
HETATM    7  C   UNL     1      43.248 -12.901   4.827  1.00  0.00     0.098 A 
HETATM    8  C   UNL     1      41.644 -15.995   3.890  1.00  0.00     0.221 C 
HETATM    9  C   UNL     1      40.811 -15.497   2.692  1.00  0.00     0.066 C 
HETATM   10  H   UNL     1      42.293 -12.542   2.190  1.00  0.00     0.161 HD
ENDROOT
BRANCH   7  11
HETATM   11  C   UNL     1      43.689 -11.528   4.650  1.00  0.00     0.275 C 
HETATM   12  N   UNL     1      42.796 -10.510   4.936  1.00  0.00    -0.263 N 
HETATM   13  H   UNL     1      43.176  -9.577   4.804  1.00  0.00     0.190 HD
HETATM   14  O   UNL     1      44.825 -11.241   4.272  1.00  0.00    -0.266 OA
BRANCH  12  15
HETATM   15  N   UNL     1      41.848 -10.623   5.971  1.00  0.00    -0.274 N 
HETATM   16  H   UNL     1      41.126 -11.324   5.849  1.00  0.00     0.189 HD
BRANCH  15  17
HETATM   17  C   UNL     1      41.694  -9.638   6.913  1.00  0.00     0.186 C 
HETATM   18  S   UNL     1      41.361  -8.031   6.594  1.00  0.00    -0.040 SA
BRANCH  17  19
HETATM   19  N   UNL     1      41.858 -10.010   8.211  1.00  0.00    -0.360 N 
HETATM   20  H   UNL     1      41.160 -10.660   8.555  1.00  0.00     0.162 HD
BRANCH  19  21
HETATM   21  C   UNL     1      42.875  -9.602   9.164  1.00  0.00     0.187 C 
BRANCH  21  22
HETATM   22  C   UNL     1      44.221  -9.851   8.601  1.00  0.00     0.070 A 
HETATM   23  O   UNL     1      45.063  -8.779   8.536  1.00  0.00    -0.325 OA
HETATM   24  C   UNL     1      46.229  -9.222   8.001  1.00  0.00     0.142 A 
HETATM   25  C   UNL     1      46.144 -10.562   7.706  1.00  0.00     0.027 A 
HETATM   26  C   UNL     1      44.845 -10.971   8.088  1.00  0.00     0.036 A 
ENDBRANCH  21  22
ENDBRANCH  19  21
ENDBRANCH  17  19
ENDBRANCH  15  17
ENDBRANCH  12  15
ENDBRANCH   7  11
BRANCH   1  27
HETATM   27  C   UNL     1      40.883 -13.981   0.618  1.00  0.00    -0.035 A 
HETATM   28  C   UNL     1      40.032 -14.833  -0.101  1.00  0.00     0.012 A 
HETATM   29  C   UNL     1      39.301 -14.361  -1.195  1.00  0.00     0.037 A 
HETATM   30  C   UNL     1      39.400 -13.028  -1.590  1.00  0.00     0.068 A 
HETATM   31  C   UNL     1      40.276 -12.182  -0.914  1.00  0.00     0.037 A 
HETATM   32  C   UNL     1      41.019 -12.657   0.175  1.00  0.00     0.012 A 
BRANCH  30  33
HETATM   33  O   UNL     1      38.613 -12.684  -2.654  1.00  0.00    -0.356 OA
HETATM   34  C   UNL     1      37.306 -13.244  -2.677  1.00  0.00     0.210 C 
ENDBRANCH  30  33
ENDBRANCH   1  27
BRANCH   8  35
HETATM   35  C   UNL     1      42.639 -17.062   3.492  1.00  0.00     0.409 C 
HETATM   36  F   UNL     1      42.174 -17.891   2.529  1.00  0.00    -0.169 F 
HETATM   37  F   UNL     1      43.814 -16.557   3.060  1.00  0.00    -0.169 F 
HETATM   38  F   UNL     1      42.933 -17.845   4.564  1.00  0.00    -0.169 F 
ENDBRANCH   8  35
TORSDOF 9
ENDMDL
MODEL 10
REMARK VINA RESULT:      -8.1      3.307      7.576
REMARK  9 active torsions:
REMARK  status: ('A' for Active; 'I' for Inactive)
REMARK    1  A    between atoms: O_2  and  C_3 
REMARK    2  A    between atoms: C_6  and  C_7 
REMARK    3  A    between atoms: C_13  and  C_14 
REMARK       I    between atoms: C_14  and  N_15 
REMARK    4  A    between atoms: N_15  and  N_16 
REMARK    5  A    between atoms: N_16  and  C_17 
REMARK    6  A    between atoms: C_17  and  N_18 
REMARK    7  A    between atoms: N_18  and  C_19 
REMARK    8  A    between atoms: C_19  and  C_20 
REMARK    9  A    between atoms: C_27  and  C_28 
ROOT
HETATM    1  C   UNL     1      43.138 -14.655   4.633  1.00  0.00     0.118 C 
HETATM    2  N   UNL     1      41.876 -14.218   4.056  1.00  0.00    -0.365 N 
HETATM    3  C   UNL     1      41.311 -13.047   4.438  1.00  0.00     0.138 A 
HETATM    4  N   UNL     1      41.761 -12.389   5.554  1.00  0.00    -0.240 N 
HETATM    5  N   UNL     1      41.069 -11.281   5.847  1.00  0.00    -0.181 NA
HETATM    6  C   UNL     1      40.165 -11.218   4.864  1.00  0.00     0.160 A 
HETATM    7  C   UNL     1      40.273 -12.287   3.935  1.00  0.00     0.098 A 
HETATM    8  C   UNL     1      42.853 -12.849   6.396  1.00  0.00     0.221 C 
HETATM    9  C   UNL     1      43.122 -14.347   6.143  1.00  0.00     0.066 C 
HETATM   10  H   UNL     1      41.567 -14.693   3.204  1.00  0.00     0.161 HD
ENDROOT
BRANCH   7  11
HETATM   11  C   UNL     1      39.468 -12.588   2.763  1.00  0.00     0.275 C 
HETATM   12  N   UNL     1      39.081 -11.539   1.947  1.00  0.00    -0.263 N 
HETATM   13  H   UNL     1      38.534 -11.823   1.139  1.00  0.00     0.190 HD
HETATM   14  O   UNL     1      39.135 -13.734   2.465  1.00  0.00    -0.266 OA
BRANCH  12  15
HETATM   15  N   UNL     1      39.906 -10.416   1.738  1.00  0.00    -0.274 N 
HETATM   16  H   UNL     1      39.959  -9.747   2.498  1.00  0.00     0.189 HD
BRANCH  15  17
HETATM   17  C   UNL     1      40.336 -10.066   0.484  1.00  0.00     0.186 C 
HETATM   18  S   UNL     1      39.879  -8.692  -0.352  1.00  0.00    -0.040 SA
BRANCH  17  19
HETATM   19  N   UNL     1      41.184 -10.934  -0.131  1.00  0.00    -0.360 N 
HETATM   20  H   UNL     1      41.867 -11.363   0.484  1.00  0.00     0.162 HD
BRANCH  19  21
HETATM   21  C   UNL     1      41.253 -11.319  -1.529  1.00  0.00     0.187 C 
BRANCH  21  22
HETATM   22  C   UNL     1      40.515 -12.585  -1.739  1.00  0.00     0.070 A 
HETATM   23  O   UNL     1      40.176 -13.287  -0.619  1.00  0.00    -0.325 OA
HETATM   24  C   UNL     1      39.511 -14.395  -1.032  1.00  0.00     0.142 A 
HETATM   25  C   UNL     1      39.430 -14.425  -2.403  1.00  0.00     0.027 A 
HETATM   26  C   UNL     1      40.083 -13.258  -2.865  1.00  0.00     0.036 A 
ENDBRANCH  21  22
ENDBRANCH  19  21
ENDBRANCH  17  19
ENDBRANCH  15  17
ENDBRANCH  12  15
ENDBRANCH   7  11
BRANCH   1  27
HETATM   27  C   UNL     1      43.389 -16.112   4.295  1.00  0.00    -0.035 A 
HETATM   28  C   UNL     1      42.906 -16.625   3.081  1.00  0.00     0.012 A 
HETATM   29  C   UNL     1      43.144 -17.953   2.720  1.00  0.00     0.037 A 
HETATM   30  C   UNL     1      43.871 -18.797   3.558  1.00  0.00     0.068 A 
HETATM   31  C   UNL     1      44.317 -18.314   4.787  1.00  0.00     0.037 A 
HETATM   32  C   UNL     1      44.069 -16.985   5.156  1.00  0.00     0.012 A 
BRANCH  30  33
HETATM   33  O   UNL     1      44.060 -20.063   3.077  1.00  0.00    -0.356 OA
HETATM   34  C   UNL     1      43.455 -20.356   1.824  1.00  0.00     0.210 C 
ENDBRANCH  30  33
ENDBRANCH   1  27
BRANCH   8  35
HETATM   35  C   UNL     1      44.078 -11.998   6.150  1.00  0.00     0.409 C 
HETATM   36  F   UNL     1      45.230 -12.603   6.522  1.00  0.00    -0.169 F 
HETATM   37  F   UNL     1      44.215 -11.625   4.859  1.00  0.00    -0.169 F 
HETATM   38  F   UNL     1      43.996 -10.849   6.872  1.00  0.00    -0.169 F 
ENDBRANCH   8  35
TORSDOF 9
ENDMDL
