MODEL 1
REMARK VINA RESULT:      -9.0      0.000      0.000
REMARK  5 active torsions:
REMARK  status: ('A' for Active; 'I' for Inactive)
REMARK    1  A    between atoms: C_7  and  C_8 
REMARK    2  A    between atoms: C_16  and  C_17 
REMARK    3  A    between atoms: C_20  and  O_21 
REMARK    4  A    between atoms: C_24  and  C_25 
REMARK       I    between atoms: C_25  and  N_26 
REMARK    5  A    between atoms: N_26  and  C_27 
ROOT
HETATM    1  C   UNL     1      38.688 -10.004   1.723  1.00  0.00     0.070 C 
HETATM    2  C   UNL     1      39.931 -10.635   2.308  1.00  0.00     0.037 A 
HETATM    3  N   UNL     1      40.220 -10.258   3.617  1.00  0.00    -0.192 N 
HETATM    4  C   UNL     1      41.338 -10.620   4.266  1.00  0.00     0.726 A 
HETATM    5  N   UNL     1      42.210 -11.472   3.658  1.00  0.00    -0.083 N 
HETATM    6  N   UNL     1      43.337 -11.626   4.380  1.00  0.00    -0.135 NA
HETATM    7  C   UNL     1      43.040 -10.915   5.485  1.00  0.00     0.199 A 
HETATM    8  N   UNL     1      41.815 -10.272   5.431  1.00  0.00    -0.041 NA
HETATM    9  C   UNL     1      42.009 -12.036   2.318  1.00  0.00     0.202 A 
HETATM   10  C   UNL     1      40.759 -11.483   1.635  1.00  0.00     0.062 A 
HETATM   11  H   UNL     1      39.591  -9.598   4.066  1.00  0.00     0.184 HD
ENDROOT
BRANCH  10  12
HETATM   12  C   UNL     1      40.429 -11.928   0.235  1.00  0.00     0.256 C 
HETATM   13  N   UNL     1      39.362 -12.796   0.119  1.00  0.00    -0.323 N 
HETATM   14  H   UNL     1      38.788 -12.986   0.925  1.00  0.00     0.169 HD
HETATM   15  O   UNL     1      41.073 -11.483  -0.712  1.00  0.00    -0.267 OA
BRANCH  13  16
HETATM   16  C   UNL     1      38.913 -13.437  -1.060  1.00  0.00     0.035 A 
HETATM   17  C   UNL     1      39.399 -14.661  -1.521  1.00  0.00     0.029 A 
HETATM   18  C   UNL     1      38.875 -15.242  -2.681  1.00  0.00     0.002 A 
HETATM   19  C   UNL     1      37.866 -14.600  -3.393  1.00  0.00     0.000 A 
HETATM   20  C   UNL     1      37.374 -13.378  -2.944  1.00  0.00     0.002 A 
HETATM   21  C   UNL     1      37.891 -12.803  -1.780  1.00  0.00     0.029 A 
ENDBRANCH  13  16
ENDBRANCH  10  12
BRANCH   9  22
HETATM   22  C   UNL     1      42.056 -13.560   2.403  1.00  0.00    -0.028 A 
HETATM   23  C   UNL     1      41.049 -14.300   3.047  1.00  0.00     0.012 A 
HETATM   24  C   UNL     1      41.130 -15.693   3.130  1.00  0.00     0.037 A 
HETATM   25  C   UNL     1      42.225 -16.350   2.580  1.00  0.00     0.065 A 
HETATM   26  C   UNL     1      43.238 -15.640   1.952  1.00  0.00     0.037 A 
HETATM   27  C   UNL     1      43.158 -14.250   1.864  1.00  0.00     0.012 A 
BRANCH  25  28
HETATM   28  O   UNL     1      42.348 -17.706   2.648  1.00  0.00    -0.361 OA
HETATM   29  H   UNL     1      42.876 -17.931   3.432  1.00  0.00     0.217 HD
ENDBRANCH  25  28
ENDBRANCH   9  22
BRANCH   7  30
HETATM   30  C   UNL     1      43.927 -10.805   6.638  1.00  0.00     0.016 A 
HETATM   31  C   UNL     1      43.413 -10.536   7.915  1.00  0.00     0.039 A 
HETATM   32  C   UNL     1      44.272 -10.429   9.008  1.00  0.00     0.035 A 
HETATM   33 CL   UNL     1      43.630 -10.096  10.570  1.00  0.00    -0.084 Cl
HETATM   34  C   UNL     1      45.647 -10.587   8.849  1.00  0.00     0.024 A 
HETATM   35  C   UNL     1      46.169 -10.855   7.584  1.00  0.00     0.003 A 
HETATM   36  C   UNL     1      45.313 -10.962   6.485  1.00  0.00     0.015 A 
ENDBRANCH   7  30
TORSDOF 5
ENDMDL
MODEL 2
REMARK VINA RESULT:      -9.0      4.547      8.559
REMARK  5 active torsions:
REMARK  status: ('A' for Active; 'I' for Inactive)
REMARK    1  A    between atoms: C_7  and  C_8 
REMARK    2  A    between atoms: C_16  and  C_17 
REMARK    3  A    between atoms: C_20  and  O_21 
REMARK    4  A    between atoms: C_24  and  C_25 
REMARK       I    between atoms: C_25  and  N_26 
REMARK    5  A    between atoms: N_26  and  C_27 
ROOT
HETATM    1  C   UNL     1      39.535  -9.801   4.546  1.00  0.00     0.070 C 
HETATM    2  C   UNL     1      40.538 -10.867   4.927  1.00  0.00     0.037 A 
HETATM    3  N   UNL     1      40.693 -11.888   3.993  1.00  0.00    -0.192 N 
HETATM    4  C   UNL     1      41.447 -12.979   4.202  1.00  0.00     0.726 A 
HETATM    5  N   UNL     1      42.177 -13.070   5.348  1.00  0.00    -0.083 N 
HETATM    6  N   UNL     1      42.766 -14.276   5.466  1.00  0.00    -0.135 NA
HETATM    7  C   UNL     1      42.439 -14.844   4.289  1.00  0.00     0.199 A 
HETATM    8  N   UNL     1      41.611 -14.066   3.496  1.00  0.00    -0.041 NA
HETATM    9  C   UNL     1      42.200 -12.040   6.392  1.00  0.00     0.202 A 
HETATM   10  C   UNL     1      41.234 -10.892   6.098  1.00  0.00     0.062 A 
HETATM   11  H   UNL     1      40.127 -11.843   3.149  1.00  0.00     0.184 HD
ENDROOT
BRANCH  10  12
HETATM   12  C   UNL     1      41.103  -9.769   7.093  1.00  0.00     0.256 C 
HETATM   13  N   UNL     1      40.389 -10.065   8.237  1.00  0.00    -0.323 N 
HETATM   14  H   UNL     1      40.110 -11.017   8.415  1.00  0.00     0.169 HD
HETATM   15  O   UNL     1      41.652  -8.693   6.871  1.00  0.00    -0.267 OA
BRANCH  13  16
HETATM   16  C   UNL     1      40.036  -9.168   9.274  1.00  0.00     0.035 A 
HETATM   17  C   UNL     1      39.066  -8.173   9.153  1.00  0.00     0.029 A 
HETATM   18  C   UNL     1      38.755  -7.349  10.240  1.00  0.00     0.002 A 
HETATM   19  C   UNL     1      39.417  -7.508  11.454  1.00  0.00     0.000 A 
HETATM   20  C   UNL     1      40.389  -8.496  11.586  1.00  0.00     0.002 A 
HETATM   21  C   UNL     1      40.692  -9.325  10.503  1.00  0.00     0.029 A 
ENDBRANCH  13  16
ENDBRANCH  10  12
BRANCH   9  22
HETATM   22  C   UNL     1      43.642 -11.600   6.632  1.00  0.00    -0.028 A 
HETATM   23  C   UNL     1      44.599 -11.596   5.602  1.00  0.00     0.012 A 
HETATM   24  C   UNL     1      45.919 -11.212   5.856  1.00  0.00     0.037 A 
HETATM   25  C   UNL     1      46.290 -10.842   7.144  1.00  0.00     0.065 A 
HETATM   26  C   UNL     1      45.366 -10.851   8.180  1.00  0.00     0.037 A 
HETATM   27  C   UNL     1      44.048 -11.231   7.928  1.00  0.00     0.012 A 
BRANCH  25  28
HETATM   28  O   UNL     1      47.568 -10.470   7.437  1.00  0.00    -0.361 OA
HETATM   29  H   UNL     1      47.749  -9.618   7.007  1.00  0.00     0.217 HD
ENDBRANCH  25  28
ENDBRANCH   9  22
BRANCH   7  30
HETATM   30  C   UNL     1      42.891 -16.169   3.877  1.00  0.00     0.016 A 
HETATM   31  C   UNL     1      43.172 -17.159   4.829  1.00  0.00     0.039 A 
HETATM   32  C   UNL     1      43.607 -18.419   4.423  1.00  0.00     0.035 A 
HETATM   33 CL   UNL     1      43.951 -19.626   5.601  1.00  0.00    -0.084 Cl
HETATM   34  C   UNL     1      43.769 -18.713   3.070  1.00  0.00     0.024 A 
HETATM   35  C   UNL     1      43.493 -17.736   2.115  1.00  0.00     0.003 A 
HETATM   36  C   UNL     1      43.058 -16.470   2.517  1.00  0.00     0.015 A 
ENDBRANCH   7  30
TORSDOF 5
ENDMDL
MODEL 3
REMARK VINA RESULT:      -8.9      4.267      6.447
REMARK  5 active torsions:
REMARK  status: ('A' for Active; 'I' for Inactive)
REMARK    1  A    between atoms: C_7  and  C_8 
REMARK    2  A    between atoms: C_16  and  C_17 
REMARK    3  A    between atoms: C_20  and  O_21 
REMARK    4  A    between atoms: C_24  and  C_25 
REMARK       I    between atoms: C_25  and  N_26 
REMARK    5  A    between atoms: N_26  and  C_27 
ROOT
HETATM    1  C   UNL     1      39.624 -10.127   3.415  1.00  0.00     0.070 C 
HETATM    2  C   UNL     1      40.320 -11.290   2.743  1.00  0.00     0.037 A 
HETATM    3  N   UNL     1      40.501 -12.411   3.549  1.00  0.00    -0.192 N 
HETATM    4  C   UNL     1      41.197 -13.494   3.171  1.00  0.00     0.726 A 
HETATM    5  N   UNL     1      41.688 -13.556   1.902  1.00  0.00    -0.083 N 
HETATM    6  N   UNL     1      42.472 -14.638   1.726  1.00  0.00    -0.135 NA
HETATM    7  C   UNL     1      42.329 -15.262   2.911  1.00  0.00     0.199 A 
HETATM    8  N   UNL     1      41.557 -14.565   3.826  1.00  0.00    -0.041 NA
HETATM    9  C   UNL     1      41.505 -12.502   0.897  1.00  0.00     0.202 A 
HETATM   10  C   UNL     1      40.786 -11.278   1.462  1.00  0.00     0.062 A 
HETATM   11  H   UNL     1      40.166 -12.359   4.507  1.00  0.00     0.184 HD
ENDROOT
BRANCH  10  12
HETATM   12  C   UNL     1      40.555 -10.086   0.572  1.00  0.00     0.256 C 
HETATM   13  N   UNL     1      41.662  -9.295   0.334  1.00  0.00    -0.323 N 
HETATM   14  H   UNL     1      42.569  -9.607   0.641  1.00  0.00     0.169 HD
HETATM   15  O   UNL     1      39.445  -9.898   0.082  1.00  0.00    -0.267 OA
BRANCH  13  16
HETATM   16  C   UNL     1      41.695  -8.072  -0.379  1.00  0.00     0.035 A 
HETATM   17  C   UNL     1      41.046  -6.908   0.033  1.00  0.00     0.029 A 
HETATM   18  C   UNL     1      41.157  -5.731  -0.715  1.00  0.00     0.002 A 
HETATM   19  C   UNL     1      41.913  -5.710  -1.884  1.00  0.00     0.000 A 
HETATM   20  C   UNL     1      42.563  -6.867  -2.306  1.00  0.00     0.002 A 
HETATM   21  C   UNL     1      42.459  -8.039  -1.553  1.00  0.00     0.029 A 
ENDBRANCH  13  16
ENDBRANCH  10  12
BRANCH   9  22
HETATM   22  C   UNL     1      40.845 -13.100  -0.344  1.00  0.00    -0.028 A 
HETATM   23  C   UNL     1      41.121 -12.619  -1.636  1.00  0.00     0.012 A 
HETATM   24  C   UNL     1      40.484 -13.169  -2.752  1.00  0.00     0.037 A 
HETATM   25  C   UNL     1      39.561 -14.194  -2.579  1.00  0.00     0.065 A 
HETATM   26  C   UNL     1      39.263 -14.676  -1.312  1.00  0.00     0.037 A 
HETATM   27  C   UNL     1      39.900 -14.131  -0.197  1.00  0.00     0.012 A 
BRANCH  25  28
HETATM   28  O   UNL     1      38.910 -14.752  -3.639  1.00  0.00    -0.361 OA
HETATM   29  H   UNL     1      39.552 -14.901  -4.353  1.00  0.00     0.217 HD
ENDBRANCH  25  28
ENDBRANCH   9  22
BRANCH   7  30
HETATM   30  C   UNL     1      42.942 -16.547   3.228  1.00  0.00     0.016 A 
HETATM   31  C   UNL     1      42.839 -17.628   2.341  1.00  0.00     0.039 A 
HETATM   32  C   UNL     1      43.427 -18.853   2.657  1.00  0.00     0.035 A 
HETATM   33 CL   UNL     1      43.293 -20.174   1.561  1.00  0.00    -0.084 Cl
HETATM   34  C   UNL     1      44.120 -19.019   3.854  1.00  0.00     0.024 A 
HETATM   35  C   UNL     1      44.228 -17.951   4.743  1.00  0.00     0.003 A 
HETATM   36  C   UNL     1      43.641 -16.722   4.432  1.00  0.00     0.015 A 
ENDBRANCH   7  30
TORSDOF 5
ENDMDL
MODEL 4
REMARK VINA RESULT:      -8.9      3.669      6.186
REMARK  5 active torsions:
REMARK  status: ('A' for Active; 'I' for Inactive)
REMARK    1  A    between atoms: C_7  and  C_8 
REMARK    2  A    between atoms: C_16  and  C_17 
REMARK    3  A    between atoms: C_20  and  O_21 
REMARK    4  A    between atoms: C_24  and  C_25 
REMARK       I    between atoms: C_25  and  N_26 
REMARK    5  A    between atoms: N_26  and  C_27 
ROOT
HETATM    1  C   UNL     1      39.763 -15.831   1.119  1.00  0.00     0.070 C 
HETATM    2  C   UNL     1      40.244 -14.845   2.160  1.00  0.00     0.037 A 
HETATM    3  N   UNL     1      39.343 -13.827   2.466  1.00  0.00    -0.192 N 
HETATM    4  C   UNL     1      39.632 -12.797   3.276  1.00  0.00     0.726 A 
HETATM    5  N   UNL     1      40.836 -12.772   3.912  1.00  0.00    -0.083 N 
HETATM    6  N   UNL     1      41.023 -11.614   4.574  1.00  0.00    -0.135 NA
HETATM    7  C   UNL     1      39.833 -11.010   4.389  1.00  0.00     0.199 A 
HETATM    8  N   UNL     1      38.962 -11.717   3.576  1.00  0.00    -0.041 NA
HETATM    9  C   UNL     1      41.861 -13.813   3.774  1.00  0.00     0.202 A 
HETATM   10  C   UNL     1      41.469 -14.884   2.756  1.00  0.00     0.062 A 
HETATM   11  H   UNL     1      38.455 -13.822   1.971  1.00  0.00     0.184 HD
ENDROOT
BRANCH  10  12
HETATM   12  C   UNL     1      42.430 -16.006   2.463  1.00  0.00     0.256 C 
HETATM   13  N   UNL     1      42.163 -17.202   3.097  1.00  0.00    -0.323 N 
HETATM   14  H   UNL     1      41.299 -17.313   3.604  1.00  0.00     0.169 HD
HETATM   15  O   UNL     1      43.350 -15.826   1.670  1.00  0.00    -0.267 OA
BRANCH  13  16
HETATM   16  C   UNL     1      42.959 -18.373   3.072  1.00  0.00     0.035 A 
HETATM   17  C   UNL     1      43.862 -18.728   4.074  1.00  0.00     0.029 A 
HETATM   18  C   UNL     1      44.587 -19.921   3.987  1.00  0.00     0.002 A 
HETATM   19  C   UNL     1      44.419 -20.766   2.894  1.00  0.00     0.000 A 
HETATM   20  C   UNL     1      43.522 -20.422   1.887  1.00  0.00     0.002 A 
HETATM   21  C   UNL     1      42.791 -19.235   1.979  1.00  0.00     0.029 A 
ENDBRANCH  13  16
ENDBRANCH  10  12
BRANCH   9  22
HETATM   22  C   UNL     1      42.212 -14.359   5.156  1.00  0.00    -0.028 A 
HETATM   23  C   UNL     1      41.350 -15.224   5.854  1.00  0.00     0.012 A 
HETATM   24  C   UNL     1      41.686 -15.690   7.128  1.00  0.00     0.037 A 
HETATM   25  C   UNL     1      42.879 -15.283   7.715  1.00  0.00     0.065 A 
HETATM   26  C   UNL     1      43.738 -14.418   7.051  1.00  0.00     0.037 A 
HETATM   27  C   UNL     1      43.408 -13.955   5.778  1.00  0.00     0.012 A 
BRANCH  25  28
HETATM   28  O   UNL     1      43.240 -15.705   8.960  1.00  0.00    -0.361 OA
HETATM   29  H   UNL     1      43.782 -16.506   8.870  1.00  0.00     0.217 HD
ENDBRANCH  25  28
ENDBRANCH   9  22
BRANCH   7  30
HETATM   30  C   UNL     1      39.483  -9.718   4.967  1.00  0.00     0.016 A 
HETATM   31  C   UNL     1      38.220  -9.150   4.743  1.00  0.00     0.039 A 
HETATM   32  C   UNL     1      37.899  -7.912   5.299  1.00  0.00     0.035 A 
HETATM   33 CL   UNL     1      36.347  -7.225   5.015  1.00  0.00    -0.084 Cl
HETATM   34  C   UNL     1      38.825  -7.223   6.081  1.00  0.00     0.024 A 
HETATM   35  C   UNL     1      40.083  -7.778   6.310  1.00  0.00     0.003 A 
HETATM   36  C   UNL     1      40.410  -9.018   5.754  1.00  0.00     0.015 A 
ENDBRANCH   7  30
TORSDOF 5
ENDMDL
MODEL 5
REMARK VINA RESULT:      -8.9      3.218      6.383
REMARK  5 active torsions:
REMARK  status: ('A' for Active; 'I' for Inactive)
REMARK    1  A    between atoms: C_7  and  C_8 
REMARK    2  A    between atoms: C_16  and  C_17 
REMARK    3  A    between atoms: C_20  and  O_21 
REMARK    4  A    between atoms: C_24  and  C_25 
REMARK       I    between atoms: C_25  and  N_26 
REMARK    5  A    between atoms: N_26  and  C_27 
ROOT
HETATM    1  C   UNL     1      43.666 -14.251   7.061  1.00  0.00     0.070 C 
HETATM    2  C   UNL     1      42.514 -13.675   6.269  1.00  0.00     0.037 A 
HETATM    3  N   UNL     1      42.319 -12.306   6.428  1.00  0.00    -0.192 N 
HETATM    4  C   UNL     1      41.282 -11.636   5.900  1.00  0.00     0.726 A 
HETATM    5  N   UNL     1      40.409 -12.298   5.091  1.00  0.00    -0.083 N 
HETATM    6  N   UNL     1      39.358 -11.524   4.758  1.00  0.00    -0.135 NA
HETATM    7  C   UNL     1      39.709 -10.349   5.315  1.00  0.00     0.199 A 
HETATM    8  N   UNL     1      40.888 -10.398   6.040  1.00  0.00    -0.041 NA
HETATM    9  C   UNL     1      40.524 -13.719   4.746  1.00  0.00     0.202 A 
HETATM   10  C   UNL     1      41.679 -14.404   5.475  1.00  0.00     0.062 A 
HETATM   11  H   UNL     1      42.947 -11.811   7.056  1.00  0.00     0.184 HD
ENDROOT
BRANCH  10  12
HETATM   12  C   UNL     1      41.911 -15.877   5.265  1.00  0.00     0.256 C 
HETATM   13  N   UNL     1      42.911 -16.202   4.371  1.00  0.00    -0.323 N 
HETATM   14  H   UNL     1      43.509 -15.476   4.010  1.00  0.00     0.169 HD
HETATM   15  O   UNL     1      41.254 -16.693   5.906  1.00  0.00    -0.267 OA
BRANCH  13  16
HETATM   16  C   UNL     1      43.260 -17.499   3.922  1.00  0.00     0.035 A 
HETATM   17  C   UNL     1      43.940 -18.439   4.696  1.00  0.00     0.029 A 
HETATM   18  C   UNL     1      44.218 -19.712   4.185  1.00  0.00     0.002 A 
HETATM   19  C   UNL     1      43.823 -20.052   2.894  1.00  0.00     0.000 A 
HETATM   20  C   UNL     1      43.145 -19.121   2.112  1.00  0.00     0.002 A 
HETATM   21  C   UNL     1      42.860 -17.854   2.626  1.00  0.00     0.029 A 
ENDBRANCH  13  16
ENDBRANCH  10  12
BRANCH   9  22
HETATM   22  C   UNL     1      40.567 -13.865   3.226  1.00  0.00    -0.028 A 
HETATM   23  C   UNL     1      39.901 -14.909   2.560  1.00  0.00     0.012 A 
HETATM   24  C   UNL     1      39.979 -15.033   1.171  1.00  0.00     0.037 A 
HETATM   25  C   UNL     1      40.732 -14.120   0.441  1.00  0.00     0.065 A 
HETATM   26  C   UNL     1      41.409 -13.089   1.078  1.00  0.00     0.037 A 
HETATM   27  C   UNL     1      41.331 -12.961   2.465  1.00  0.00     0.012 A 
BRANCH  25  28
HETATM   28  O   UNL     1      40.842 -14.209  -0.914  1.00  0.00    -0.361 OA
HETATM   29  H   UNL     1      40.465 -13.405  -1.309  1.00  0.00     0.217 HD
ENDBRANCH  25  28
ENDBRANCH   9  22
BRANCH   7  30
HETATM   30  C   UNL     1      38.920  -9.128   5.195  1.00  0.00     0.016 A 
HETATM   31  C   UNL     1      38.866  -8.202   6.247  1.00  0.00     0.039 A 
HETATM   32  C   UNL     1      38.105  -7.041   6.120  1.00  0.00     0.035 A 
HETATM   33 CL   UNL     1      38.046  -5.912   7.419  1.00  0.00    -0.084 Cl
HETATM   34  C   UNL     1      37.389  -6.785   4.952  1.00  0.00     0.024 A 
HETATM   35  C   UNL     1      37.434  -7.699   3.901  1.00  0.00     0.003 A 
HETATM   36  C   UNL     1      38.195  -8.865   4.023  1.00  0.00     0.015 A 
ENDBRANCH   7  30
TORSDOF 5
ENDMDL
MODEL 6
REMARK VINA RESULT:      -8.8      4.408      8.084
REMARK  5 active torsions:
REMARK  status: ('A' for Active; 'I' for Inactive)
REMARK    1  A    between atoms: C_7  and  C_8 
REMARK    2  A    between atoms: C_16  and  C_17 
REMARK    3  A    between atoms: C_20  and  O_21 
REMARK    4  A    between atoms: C_24  and  C_25 
REMARK       I    between atoms: C_25  and  N_26 
REMARK    5  A    between atoms: N_26  and  C_27 
ROOT
HETATM    1  C   UNL     1      39.665 -10.999   3.056  1.00  0.00     0.070 C 
HETATM    2  C   UNL     1      40.578 -11.939   3.812  1.00  0.00     0.037 A 
HETATM    3  N   UNL     1      40.902 -13.113   3.138  1.00  0.00    -0.192 N 
HETATM    4  C   UNL     1      41.602 -14.117   3.688  1.00  0.00     0.726 A 
HETATM    5  N   UNL     1      42.106 -13.963   4.943  1.00  0.00    -0.083 N 
HETATM    6  N   UNL     1      42.660 -15.104   5.398  1.00  0.00    -0.135 NA
HETATM    7  C   UNL     1      42.558 -15.896   4.314  1.00  0.00     0.199 A 
HETATM    8  N   UNL     1      41.893 -15.313   3.248  1.00  0.00    -0.041 NA
HETATM    9  C   UNL     1      41.936 -12.753   5.755  1.00  0.00     0.202 A 
HETATM   10  C   UNL     1      41.044 -11.716   5.074  1.00  0.00     0.062 A 
HETATM   11  H   UNL     1      40.503 -13.248   2.213  1.00  0.00     0.184 HD
ENDROOT
BRANCH  10  12
HETATM   12  C   UNL     1      40.732 -10.429   5.792  1.00  0.00     0.256 C 
HETATM   13  N   UNL     1      41.659  -9.418   5.635  1.00  0.00    -0.323 N 
HETATM   14  H   UNL     1      42.407  -9.530   4.968  1.00  0.00     0.169 HD
HETATM   15  O   UNL     1      39.687 -10.325   6.427  1.00  0.00    -0.267 OA
BRANCH  13  16
HETATM   16  C   UNL     1      41.657  -8.156   6.277  1.00  0.00     0.035 A 
HETATM   17  C   UNL     1      41.029  -7.019   5.767  1.00  0.00     0.029 A 
HETATM   18  C   UNL     1      41.047  -5.817   6.483  1.00  0.00     0.002 A 
HETATM   19  C   UNL     1      41.699  -5.741   7.711  1.00  0.00     0.000 A 
HETATM   20  C   UNL     1      42.331  -6.869   8.228  1.00  0.00     0.002 A 
HETATM   21  C   UNL     1      42.304  -8.071   7.517  1.00  0.00     0.029 A 
ENDBRANCH  13  16
ENDBRANCH  10  12
BRANCH   9  22
HETATM   22  C   UNL     1      43.309 -12.226   6.166  1.00  0.00    -0.028 A 
HETATM   23  C   UNL     1      43.635 -11.967   7.509  1.00  0.00     0.012 A 
HETATM   24  C   UNL     1      44.891 -11.462   7.853  1.00  0.00     0.037 A 
HETATM   25  C   UNL     1      45.824 -11.203   6.855  1.00  0.00     0.065 A 
HETATM   26  C   UNL     1      45.521 -11.438   5.521  1.00  0.00     0.037 A 
HETATM   27  C   UNL     1      44.268 -11.945   5.175  1.00  0.00     0.012 A 
BRANCH  25  28
HETATM   28  O   UNL     1      47.058 -10.701   7.146  1.00  0.00    -0.361 OA
HETATM   29  H   UNL     1      47.200  -9.902   6.613  1.00  0.00     0.217 HD
ENDBRANCH  25  28
ENDBRANCH   9  22
BRANCH   7  30
HETATM   30  C   UNL     1      43.076 -17.259   4.256  1.00  0.00     0.016 A 
HETATM   31  C   UNL     1      43.081 -17.973   3.049  1.00  0.00     0.039 A 
HETATM   32  C   UNL     1      43.575 -19.276   3.008  1.00  0.00     0.035 A 
HETATM   33 CL   UNL     1      43.574 -20.144   1.521  1.00  0.00    -0.084 Cl
HETATM   34  C   UNL     1      44.070 -19.885   4.160  1.00  0.00     0.024 A 
HETATM   35  C   UNL     1      44.069 -19.184   5.365  1.00  0.00     0.003 A 
HETATM   36  C   UNL     1      43.574 -17.879   5.412  1.00  0.00     0.015 A 
ENDBRANCH   7  30
TORSDOF 5
ENDMDL
MODEL 7
REMARK VINA RESULT:      -8.6      3.856      7.285
REMARK  5 active torsions:
REMARK  status: ('A' for Active; 'I' for Inactive)
REMARK    1  A    between atoms: C_7  and  C_8 
REMARK    2  A    between atoms: C_16  and  C_17 
REMARK    3  A    between atoms: C_20  and  O_21 
REMARK    4  A    between atoms: C_24  and  C_25 
REMARK       I    between atoms: C_25  and  N_26 
REMARK    5  A    between atoms: N_26  and  C_27 
ROOT
HETATM    1  C   UNL     1      39.824 -15.648   0.432  1.00  0.00     0.070 C 
HETATM    2  C   UNL     1      40.436 -14.331   0.855  1.00  0.00     0.037 A 
HETATM    3  N   UNL     1      40.150 -13.256   0.018  1.00  0.00    -0.192 N 
HETATM    4  C   UNL     1      40.694 -12.037   0.162  1.00  0.00     0.726 A 
HETATM    5  N   UNL     1      41.505 -11.795   1.229  1.00  0.00    -0.083 N 
HETATM    6  N   UNL     1      42.073 -10.576   1.154  1.00  0.00    -0.135 NA
HETATM    7  C   UNL     1      41.475 -10.074   0.056  1.00  0.00     0.199 A 
HETATM    8  N   UNL     1      40.629 -10.966  -0.583  1.00  0.00    -0.041 NA
HETATM    9  C   UNL     1      41.832 -12.791   2.255  1.00  0.00     0.202 A 
HETATM   10  C   UNL     1      41.242 -14.165   1.942  1.00  0.00     0.062 A 
HETATM   11  H   UNL     1      39.572 -13.436  -0.798  1.00  0.00     0.184 HD
ENDROOT
BRANCH  10  12
HETATM   12  C   UNL     1      41.519 -15.315   2.874  1.00  0.00     0.256 C 
HETATM   13  N   UNL     1      42.789 -15.852   2.798  1.00  0.00    -0.323 N 
HETATM   14  H   UNL     1      43.490 -15.390   2.242  1.00  0.00     0.169 HD
HETATM   15  O   UNL     1      40.651 -15.683   3.661  1.00  0.00    -0.267 OA
BRANCH  13  16
HETATM   16  C   UNL     1      43.271 -16.992   3.486  1.00  0.00     0.035 A 
HETATM   17  C   UNL     1      43.503 -17.037   4.861  1.00  0.00     0.029 A 
HETATM   18  C   UNL     1      43.950 -18.216   5.468  1.00  0.00     0.002 A 
HETATM   19  C   UNL     1      44.175 -19.357   4.703  1.00  0.00     0.000 A 
HETATM   20  C   UNL     1      43.949 -19.323   3.329  1.00  0.00     0.002 A 
HETATM   21  C   UNL     1      43.493 -18.149   2.726  1.00  0.00     0.029 A 
ENDBRANCH  13  16
ENDBRANCH  10  12
BRANCH   9  22
HETATM   22  C   UNL     1      41.450 -12.243   3.629  1.00  0.00    -0.028 A 
HETATM   23  C   UNL     1      42.409 -12.021   4.633  1.00  0.00     0.012 A 
HETATM   24  C   UNL     1      42.028 -11.541   5.889  1.00  0.00     0.037 A 
HETATM   25  C   UNL     1      40.685 -11.292   6.150  1.00  0.00     0.065 A 
HETATM   26  C   UNL     1      39.719 -11.517   5.178  1.00  0.00     0.037 A 
HETATM   27  C   UNL     1      40.097 -11.993   3.923  1.00  0.00     0.012 A 
BRANCH  25  28
HETATM   28  O   UNL     1      40.268 -10.833   7.364  1.00  0.00    -0.361 OA
HETATM   29  H   UNL     1      39.299 -10.771   7.355  1.00  0.00     0.217 HD
ENDBRANCH  25  28
ENDBRANCH   9  22
BRANCH   7  30
HETATM   30  C   UNL     1      41.701  -8.722  -0.443  1.00  0.00     0.016 A 
HETATM   31  C   UNL     1      41.003  -7.632   0.097  1.00  0.00     0.039 A 
HETATM   32  C   UNL     1      41.226  -6.346  -0.391  1.00  0.00     0.035 A 
HETATM   33 CL   UNL     1      40.360  -5.016   0.278  1.00  0.00    -0.084 Cl
HETATM   34  C   UNL     1      42.141  -6.124  -1.418  1.00  0.00     0.024 A 
HETATM   35  C   UNL     1      42.841  -7.200  -1.962  1.00  0.00     0.003 A 
HETATM   36  C   UNL     1      42.621  -8.492  -1.477  1.00  0.00     0.015 A 
ENDBRANCH   7  30
TORSDOF 5
ENDMDL
MODEL 8
REMARK VINA RESULT:      -8.4      3.571      9.105
REMARK  5 active torsions:
REMARK  status: ('A' for Active; 'I' for Inactive)
REMARK    1  A    between atoms: C_7  and  C_8 
REMARK    2  A    between atoms: C_16  and  C_17 
REMARK    3  A    between atoms: C_20  and  O_21 
REMARK    4  A    between atoms: C_24  and  C_25 
REMARK       I    between atoms: C_25  and  N_26 
REMARK    5  A    between atoms: N_26  and  C_27 
ROOT
HETATM    1  C   UNL     1      43.269 -16.070   5.256  1.00  0.00     0.070 C 
HETATM    2  C   UNL     1      42.554 -15.074   4.371  1.00  0.00     0.037 A 
HETATM    3  N   UNL     1      41.925 -15.625   3.257  1.00  0.00    -0.192 N 
HETATM    4  C   UNL     1      41.339 -14.893   2.297  1.00  0.00     0.726 A 
HETATM    5  N   UNL     1      41.270 -13.541   2.443  1.00  0.00    -0.083 N 
HETATM    6  N   UNL     1      40.779 -12.947   1.338  1.00  0.00    -0.135 NA
HETATM    7  C   UNL     1      40.462 -14.017   0.584  1.00  0.00     0.199 A 
HETATM    8  N   UNL     1      40.813 -15.232   1.150  1.00  0.00    -0.041 NA
HETATM    9  C   UNL     1      41.799 -12.812   3.601  1.00  0.00     0.202 A 
HETATM   10  C   UNL     1      42.528 -13.728   4.583  1.00  0.00     0.062 A 
HETATM   11  H   UNL     1      42.000 -16.630   3.125  1.00  0.00     0.184 HD
ENDROOT
BRANCH  10  12
HETATM   12  C   UNL     1      43.169 -13.131   5.808  1.00  0.00     0.256 C 
HETATM   13  N   UNL     1      43.753 -11.892   5.632  1.00  0.00    -0.323 N 
HETATM   14  H   UNL     1      43.616 -11.398   4.765  1.00  0.00     0.169 HD
HETATM   15  O   UNL     1      43.112 -13.731   6.877  1.00  0.00    -0.267 OA
BRANCH  13  16
HETATM   16  C   UNL     1      44.502 -11.164   6.587  1.00  0.00     0.035 A 
HETATM   17  C   UNL     1      45.888 -11.249   6.726  1.00  0.00     0.029 A 
HETATM   18  C   UNL     1      46.556 -10.468   7.676  1.00  0.00     0.002 A 
HETATM   19  C   UNL     1      45.843  -9.601   8.499  1.00  0.00     0.000 A 
HETATM   20  C   UNL     1      44.460  -9.509   8.370  1.00  0.00     0.002 A 
HETATM   21  C   UNL     1      43.794 -10.281   7.415  1.00  0.00     0.029 A 
ENDBRANCH  13  16
ENDBRANCH  10  12
BRANCH   9  22
HETATM   22  C   UNL     1      40.679 -11.984   4.228  1.00  0.00    -0.028 A 
HETATM   23  C   UNL     1      39.719 -12.559   5.080  1.00  0.00     0.012 A 
HETATM   24  C   UNL     1      38.690 -11.782   5.621  1.00  0.00     0.037 A 
HETATM   25  C   UNL     1      38.610 -10.431   5.303  1.00  0.00     0.065 A 
HETATM   26  C   UNL     1      39.538  -9.845   4.453  1.00  0.00     0.037 A 
HETATM   27  C   UNL     1      40.568 -10.617   3.915  1.00  0.00     0.012 A 
BRANCH  25  28
HETATM   28  O   UNL     1      37.618  -9.640   5.800  1.00  0.00    -0.361 OA
HETATM   29  H   UNL     1      37.674  -9.646   6.770  1.00  0.00     0.217 HD
ENDBRANCH  25  28
ENDBRANCH   9  22
BRANCH   7  30
HETATM   30  C   UNL     1      39.824 -13.924  -0.725  1.00  0.00     0.016 A 
HETATM   31  C   UNL     1      39.636 -12.679  -1.344  1.00  0.00     0.039 A 
HETATM   32  C   UNL     1      39.021 -12.604  -2.593  1.00  0.00     0.035 A 
HETATM   33 CL   UNL     1      38.795 -11.070  -3.343  1.00  0.00    -0.084 Cl
HETATM   34  C   UNL     1      38.586 -13.758  -3.242  1.00  0.00     0.024 A 
HETATM   35  C   UNL     1      38.767 -15.000  -2.636  1.00  0.00     0.003 A 
HETATM   36  C   UNL     1      39.382 -15.081  -1.383  1.00  0.00     0.015 A 
ENDBRANCH   7  30
TORSDOF 5
ENDMDL
MODEL 9
REMARK VINA RESULT:      -8.3      3.743      9.391
REMARK  5 active torsions:
REMARK  status: ('A' for Active; 'I' for Inactive)
REMARK    1  A    between atoms: C_7  and  C_8 
REMARK    2  A    between atoms: C_16  and  C_17 
REMARK    3  A    between atoms: C_20  and  O_21 
REMARK    4  A    between atoms: C_24  and  C_25 
REMARK       I    between atoms: C_25  and  N_26 
REMARK    5  A    between atoms: N_26  and  C_27 
ROOT
HETATM    1  C   UNL     1      43.938 -14.086   6.761  1.00  0.00     0.070 C 
HETATM    2  C   UNL     1      43.255 -13.307   5.659  1.00  0.00     0.037 A 
HETATM    3  N   UNL     1      42.698 -14.086   4.648  1.00  0.00    -0.192 N 
HETATM    4  C   UNL     1      42.153 -13.577   3.533  1.00  0.00     0.726 A 
HETATM    5  N   UNL     1      42.052 -12.225   3.402  1.00  0.00    -0.083 N 
HETATM    6  N   UNL     1      41.611 -11.876   2.177  1.00  0.00    -0.135 NA
HETATM    7  C   UNL     1      41.355 -13.083   1.637  1.00  0.00     0.199 A 
HETATM    8  N   UNL     1      41.696 -14.151   2.451  1.00  0.00    -0.041 NA
HETATM    9  C   UNL     1      42.504 -11.265   4.415  1.00  0.00     0.202 A 
HETATM   10  C   UNL     1      43.194 -11.947   5.596  1.00  0.00     0.062 A 
HETATM   11  H   UNL     1      42.797 -15.095   4.723  1.00  0.00     0.184 HD
ENDROOT
BRANCH  10  12
HETATM   12  C   UNL     1      43.757 -11.101   6.707  1.00  0.00     0.256 C 
HETATM   13  N   UNL     1      42.884 -10.811   7.737  1.00  0.00    -0.323 N 
HETATM   14  H   UNL     1      41.987 -11.267   7.770  1.00  0.00     0.169 HD
HETATM   15  O   UNL     1      44.934 -10.753   6.670  1.00  0.00    -0.267 OA
BRANCH  13  16
HETATM   16  C   UNL     1      43.128  -9.960   8.842  1.00  0.00     0.035 A 
HETATM   17  C   UNL     1      42.762  -8.614   8.891  1.00  0.00     0.029 A 
HETATM   18  C   UNL     1      43.011  -7.852  10.037  1.00  0.00     0.002 A 
HETATM   19  C   UNL     1      43.634  -8.427  11.141  1.00  0.00     0.000 A 
HETATM   20  C   UNL     1      44.006  -9.768  11.103  1.00  0.00     0.002 A 
HETATM   21  C   UNL     1      43.748 -10.531   9.962  1.00  0.00     0.029 A 
ENDBRANCH  13  16
ENDBRANCH  10  12
BRANCH   9  22
HETATM   22  C   UNL     1      41.337 -10.361   4.808  1.00  0.00    -0.028 A 
HETATM   23  C   UNL     1      41.412  -8.961   4.698  1.00  0.00     0.012 A 
HETATM   24  C   UNL     1      40.337  -8.157   5.088  1.00  0.00     0.037 A 
HETATM   25  C   UNL     1      39.187  -8.749   5.600  1.00  0.00     0.065 A 
HETATM   26  C   UNL     1      39.096 -10.128   5.730  1.00  0.00     0.037 A 
HETATM   27  C   UNL     1      40.166 -10.933   5.338  1.00  0.00     0.012 A 
BRANCH  25  28
HETATM   28  O   UNL     1      38.120  -8.002   6.000  1.00  0.00    -0.361 OA
HETATM   29  H   UNL     1      37.482  -7.956   5.269  1.00  0.00     0.217 HD
ENDBRANCH  25  28
ENDBRANCH   9  22
BRANCH   7  30
HETATM   30  C   UNL     1      40.788 -13.270   0.306  1.00  0.00     0.016 A 
HETATM   31  C   UNL     1      40.992 -12.315  -0.701  1.00  0.00     0.039 A 
HETATM   32  C   UNL     1      40.442 -12.504  -1.968  1.00  0.00     0.035 A 
HETATM   33 CL   UNL     1      40.698 -11.324  -3.195  1.00  0.00    -0.084 Cl
HETATM   34  C   UNL     1      39.683 -13.638  -2.251  1.00  0.00     0.024 A 
HETATM   35  C   UNL     1      39.473 -14.593  -1.258  1.00  0.00     0.003 A 
HETATM   36  C   UNL     1      40.022 -14.409   0.014  1.00  0.00     0.015 A 
ENDBRANCH   7  30
TORSDOF 5
ENDMDL
MODEL 10
REMARK VINA RESULT:      -8.1      4.197      6.458
REMARK  5 active torsions:
REMARK  status: ('A' for Active; 'I' for Inactive)
REMARK    1  A    between atoms: C_7  and  C_8 
REMARK    2  A    between atoms: C_16  and  C_17 
REMARK    3  A    between atoms: C_20  and  O_21 
REMARK    4  A    between atoms: C_24  and  C_25 
REMARK       I    between atoms: C_25  and  N_26 
REMARK    5  A    between atoms: N_26  and  C_27 
ROOT
HETATM    1  C   UNL     1      39.235 -11.794   5.893  1.00  0.00     0.070 C 
HETATM    2  C   UNL     1      40.084 -12.651   4.981  1.00  0.00     0.037 A 
HETATM    3  N   UNL     1      40.248 -13.969   5.400  1.00  0.00    -0.192 N 
HETATM    4  C   UNL     1      41.058 -14.848   4.788  1.00  0.00     0.726 A 
HETATM    5  N   UNL     1      41.695 -14.476   3.644  1.00  0.00    -0.083 N 
HETATM    6  N   UNL     1      42.568 -15.417   3.235  1.00  0.00    -0.135 NA
HETATM    7  C   UNL     1      42.333 -16.399   4.126  1.00  0.00     0.199 A 
HETATM    8  N   UNL     1      41.413 -16.064   5.106  1.00  0.00    -0.041 NA
HETATM    9  C   UNL     1      41.557 -13.156   3.017  1.00  0.00     0.202 A 
HETATM   10  C   UNL     1      40.693 -12.206   3.846  1.00  0.00     0.062 A 
HETATM   11  H   UNL     1      39.801 -14.244   6.270  1.00  0.00     0.184 HD
ENDROOT
BRANCH  10  12
HETATM   12  C   UNL     1      40.484 -10.794   3.365  1.00  0.00     0.256 C 
HETATM   13  N   UNL     1      39.259 -10.537   2.782  1.00  0.00    -0.323 N 
HETATM   14  H   UNL     1      38.536 -11.238   2.820  1.00  0.00     0.169 HD
HETATM   15  O   UNL     1      41.363  -9.955   3.543  1.00  0.00    -0.267 OA
BRANCH  13  16
HETATM   16  C   UNL     1      38.850  -9.332   2.163  1.00  0.00     0.035 A 
HETATM   17  C   UNL     1      38.226  -8.279   2.833  1.00  0.00     0.029 A 
HETATM   18  C   UNL     1      37.883  -7.107   2.151  1.00  0.00     0.002 A 
HETATM   19  C   UNL     1      38.154  -6.981   0.791  1.00  0.00     0.000 A 
HETATM   20  C   UNL     1      38.774  -8.026   0.111  1.00  0.00     0.002 A 
HETATM   21  C   UNL     1      39.125  -9.193   0.795  1.00  0.00     0.029 A 
ENDBRANCH  13  16
ENDBRANCH  10  12
BRANCH   9  22
HETATM   22  C   UNL     1      41.090 -13.332   1.574  1.00  0.00    -0.028 A 
HETATM   23  C   UNL     1      41.345 -12.363   0.588  1.00  0.00     0.012 A 
HETATM   24  C   UNL     1      40.884 -12.538  -0.720  1.00  0.00     0.037 A 
HETATM   25  C   UNL     1      40.156 -13.677  -1.044  1.00  0.00     0.065 A 
HETATM   26  C   UNL     1      39.879 -14.641  -0.084  1.00  0.00     0.037 A 
HETATM   27  C   UNL     1      40.341 -14.470   1.222  1.00  0.00     0.012 A 
BRANCH  25  28
HETATM   28  O   UNL     1      39.679 -13.883  -2.304  1.00  0.00    -0.361 OA
HETATM   29  H   UNL     1      40.323 -13.529  -2.940  1.00  0.00     0.217 HD
ENDBRANCH  25  28
ENDBRANCH   9  22
BRANCH   7  30
HETATM   30  C   UNL     1      42.994 -17.699   4.090  1.00  0.00     0.016 A 
HETATM   31  C   UNL     1      43.116 -18.409   2.886  1.00  0.00     0.039 A 
HETATM   32  C   UNL     1      43.746 -19.652   2.867  1.00  0.00     0.035 A 
HETATM   33 CL   UNL     1      43.889 -20.515   1.383  1.00  0.00    -0.084 Cl
HETATM   34  C   UNL     1      44.261 -20.206   4.037  1.00  0.00     0.024 A 
HETATM   35  C   UNL     1      44.145 -19.510   5.239  1.00  0.00     0.003 A 
HETATM   36  C   UNL     1      43.513 -18.264   5.265  1.00  0.00     0.015 A 
ENDBRANCH   7  30
TORSDOF 5
ENDMDL
