MODEL 1
REMARK VINA RESULT:      -8.7      0.000      0.000
REMARK  8 active torsions:
REMARK  status: ('A' for Active; 'I' for Inactive)
REMARK    1  A    between atoms: C_2  and  C_3 
REMARK    2  A    between atoms: C_6  and  N_7 
REMARK       I    between atoms: N_7  and  C_8 
REMARK    3  A    between atoms: C_8  and  C_9 
REMARK    4  A    between atoms: C_9  and  N_10 
REMARK    5  A    between atoms: C_13  and  C_14 
REMARK       I    between atoms: C_14  and  N_15 
REMARK    6  A    between atoms: N_15  and  C_16 
REMARK    7  A    between atoms: C_17  and  O_18 
REMARK    8  A    between atoms: C_26  and  N_27 
ROOT
HETATM    1  N   UNL     1      43.617 -12.210   6.455  1.00  0.00    -0.248 N 
HETATM    2  N   UNL     1      43.851 -12.915   7.587  1.00  0.00     0.007 NA
HETATM    3  N   UNL     1      43.495 -14.166   7.357  1.00  0.00    -0.150 NA
HETATM    4  C   UNL     1      42.988 -14.247   6.077  1.00  0.00     0.187 A 
HETATM    5  C   UNL     1      43.053 -12.996   5.483  1.00  0.00     0.151 A 
ENDROOT
BRANCH   1   6
HETATM    6  C   UNL     1      44.022 -10.823   6.408  1.00  0.00     0.251 C 
BRANCH   6   7
HETATM    7  C   UNL     1      44.323 -10.256   7.785  1.00  0.00     0.241 C 
HETATM    8  N   UNL     1      43.218 -10.144   8.613  1.00  0.00    -0.326 N 
HETATM    9  H   UNL     1      42.348 -10.553   8.269  1.00  0.00     0.169 HD
HETATM   10  O   UNL     1      45.463  -9.880   8.053  1.00  0.00    -0.271 OA
BRANCH   8  11
HETATM   11  C   UNL     1      43.146  -9.599   9.910  1.00  0.00     0.034 A 
HETATM   12  C   UNL     1      43.187 -10.353  11.081  1.00  0.00     0.030 A 
HETATM   13  C   UNL     1      43.128  -9.720  12.330  1.00  0.00     0.009 A 
HETATM   14  C   UNL     1      43.018  -8.328  12.426  1.00  0.00    -0.058 A 
HETATM   15  C   UNL     1      42.978  -7.574  11.248  1.00  0.00     0.009 A 
HETATM   16  C   UNL     1      43.044  -8.205  10.004  1.00  0.00     0.030 A 
BRANCH  14  17
HETATM   17  C   UNL     1      42.978  -7.650  13.771  1.00  0.00     0.034 C 
HETATM   18  C   UNL     1      42.015  -8.343  14.723  1.00  0.00     0.010 C 
ENDBRANCH  14  17
ENDBRANCH   8  11
ENDBRANCH   6   7
ENDBRANCH   1   6
BRANCH   5  19
HETATM   19  N   UNL     1      42.696 -12.557   4.256  1.00  0.00    -0.382 N 
HETATM   20  H   UNL     1      43.397 -12.084   3.678  1.00  0.00     0.157 HD
HETATM   21  H   UNL     1      41.743 -12.388   3.947  1.00  0.00     0.157 HD
ENDBRANCH   5  19
BRANCH   4  22
HETATM   22  C   UNL     1      42.522 -15.507   5.498  1.00  0.00     0.280 C 
HETATM   23  N   UNL     1      43.564 -16.197   4.903  1.00  0.00    -0.319 N 
HETATM   24  H   UNL     1      44.417 -15.655   4.812  1.00  0.00     0.169 HD
HETATM   25  O   UNL     1      41.336 -15.814   5.508  1.00  0.00    -0.265 OA
BRANCH  23  26
HETATM   26  C   UNL     1      43.520 -17.420   4.204  1.00  0.00     0.069 A 
HETATM   27  C   UNL     1      43.066 -17.606   2.892  1.00  0.00     0.095 A 
HETATM   28  C   UNL     1      43.157 -18.863   2.283  1.00  0.00     0.039 A 
HETATM   29  C   UNL     1      43.642 -19.961   2.994  1.00  0.00     0.009 A 
HETATM   30  C   UNL     1      44.042 -19.813   4.322  1.00  0.00    -0.060 A 
HETATM   31  C   UNL     1      44.549 -20.983   5.113  1.00  0.00     0.048 C 
HETATM   32  C   UNL     1      43.964 -18.546   4.920  1.00  0.00     0.039 A 
BRANCH  27  33
HETATM   33  O   UNL     1      42.480 -16.629   2.134  1.00  0.00    -0.354 OA
HETATM   34  C   UNL     1      43.470 -15.800   1.525  1.00  0.00     0.210 C 
ENDBRANCH  27  33
ENDBRANCH  23  26
ENDBRANCH   4  22
TORSDOF 8
ENDMDL
MODEL 2
REMARK VINA RESULT:      -8.5      2.064      3.050
REMARK  8 active torsions:
REMARK  status: ('A' for Active; 'I' for Inactive)
REMARK    1  A    between atoms: C_2  and  C_3 
REMARK    2  A    between atoms: C_6  and  N_7 
REMARK       I    between atoms: N_7  and  C_8 
REMARK    3  A    between atoms: C_8  and  C_9 
REMARK    4  A    between atoms: C_9  and  N_10 
REMARK    5  A    between atoms: C_13  and  C_14 
REMARK       I    between atoms: C_14  and  N_15 
REMARK    6  A    between atoms: N_15  and  C_16 
REMARK    7  A    between atoms: C_17  and  O_18 
REMARK    8  A    between atoms: C_26  and  N_27 
ROOT
HETATM    1  N   UNL     1      44.621 -10.501   7.553  1.00  0.00    -0.248 N 
HETATM    2  N   UNL     1      43.283 -10.524   7.754  1.00  0.00     0.007 NA
HETATM    3  N   UNL     1      42.740 -11.183   6.746  1.00  0.00    -0.150 NA
HETATM    4  C   UNL     1      43.743 -11.543   5.871  1.00  0.00     0.187 A 
HETATM    5  C   UNL     1      44.961 -11.108   6.371  1.00  0.00     0.151 A 
ENDROOT
BRANCH   1   6
HETATM    6  C   UNL     1      45.465  -9.924   8.576  1.00  0.00     0.251 C 
BRANCH   6   7
HETATM    7  C   UNL     1      44.887 -10.092   9.971  1.00  0.00     0.241 C 
HETATM    8  N   UNL     1      43.881  -9.194  10.287  1.00  0.00    -0.326 N 
HETATM    9  H   UNL     1      43.550  -8.596   9.528  1.00  0.00     0.169 HD
HETATM   10  O   UNL     1      45.368 -10.929  10.733  1.00  0.00    -0.271 OA
BRANCH   8  11
HETATM   11  C   UNL     1      43.195  -9.040  11.507  1.00  0.00     0.034 A 
HETATM   12  C   UNL     1      42.156  -9.865  11.934  1.00  0.00     0.030 A 
HETATM   13  C   UNL     1      41.545  -9.646  13.175  1.00  0.00     0.009 A 
HETATM   14  C   UNL     1      41.955  -8.594  14.002  1.00  0.00    -0.058 A 
HETATM   15  C   UNL     1      42.999  -7.768  13.573  1.00  0.00     0.009 A 
HETATM   16  C   UNL     1      43.613  -7.992  12.337  1.00  0.00     0.030 A 
BRANCH  14  17
HETATM   17  C   UNL     1      41.310  -8.376  15.346  1.00  0.00     0.034 C 
HETATM   18  C   UNL     1      41.955  -7.223  16.101  1.00  0.00     0.010 C 
ENDBRANCH  14  17
ENDBRANCH   8  11
ENDBRANCH   6   7
ENDBRANCH   1   6
BRANCH   5  19
HETATM   19  N   UNL     1      46.223 -11.218   5.902  1.00  0.00    -0.382 N 
HETATM   20  H   UNL     1      46.365 -11.369   4.898  1.00  0.00     0.157 HD
HETATM   21  H   UNL     1      47.039 -11.450   6.460  1.00  0.00     0.157 HD
ENDBRANCH   5  19
BRANCH   4  22
HETATM   22  C   UNL     1      43.481 -12.310   4.653  1.00  0.00     0.280 C 
HETATM   23  N   UNL     1      42.770 -13.464   4.934  1.00  0.00    -0.319 N 
HETATM   24  H   UNL     1      42.703 -13.674   5.925  1.00  0.00     0.169 HD
HETATM   25  O   UNL     1      43.926 -11.957   3.568  1.00  0.00    -0.265 OA
BRANCH  23  26
HETATM   26  C   UNL     1      42.364 -14.482   4.048  1.00  0.00     0.069 A 
HETATM   27  C   UNL     1      41.304 -14.410   3.137  1.00  0.00     0.095 A 
HETATM   28  C   UNL     1      41.060 -15.466   2.250  1.00  0.00     0.039 A 
HETATM   29  C   UNL     1      41.829 -16.628   2.303  1.00  0.00     0.009 A 
HETATM   30  C   UNL     1      42.851 -16.747   3.245  1.00  0.00    -0.060 A 
HETATM   31  C   UNL     1      43.681 -17.994   3.333  1.00  0.00     0.048 C 
HETATM   32  C   UNL     1      43.101 -15.678   4.118  1.00  0.00     0.039 A 
BRANCH  27  33
HETATM   33  O   UNL     1      40.422 -13.366   3.062  1.00  0.00    -0.354 OA
HETATM   34  C   UNL     1      40.734 -12.520   1.956  1.00  0.00     0.210 C 
ENDBRANCH  27  33
ENDBRANCH  23  26
ENDBRANCH   4  22
TORSDOF 8
ENDMDL
MODEL 3
REMARK VINA RESULT:      -8.3      1.964      3.412
REMARK  8 active torsions:
REMARK  status: ('A' for Active; 'I' for Inactive)
REMARK    1  A    between atoms: C_2  and  C_3 
REMARK    2  A    between atoms: C_6  and  N_7 
REMARK       I    between atoms: N_7  and  C_8 
REMARK    3  A    between atoms: C_8  and  C_9 
REMARK    4  A    between atoms: C_9  and  N_10 
REMARK    5  A    between atoms: C_13  and  C_14 
REMARK       I    between atoms: C_14  and  N_15 
REMARK    6  A    between atoms: N_15  and  C_16 
REMARK    7  A    between atoms: C_17  and  O_18 
REMARK    8  A    between atoms: C_26  and  N_27 
ROOT
HETATM    1  N   UNL     1      44.591 -10.466   7.576  1.00  0.00    -0.248 N 
HETATM    2  N   UNL     1      43.248 -10.487   7.736  1.00  0.00     0.007 NA
HETATM    3  N   UNL     1      42.739 -11.190   6.740  1.00  0.00    -0.150 NA
HETATM    4  C   UNL     1      43.771 -11.583   5.913  1.00  0.00     0.187 A 
HETATM    5  C   UNL     1      44.970 -11.121   6.432  1.00  0.00     0.151 A 
ENDROOT
BRANCH   1   6
HETATM    6  C   UNL     1      45.401  -9.842   8.599  1.00  0.00     0.251 C 
BRANCH   6   7
HETATM    7  C   UNL     1      44.831 -10.039   9.994  1.00  0.00     0.241 C 
HETATM    8  N   UNL     1      43.871  -9.109  10.358  1.00  0.00    -0.326 N 
HETATM    9  H   UNL     1      43.561  -8.466   9.628  1.00  0.00     0.169 HD
HETATM   10  O   UNL     1      45.280 -10.928  10.716  1.00  0.00    -0.271 OA
BRANCH   8  11
HETATM   11  C   UNL     1      43.206  -8.972  11.592  1.00  0.00     0.034 A 
HETATM   12  C   UNL     1      42.200  -9.825  12.040  1.00  0.00     0.030 A 
HETATM   13  C   UNL     1      41.608  -9.622  13.293  1.00  0.00     0.009 A 
HETATM   14  C   UNL     1      42.007  -8.559  14.112  1.00  0.00    -0.058 A 
HETATM   15  C   UNL     1      43.018  -7.705  13.661  1.00  0.00     0.009 A 
HETATM   16  C   UNL     1      43.613  -7.912  12.413  1.00  0.00     0.030 A 
BRANCH  14  17
HETATM   17  C   UNL     1      41.383  -8.356  15.469  1.00  0.00     0.034 C 
HETATM   18  C   UNL     1      40.564  -7.076  15.529  1.00  0.00     0.010 C 
ENDBRANCH  14  17
ENDBRANCH   8  11
ENDBRANCH   6   7
ENDBRANCH   1   6
BRANCH   5  19
HETATM   19  N   UNL     1      46.247 -11.244   6.008  1.00  0.00    -0.382 N 
HETATM   20  H   UNL     1      46.978 -10.703   6.481  1.00  0.00     0.157 HD
HETATM   21  H   UNL     1      46.532 -11.590   5.096  1.00  0.00     0.157 HD
ENDBRANCH   5  19
BRANCH   4  22
HETATM   22  C   UNL     1      43.549 -12.402   4.721  1.00  0.00     0.280 C 
HETATM   23  N   UNL     1      42.906 -13.585   5.043  1.00  0.00    -0.319 N 
HETATM   24  H   UNL     1      42.854 -13.767   6.039  1.00  0.00     0.169 HD
HETATM   25  O   UNL     1      43.970 -12.059   3.624  1.00  0.00    -0.265 OA
BRANCH  23  26
HETATM   26  C   UNL     1      42.557 -14.652   4.191  1.00  0.00     0.069 A 
HETATM   27  C   UNL     1      43.054 -15.960   4.256  1.00  0.00     0.095 A 
HETATM   28  C   UNL     1      42.557 -16.950   3.401  1.00  0.00     0.039 A 
HETATM   29  C   UNL     1      41.605 -16.636   2.431  1.00  0.00     0.009 A 
HETATM   30  C   UNL     1      41.140 -15.326   2.306  1.00  0.00    -0.060 A 
HETATM   31  C   UNL     1      40.130 -14.960   1.259  1.00  0.00     0.048 C 
HETATM   32  C   UNL     1      41.630 -14.343   3.179  1.00  0.00     0.039 A 
BRANCH  27  33
HETATM   33  O   UNL     1      44.058 -16.361   5.096  1.00  0.00    -0.354 OA
HETATM   34  C   UNL     1      44.309 -17.758   4.950  1.00  0.00     0.210 C 
ENDBRANCH  27  33
ENDBRANCH  23  26
ENDBRANCH   4  22
TORSDOF 8
ENDMDL
MODEL 4
REMARK VINA RESULT:      -8.3      1.748      9.990
REMARK  8 active torsions:
REMARK  status: ('A' for Active; 'I' for Inactive)
REMARK    1  A    between atoms: C_2  and  C_3 
REMARK    2  A    between atoms: C_6  and  N_7 
REMARK       I    between atoms: N_7  and  C_8 
REMARK    3  A    between atoms: C_8  and  C_9 
REMARK    4  A    between atoms: C_9  and  N_10 
REMARK    5  A    between atoms: C_13  and  C_14 
REMARK       I    between atoms: C_14  and  N_15 
REMARK    6  A    between atoms: N_15  and  C_16 
REMARK    7  A    between atoms: C_17  and  O_18 
REMARK    8  A    between atoms: C_26  and  N_27 
ROOT
HETATM    1  N   UNL     1      42.639 -12.156   3.822  1.00  0.00    -0.248 N 
HETATM    2  N   UNL     1      43.829 -11.709   3.357  1.00  0.00     0.007 NA
HETATM    3  N   UNL     1      44.503 -11.228   4.387  1.00  0.00    -0.150 NA
HETATM    4  C   UNL     1      43.712 -11.332   5.512  1.00  0.00     0.187 A 
HETATM    5  C   UNL     1      42.506 -11.921   5.167  1.00  0.00     0.151 A 
ENDROOT
BRANCH   1   6
HETATM    6  C   UNL     1      41.747 -12.830   2.905  1.00  0.00     0.251 C 
BRANCH   6   7
HETATM    7  C   UNL     1      41.683 -14.328   3.149  1.00  0.00     0.241 C 
HETATM    8  N   UNL     1      42.918 -14.955   3.200  1.00  0.00    -0.326 N 
HETATM    9  H   UNL     1      43.737 -14.346   3.187  1.00  0.00     0.169 HD
HETATM   10  O   UNL     1      40.590 -14.889   3.215  1.00  0.00    -0.271 OA
BRANCH   8  11
HETATM   11  C   UNL     1      43.200 -16.327   3.341  1.00  0.00     0.034 A 
HETATM   12  C   UNL     1      43.684 -16.914   4.508  1.00  0.00     0.030 A 
HETATM   13  C   UNL     1      43.917 -18.294   4.560  1.00  0.00     0.009 A 
HETATM   14  C   UNL     1      43.679 -19.106   3.445  1.00  0.00    -0.058 A 
HETATM   15  C   UNL     1      43.191 -18.515   2.275  1.00  0.00     0.009 A 
HETATM   16  C   UNL     1      42.952 -17.139   2.226  1.00  0.00     0.030 A 
BRANCH  14  17
HETATM   17  C   UNL     1      43.909 -20.593   3.512  1.00  0.00     0.034 C 
HETATM   18  C   UNL     1      43.899 -21.102   4.946  1.00  0.00     0.010 C 
ENDBRANCH  14  17
ENDBRANCH   8  11
ENDBRANCH   6   7
ENDBRANCH   1   6
BRANCH   5  19
HETATM   19  N   UNL     1      41.415 -12.245   5.895  1.00  0.00    -0.382 N 
HETATM   20  H   UNL     1      41.547 -12.617   6.841  1.00  0.00     0.157 HD
HETATM   21  H   UNL     1      40.490 -12.430   5.518  1.00  0.00     0.157 HD
ENDBRANCH   5  19
BRANCH   4  22
HETATM   22  C   UNL     1      44.173 -10.907   6.834  1.00  0.00     0.280 C 
HETATM   23  N   UNL     1      43.212 -10.142   7.473  1.00  0.00    -0.319 N 
HETATM   24  H   UNL     1      42.444  -9.861   6.873  1.00  0.00     0.169 HD
HETATM   25  O   UNL     1      45.301 -11.167   7.230  1.00  0.00    -0.265 OA
BRANCH  23  26
HETATM   26  C   UNL     1      43.288  -9.513   8.732  1.00  0.00     0.069 A 
HETATM   27  C   UNL     1      43.319  -8.132   8.966  1.00  0.00     0.095 A 
HETATM   28  C   UNL     1      43.307  -7.636  10.275  1.00  0.00     0.039 A 
HETATM   29  C   UNL     1      43.328  -8.507  11.364  1.00  0.00     0.009 A 
HETATM   30  C   UNL     1      43.361  -9.887  11.155  1.00  0.00    -0.060 A 
HETATM   31  C   UNL     1      43.401 -10.843  12.310  1.00  0.00     0.048 C 
HETATM   32  C   UNL     1      43.354 -10.377   9.840  1.00  0.00     0.039 A 
BRANCH  27  33
HETATM   33  O   UNL     1      43.402  -7.186   7.981  1.00  0.00    -0.354 OA
HETATM   34  C   UNL     1      42.214  -6.396   7.939  1.00  0.00     0.210 C 
ENDBRANCH  27  33
ENDBRANCH  23  26
ENDBRANCH   4  22
TORSDOF 8
ENDMDL
MODEL 5
REMARK VINA RESULT:      -8.3      2.226      9.900
REMARK  8 active torsions:
REMARK  status: ('A' for Active; 'I' for Inactive)
REMARK    1  A    between atoms: C_2  and  C_3 
REMARK    2  A    between atoms: C_6  and  N_7 
REMARK       I    between atoms: N_7  and  C_8 
REMARK    3  A    between atoms: C_8  and  C_9 
REMARK    4  A    between atoms: C_9  and  N_10 
REMARK    5  A    between atoms: C_13  and  C_14 
REMARK       I    between atoms: C_14  and  N_15 
REMARK    6  A    between atoms: N_15  and  C_16 
REMARK    7  A    between atoms: C_17  and  O_18 
REMARK    8  A    between atoms: C_26  and  N_27 
ROOT
HETATM    1  N   UNL     1      40.508 -11.745   4.018  1.00  0.00    -0.248 N 
HETATM    2  N   UNL     1      39.957 -12.321   5.112  1.00  0.00     0.007 NA
HETATM    3  N   UNL     1      40.454 -11.715   6.175  1.00  0.00    -0.150 NA
HETATM    4  C   UNL     1      41.366 -10.771   5.751  1.00  0.00     0.187 A 
HETATM    5  C   UNL     1      41.418 -10.779   4.366  1.00  0.00     0.151 A 
ENDROOT
BRANCH   1   6
HETATM    6  C   UNL     1      40.049 -12.160   2.711  1.00  0.00     0.251 C 
BRANCH   6   7
HETATM    7  C   UNL     1      40.391 -13.609   2.407  1.00  0.00     0.241 C 
HETATM    8  N   UNL     1      41.434 -14.122   3.160  1.00  0.00    -0.326 N 
HETATM    9  H   UNL     1      41.787 -13.529   3.912  1.00  0.00     0.169 HD
HETATM   10  O   UNL     1      39.800 -14.198   1.504  1.00  0.00    -0.271 OA
BRANCH   8  11
HETATM   11  C   UNL     1      42.034 -15.393   3.075  1.00  0.00     0.034 A 
HETATM   12  C   UNL     1      42.211 -16.100   1.887  1.00  0.00     0.030 A 
HETATM   13  C   UNL     1      42.837 -17.353   1.898  1.00  0.00     0.009 A 
HETATM   14  C   UNL     1      43.287 -17.921   3.095  1.00  0.00    -0.058 A 
HETATM   15  C   UNL     1      43.110 -17.210   4.286  1.00  0.00     0.009 A 
HETATM   16  C   UNL     1      42.491 -15.957   4.273  1.00  0.00     0.030 A 
BRANCH  14  17
HETATM   17  C   UNL     1      43.980 -19.260   3.099  1.00  0.00     0.034 C 
HETATM   18  C   UNL     1      43.460 -20.168   1.995  1.00  0.00     0.010 C 
ENDBRANCH  14  17
ENDBRANCH   8  11
ENDBRANCH   6   7
ENDBRANCH   1   6
BRANCH   5  19
HETATM   19  N   UNL     1      42.136 -10.051   3.483  1.00  0.00    -0.382 N 
HETATM   20  H   UNL     1      41.661  -9.667   2.659  1.00  0.00     0.157 HD
HETATM   21  H   UNL     1      43.147 -10.073   3.387  1.00  0.00     0.157 HD
ENDBRANCH   5  19
BRANCH   4  22
HETATM   22  C   UNL     1      42.084  -9.903   6.684  1.00  0.00     0.280 C 
HETATM   23  N   UNL     1      42.492 -10.606   7.805  1.00  0.00    -0.319 N 
HETATM   24  H   UNL     1      42.088 -11.534   7.877  1.00  0.00     0.169 HD
HETATM   25  O   UNL     1      42.207  -8.703   6.474  1.00  0.00    -0.265 OA
BRANCH  23  26
HETATM   26  C   UNL     1      43.168 -10.125   8.944  1.00  0.00     0.069 A 
HETATM   27  C   UNL     1      44.517 -10.332   9.254  1.00  0.00     0.095 A 
HETATM   28  C   UNL     1      45.087  -9.723  10.379  1.00  0.00     0.039 A 
HETATM   29  C   UNL     1      44.305  -8.953  11.240  1.00  0.00     0.009 A 
HETATM   30  C   UNL     1      42.944  -8.783  10.984  1.00  0.00    -0.060 A 
HETATM   31  C   UNL     1      42.079  -7.974  11.905  1.00  0.00     0.048 C 
HETATM   32  C   UNL     1      42.384  -9.382   9.846  1.00  0.00     0.039 A 
BRANCH  27  33
HETATM   33  O   UNL     1      45.355 -11.147   8.542  1.00  0.00    -0.354 OA
HETATM   34  C   UNL     1      46.091 -10.396   7.577  1.00  0.00     0.210 C 
ENDBRANCH  27  33
ENDBRANCH  23  26
ENDBRANCH   4  22
TORSDOF 8
ENDMDL
MODEL 6
REMARK VINA RESULT:      -8.1      1.716     10.770
REMARK  8 active torsions:
REMARK  status: ('A' for Active; 'I' for Inactive)
REMARK    1  A    between atoms: C_2  and  C_3 
REMARK    2  A    between atoms: C_6  and  N_7 
REMARK       I    between atoms: N_7  and  C_8 
REMARK    3  A    between atoms: C_8  and  C_9 
REMARK    4  A    between atoms: C_9  and  N_10 
REMARK    5  A    between atoms: C_13  and  C_14 
REMARK       I    between atoms: C_14  and  N_15 
REMARK    6  A    between atoms: N_15  and  C_16 
REMARK    7  A    between atoms: C_17  and  O_18 
REMARK    8  A    between atoms: C_26  and  N_27 
ROOT
HETATM    1  N   UNL     1      42.791 -11.995   5.969  1.00  0.00    -0.248 N 
HETATM    2  N   UNL     1      43.571 -12.860   6.658  1.00  0.00     0.007 NA
HETATM    3  N   UNL     1      44.000 -12.236   7.740  1.00  0.00    -0.150 NA
HETATM    4  C   UNL     1      43.521 -10.943   7.715  1.00  0.00     0.187 A 
HETATM    5  C   UNL     1      42.745 -10.767   6.580  1.00  0.00     0.151 A 
ENDROOT
BRANCH   1   6
HETATM    6  C   UNL     1      42.107 -12.469   4.786  1.00  0.00     0.251 C 
BRANCH   6   7
HETATM    7  C   UNL     1      42.028 -13.985   4.728  1.00  0.00     0.241 C 
HETATM    8  N   UNL     1      43.063 -14.587   4.031  1.00  0.00    -0.326 N 
HETATM    9  H   UNL     1      43.825 -13.977   3.732  1.00  0.00     0.169 HD
HETATM   10  O   UNL     1      41.060 -14.564   5.217  1.00  0.00    -0.271 OA
BRANCH   8  11
HETATM   11  C   UNL     1      43.245 -15.953   3.737  1.00  0.00     0.034 A 
HETATM   12  C   UNL     1      43.614 -16.915   4.675  1.00  0.00     0.030 A 
HETATM   13  C   UNL     1      43.752 -18.256   4.293  1.00  0.00     0.009 A 
HETATM   14  C   UNL     1      43.533 -18.652   2.969  1.00  0.00    -0.058 A 
HETATM   15  C   UNL     1      43.160 -17.684   2.030  1.00  0.00     0.009 A 
HETATM   16  C   UNL     1      43.016 -16.348   2.413  1.00  0.00     0.030 A 
BRANCH  14  17
HETATM   17  C   UNL     1      43.660 -20.099   2.567  1.00  0.00     0.034 C 
HETATM   18  C   UNL     1      43.917 -20.997   3.767  1.00  0.00     0.010 C 
ENDBRANCH  14  17
ENDBRANCH   8  11
ENDBRANCH   6   7
ENDBRANCH   1   6
BRANCH   5  19
HETATM   19  N   UNL     1      42.058  -9.704   6.109  1.00  0.00    -0.382 N 
HETATM   20  H   UNL     1      41.860  -9.650   5.104  1.00  0.00     0.157 HD
HETATM   21  H   UNL     1      41.958  -8.811   6.584  1.00  0.00     0.157 HD
ENDBRANCH   5  19
BRANCH   4  22
HETATM   22  C   UNL     1      43.796  -9.986   8.787  1.00  0.00     0.280 C 
HETATM   23  N   UNL     1      42.623  -9.560   9.387  1.00  0.00    -0.319 N 
HETATM   24  H   UNL     1      41.783  -9.834   8.888  1.00  0.00     0.169 HD
HETATM   25  O   UNL     1      44.933  -9.598   9.021  1.00  0.00    -0.265 OA
BRANCH  23  26
HETATM   26  C   UNL     1      42.459  -8.615  10.420  1.00  0.00     0.069 A 
HETATM   27  C   UNL     1      42.182  -8.898  11.763  1.00  0.00     0.095 A 
HETATM   28  C   UNL     1      42.129  -7.865  12.707  1.00  0.00     0.039 A 
HETATM   29  C   UNL     1      42.290  -6.537  12.315  1.00  0.00     0.009 A 
HETATM   30  C   UNL     1      42.505  -6.226  10.971  1.00  0.00    -0.060 A 
HETATM   31  C   UNL     1      42.662  -4.803  10.522  1.00  0.00     0.048 C 
HETATM   32  C   UNL     1      42.574  -7.267  10.033  1.00  0.00     0.039 A 
BRANCH  27  33
HETATM   33  O   UNL     1      41.908 -10.148  12.246  1.00  0.00    -0.354 OA
HETATM   34  C   UNL     1      40.705 -10.140  13.014  1.00  0.00     0.210 C 
ENDBRANCH  27  33
ENDBRANCH  23  26
ENDBRANCH   4  22
TORSDOF 8
ENDMDL
MODEL 7
REMARK VINA RESULT:      -7.9      5.910      9.125
REMARK  8 active torsions:
REMARK  status: ('A' for Active; 'I' for Inactive)
REMARK    1  A    between atoms: C_2  and  C_3 
REMARK    2  A    between atoms: C_6  and  N_7 
REMARK       I    between atoms: N_7  and  C_8 
REMARK    3  A    between atoms: C_8  and  C_9 
REMARK    4  A    between atoms: C_9  and  N_10 
REMARK    5  A    between atoms: C_13  and  C_14 
REMARK       I    between atoms: C_14  and  N_15 
REMARK    6  A    between atoms: N_15  and  C_16 
REMARK    7  A    between atoms: C_17  and  O_18 
REMARK    8  A    between atoms: C_26  and  N_27 
ROOT
HETATM    1  N   UNL     1      40.140 -13.153  -0.642  1.00  0.00    -0.248 N 
HETATM    2  N   UNL     1      40.978 -12.430   0.137  1.00  0.00     0.007 NA
HETATM    3  N   UNL     1      41.360 -13.205   1.137  1.00  0.00    -0.150 NA
HETATM    4  C   UNL     1      40.721 -14.421   1.014  1.00  0.00     0.187 A 
HETATM    5  C   UNL     1      39.927 -14.405  -0.121  1.00  0.00     0.151 A 
ENDROOT
BRANCH   1   6
HETATM    6  C   UNL     1      39.656 -12.565  -1.871  1.00  0.00     0.251 C 
BRANCH   6   7
HETATM    7  C   UNL     1      39.826 -11.055  -1.901  1.00  0.00     0.241 C 
HETATM    8  N   UNL     1      41.091 -10.628  -2.271  1.00  0.00    -0.326 N 
HETATM    9  H   UNL     1      41.737 -11.349  -2.595  1.00  0.00     0.169 HD
HETATM   10  O   UNL     1      38.899 -10.330  -1.544  1.00  0.00    -0.271 OA
BRANCH   8  11
HETATM   11  C   UNL     1      41.590  -9.312  -2.329  1.00  0.00     0.034 A 
HETATM   12  C   UNL     1      41.404  -8.450  -3.407  1.00  0.00     0.030 A 
HETATM   13  C   UNL     1      41.923  -7.149  -3.368  1.00  0.00     0.009 A 
HETATM   14  C   UNL     1      42.640  -6.695  -2.256  1.00  0.00    -0.058 A 
HETATM   15  C   UNL     1      42.824  -7.562  -1.174  1.00  0.00     0.009 A 
HETATM   16  C   UNL     1      42.301  -8.858  -1.212  1.00  0.00     0.030 A 
BRANCH  14  17
HETATM   17  C   UNL     1      43.177  -5.287  -2.207  1.00  0.00     0.034 C 
HETATM   18  C   UNL     1      43.034  -4.676  -0.821  1.00  0.00     0.010 C 
ENDBRANCH  14  17
ENDBRANCH   8  11
ENDBRANCH   6   7
ENDBRANCH   1   6
BRANCH   5  19
HETATM   19  N   UNL     1      39.121 -15.337  -0.676  1.00  0.00    -0.382 N 
HETATM   20  H   UNL     1      38.187 -15.057  -0.990  1.00  0.00     0.157 HD
HETATM   21  H   UNL     1      39.221 -16.342  -0.563  1.00  0.00     0.157 HD
ENDBRANCH   5  19
BRANCH   4  22
HETATM   22  C   UNL     1      40.944 -15.519   1.954  1.00  0.00     0.280 C 
HETATM   23  N   UNL     1      42.290 -15.833   2.044  1.00  0.00    -0.319 N 
HETATM   24  H   UNL     1      42.864 -15.386   1.336  1.00  0.00     0.169 HD
HETATM   25  O   UNL     1      40.010 -16.092   2.500  1.00  0.00    -0.265 OA
BRANCH  23  26
HETATM   26  C   UNL     1      42.905 -16.852   2.799  1.00  0.00     0.069 A 
HETATM   27  C   UNL     1      43.330 -16.752   4.130  1.00  0.00     0.095 A 
HETATM   28  C   UNL     1      43.849 -17.871   4.792  1.00  0.00     0.039 A 
HETATM   29  C   UNL     1      44.008 -19.083   4.119  1.00  0.00     0.009 A 
HETATM   30  C   UNL     1      43.649 -19.188   2.775  1.00  0.00    -0.060 A 
HETATM   31  C   UNL     1      43.827 -20.475   2.026  1.00  0.00     0.048 C 
HETATM   32  C   UNL     1      43.113 -18.067   2.123  1.00  0.00     0.039 A 
BRANCH  27  33
HETATM   33  O   UNL     1      43.317 -15.594   4.858  1.00  0.00    -0.354 OA
HETATM   34  C   UNL     1      43.904 -15.799   6.143  1.00  0.00     0.210 C 
ENDBRANCH  27  33
ENDBRANCH  23  26
ENDBRANCH   4  22
TORSDOF 8
ENDMDL
MODEL 8
REMARK VINA RESULT:      -7.4     17.386     20.047
REMARK  8 active torsions:
REMARK  status: ('A' for Active; 'I' for Inactive)
REMARK    1  A    between atoms: C_2  and  C_3 
REMARK    2  A    between atoms: C_6  and  N_7 
REMARK       I    between atoms: N_7  and  C_8 
REMARK    3  A    between atoms: C_8  and  C_9 
REMARK    4  A    between atoms: C_9  and  N_10 
REMARK    5  A    between atoms: C_13  and  C_14 
REMARK       I    between atoms: C_14  and  N_15 
REMARK    6  A    between atoms: N_15  and  C_16 
REMARK    7  A    between atoms: C_17  and  O_18 
REMARK    8  A    between atoms: C_26  and  N_27 
ROOT
HETATM    1  N   UNL     1      41.138 -32.186   3.447  1.00  0.00    -0.248 N 
HETATM    2  N   UNL     1      40.200 -32.144   2.472  1.00  0.00     0.007 NA
HETATM    3  N   UNL     1      40.566 -31.214   1.608  1.00  0.00    -0.150 NA
HETATM    4  C   UNL     1      41.729 -30.628   2.064  1.00  0.00     0.187 A 
HETATM    5  C   UNL     1      42.109 -31.238   3.250  1.00  0.00     0.151 A 
ENDROOT
BRANCH   1   6
HETATM    6  C   UNL     1      41.027 -33.201   4.471  1.00  0.00     0.251 C 
BRANCH   6   7
HETATM    7  C   UNL     1      39.788 -33.026   5.333  1.00  0.00     0.241 C 
HETATM    8  N   UNL     1      39.212 -34.213   5.757  1.00  0.00    -0.326 N 
HETATM    9  H   UNL     1      39.730 -35.068   5.553  1.00  0.00     0.169 HD
HETATM   10  O   UNL     1      39.344 -31.898   5.539  1.00  0.00    -0.271 OA
BRANCH   8  11
HETATM   11  C   UNL     1      38.031 -34.396   6.502  1.00  0.00     0.034 A 
HETATM   12  C   UNL     1      36.746 -34.294   5.973  1.00  0.00     0.030 A 
HETATM   13  C   UNL     1      35.628 -34.512   6.788  1.00  0.00     0.009 A 
HETATM   14  C   UNL     1      35.777 -34.827   8.144  1.00  0.00    -0.058 A 
HETATM   15  C   UNL     1      37.068 -34.931   8.672  1.00  0.00     0.009 A 
HETATM   16  C   UNL     1      38.183 -34.719   7.856  1.00  0.00     0.030 A 
BRANCH  14  17
HETATM   17  C   UNL     1      34.572 -35.084   9.012  1.00  0.00     0.034 C 
HETATM   18  C   UNL     1      34.951 -35.204  10.480  1.00  0.00     0.010 C 
ENDBRANCH  14  17
ENDBRANCH   8  11
ENDBRANCH   6   7
ENDBRANCH   1   6
BRANCH   5  19
HETATM   19  N   UNL     1      43.161 -31.037   4.074  1.00  0.00    -0.382 N 
HETATM   20  H   UNL     1      42.981 -30.807   5.056  1.00  0.00     0.157 HD
HETATM   21  H   UNL     1      44.105 -30.808   3.776  1.00  0.00     0.157 HD
ENDBRANCH   5  19
BRANCH   4  22
HETATM   22  C   UNL     1      42.415 -29.570   1.323  1.00  0.00     0.280 C 
HETATM   23  N   UNL     1      43.649 -30.000   0.868  1.00  0.00    -0.319 N 
HETATM   24  H   UNL     1      43.944 -30.889   1.259  1.00  0.00     0.169 HD
HETATM   25  O   UNL     1      41.934 -28.448   1.221  1.00  0.00    -0.265 OA
BRANCH  23  26
HETATM   26  C   UNL     1      44.625 -29.272   0.159  1.00  0.00     0.069 A 
HETATM   27  C   UNL     1      45.826 -28.774   0.679  1.00  0.00     0.095 A 
HETATM   28  C   UNL     1      46.751 -28.139  -0.159  1.00  0.00     0.039 A 
HETATM   29  C   UNL     1      46.463 -27.939  -1.509  1.00  0.00     0.009 A 
HETATM   30  C   UNL     1      45.246 -28.371  -2.036  1.00  0.00    -0.060 A 
HETATM   31  C   UNL     1      44.906 -28.150  -3.481  1.00  0.00     0.048 C 
HETATM   32  C   UNL     1      44.331 -29.022  -1.194  1.00  0.00     0.039 A 
BRANCH  27  33
HETATM   33  O   UNL     1      46.171 -28.822   2.002  1.00  0.00    -0.354 OA
HETATM   34  C   UNL     1      47.529 -28.424   2.184  1.00  0.00     0.210 C 
ENDBRANCH  27  33
ENDBRANCH  23  26
ENDBRANCH   4  22
TORSDOF 8
ENDMDL
MODEL 9
REMARK VINA RESULT:      -7.3      6.639      9.705
REMARK  8 active torsions:
REMARK  status: ('A' for Active; 'I' for Inactive)
REMARK    1  A    between atoms: C_2  and  C_3 
REMARK    2  A    between atoms: C_6  and  N_7 
REMARK       I    between atoms: N_7  and  C_8 
REMARK    3  A    between atoms: C_8  and  C_9 
REMARK    4  A    between atoms: C_9  and  N_10 
REMARK    5  A    between atoms: C_13  and  C_14 
REMARK       I    between atoms: C_14  and  N_15 
REMARK    6  A    between atoms: N_15  and  C_16 
REMARK    7  A    between atoms: C_17  and  O_18 
REMARK    8  A    between atoms: C_26  and  N_27 
ROOT
HETATM    1  N   UNL     1      40.257 -13.288  -0.764  1.00  0.00    -0.248 N 
HETATM    2  N   UNL     1      41.130 -12.526  -0.063  1.00  0.00     0.007 NA
HETATM    3  N   UNL     1      41.508 -13.224   0.993  1.00  0.00    -0.150 NA
HETATM    4  C   UNL     1      40.831 -14.426   0.986  1.00  0.00     0.187 A 
HETATM    5  C   UNL     1      40.017 -14.483  -0.134  1.00  0.00     0.151 A 
ENDROOT
BRANCH   1   6
HETATM    6  C   UNL     1      39.768 -12.792  -2.031  1.00  0.00     0.251 C 
BRANCH   6   7
HETATM    7  C   UNL     1      38.299 -12.406  -1.978  1.00  0.00     0.241 C 
HETATM    8  N   UNL     1      38.064 -11.096  -1.593  1.00  0.00    -0.326 N 
HETATM    9  H   UNL     1      38.884 -10.496  -1.498  1.00  0.00     0.169 HD
HETATM   10  O   UNL     1      37.438 -13.255  -2.201  1.00  0.00    -0.271 OA
BRANCH   8  11
HETATM   11  C   UNL     1      36.829 -10.453  -1.381  1.00  0.00     0.034 A 
HETATM   12  C   UNL     1      35.914 -10.159  -2.389  1.00  0.00     0.030 A 
HETATM   13  C   UNL     1      34.699  -9.533  -2.079  1.00  0.00     0.009 A 
HETATM   14  C   UNL     1      34.387  -9.184  -0.761  1.00  0.00    -0.058 A 
HETATM   15  C   UNL     1      35.307  -9.482   0.250  1.00  0.00     0.009 A 
HETATM   16  C   UNL     1      36.515 -10.112  -0.059  1.00  0.00     0.030 A 
BRANCH  14  17
HETATM   17  C   UNL     1      33.070  -8.531  -0.428  1.00  0.00     0.034 C 
HETATM   18  C   UNL     1      33.143  -7.017  -0.552  1.00  0.00     0.010 C 
ENDBRANCH  14  17
ENDBRANCH   8  11
ENDBRANCH   6   7
ENDBRANCH   1   6
BRANCH   5  19
HETATM   19  N   UNL     1      39.175 -15.434  -0.594  1.00  0.00    -0.382 N 
HETATM   20  H   UNL     1      38.801 -15.344  -1.544  1.00  0.00     0.157 HD
HETATM   21  H   UNL     1      38.645 -16.079  -0.015  1.00  0.00     0.157 HD
ENDBRANCH   5  19
BRANCH   4  22
HETATM   22  C   UNL     1      41.040 -15.447   2.013  1.00  0.00     0.280 C 
HETATM   23  N   UNL     1      42.383 -15.578   2.319  1.00  0.00    -0.319 N 
HETATM   24  H   UNL     1      43.000 -15.090   1.679  1.00  0.00     0.169 HD
HETATM   25  O   UNL     1      40.109 -16.113   2.448  1.00  0.00    -0.265 OA
BRANCH  23  26
HETATM   26  C   UNL     1      42.994 -16.476   3.218  1.00  0.00     0.069 A 
HETATM   27  C   UNL     1      43.258 -17.831   2.982  1.00  0.00     0.095 A 
HETATM   28  C   UNL     1      43.951 -18.593   3.930  1.00  0.00     0.039 A 
HETATM   29  C   UNL     1      44.334 -18.031   5.147  1.00  0.00     0.009 A 
HETATM   30  C   UNL     1      44.028 -16.700   5.430  1.00  0.00    -0.060 A 
HETATM   31  C   UNL     1      44.414 -16.079   6.740  1.00  0.00     0.048 C 
HETATM   32  C   UNL     1      43.348 -15.937   4.468  1.00  0.00     0.039 A 
BRANCH  27  33
HETATM   33  O   UNL     1      42.842 -18.514   1.871  1.00  0.00    -0.354 OA
HETATM   34  C   UNL     1      43.144 -19.904   1.991  1.00  0.00     0.210 C 
ENDBRANCH  27  33
ENDBRANCH  23  26
ENDBRANCH   4  22
TORSDOF 8
ENDMDL
MODEL 10
REMARK VINA RESULT:      -7.3      6.172     10.343
REMARK  8 active torsions:
REMARK  status: ('A' for Active; 'I' for Inactive)
REMARK    1  A    between atoms: C_2  and  C_3 
REMARK    2  A    between atoms: C_6  and  N_7 
REMARK       I    between atoms: N_7  and  C_8 
REMARK    3  A    between atoms: C_8  and  C_9 
REMARK    4  A    between atoms: C_9  and  N_10 
REMARK    5  A    between atoms: C_13  and  C_14 
REMARK       I    between atoms: C_14  and  N_15 
REMARK    6  A    between atoms: N_15  and  C_16 
REMARK    7  A    between atoms: C_17  and  O_18 
REMARK    8  A    between atoms: C_26  and  N_27 
ROOT
HETATM    1  N   UNL     1      40.040 -12.619   0.859  1.00  0.00    -0.248 N 
HETATM    2  N   UNL     1      40.669 -11.821   1.754  1.00  0.00     0.007 NA
HETATM    3  N   UNL     1      41.703 -12.493   2.229  1.00  0.00    -0.150 NA
HETATM    4  C   UNL     1      41.704 -13.749   1.659  1.00  0.00     0.187 A 
HETATM    5  C   UNL     1      40.639 -13.851   0.779  1.00  0.00     0.151 A 
ENDROOT
BRANCH   1   6
HETATM    6  C   UNL     1      38.926 -12.078   0.113  1.00  0.00     0.251 C 
BRANCH   6   7
HETATM    7  C   UNL     1      39.301 -11.719  -1.316  1.00  0.00     0.241 C 
HETATM    8  N   UNL     1      39.078 -10.394  -1.652  1.00  0.00    -0.326 N 
HETATM    9  H   UNL     1      38.801  -9.773  -0.891  1.00  0.00     0.169 HD
HETATM   10  O   UNL     1      39.696 -12.597  -2.081  1.00  0.00    -0.271 OA
BRANCH   8  11
HETATM   11  C   UNL     1      39.252  -9.765  -2.899  1.00  0.00     0.034 A 
HETATM   12  C   UNL     1      38.221  -9.513  -3.802  1.00  0.00     0.030 A 
HETATM   13  C   UNL     1      38.487  -8.863  -5.014  1.00  0.00     0.009 A 
HETATM   14  C   UNL     1      39.787  -8.464  -5.345  1.00  0.00    -0.058 A 
HETATM   15  C   UNL     1      40.820  -8.716  -4.437  1.00  0.00     0.009 A 
HETATM   16  C   UNL     1      40.553  -9.358  -3.225  1.00  0.00     0.030 A 
BRANCH  14  17
HETATM   17  C   UNL     1      40.065  -7.745  -6.640  1.00  0.00     0.034 C 
HETATM   18  C   UNL     1      40.181  -8.712  -7.809  1.00  0.00     0.010 C 
ENDBRANCH  14  17
ENDBRANCH   8  11
ENDBRANCH   6   7
ENDBRANCH   1   6
BRANCH   5  19
HETATM   19  N   UNL     1      40.216 -14.856  -0.019  1.00  0.00    -0.382 N 
HETATM   20  H   UNL     1      40.621 -15.789   0.108  1.00  0.00     0.157 HD
HETATM   21  H   UNL     1      39.752 -14.739  -0.915  1.00  0.00     0.157 HD
ENDBRANCH   5  19
BRANCH   4  22
HETATM   22  C   UNL     1      42.738 -14.741   1.956  1.00  0.00     0.280 C 
HETATM   23  N   UNL     1      42.221 -15.795   2.690  1.00  0.00    -0.319 N 
HETATM   24  H   UNL     1      41.284 -15.629   3.043  1.00  0.00     0.169 HD
HETATM   25  O   UNL     1      43.905 -14.563   1.632  1.00  0.00    -0.265 OA
BRANCH  23  26
HETATM   26  C   UNL     1      42.896 -16.919   3.207  1.00  0.00     0.069 A 
HETATM   27  C   UNL     1      43.474 -17.024   4.478  1.00  0.00     0.095 A 
HETATM   28  C   UNL     1      44.042 -18.232   4.899  1.00  0.00     0.039 A 
HETATM   29  C   UNL     1      44.096 -19.328   4.038  1.00  0.00     0.009 A 
HETATM   30  C   UNL     1      43.582 -19.227   2.745  1.00  0.00    -0.060 A 
HETATM   31  C   UNL     1      43.645 -20.387   1.795  1.00  0.00     0.048 C 
HETATM   32  C   UNL     1      42.999 -18.018   2.336  1.00  0.00     0.039 A 
BRANCH  27  33
HETATM   33  O   UNL     1      43.570 -15.989   5.368  1.00  0.00    -0.354 OA
HETATM   34  C   UNL     1      44.445 -16.329   6.444  1.00  0.00     0.210 C 
ENDBRANCH  27  33
ENDBRANCH  23  26
ENDBRANCH   4  22
TORSDOF 8
ENDMDL
