MODEL 1
REMARK VINA RESULT:      -8.7      0.000      0.000
REMARK  10 active torsions:
REMARK  status: ('A' for Active; 'I' for Inactive)
REMARK    1  A    between atoms: C_2  and  N_3 
REMARK    2  A    between atoms: N_3  and  C_4 
REMARK    3  A    between atoms: N_3  and  C_37 
REMARK    4  A    between atoms: C_7  and  C_8 
REMARK    5  A    between atoms: N_9  and  C_11 
REMARK    6  A    between atoms: C_11  and  C_12 
REMARK       I    between atoms: C_12  and  N_13 
REMARK    7  A    between atoms: N_13  and  C_14 
REMARK    8  A    between atoms: C_20  and  C_21 
REMARK    9  A    between atoms: C_21  and  O_22 
REMARK   10  A    between atoms: C_28  and  O_29 
ROOT
HETATM    1  C   UNL     1      40.778 -13.397   1.049  1.00  0.00     0.228 C 
HETATM    2  N   UNL     1      40.270 -12.465   2.143  1.00  0.00    -0.054 N 
HETATM    3  H   UNL     1      41.118 -12.161   2.652  1.00  0.00     0.281 HD
HETATM    4  C   UNL     1      39.708 -11.175   1.598  1.00  0.00     0.239 C 
HETATM    5  C   UNL     1      38.575 -11.455   0.625  1.00  0.00     0.066 C 
HETATM    6  C   UNL     1      39.056 -12.342  -0.521  1.00  0.00     0.065 C 
HETATM    7  C   UNL     1      39.646 -13.671   0.018  1.00  0.00     0.055 C 
HETATM    8  C   UNL     1      37.915 -12.621  -1.515  1.00  0.00     0.038 C 
HETATM    9  C   UNL     1      38.371 -13.504  -2.676  1.00  0.00     0.003 C 
HETATM   10  C   UNL     1      39.022 -14.789  -2.182  1.00  0.00     0.001 C 
HETATM   11  C   UNL     1      40.143 -14.519  -1.179  1.00  0.00     0.010 C 
ENDROOT
BRANCH   2  12
HETATM   12  C   UNL     1      39.435 -13.070   3.283  1.00  0.00     0.338 C 
BRANCH  12  13
HETATM   13  C   UNL     1      39.989 -12.577   4.627  1.00  0.00     0.248 C 
HETATM   14  N   UNL     1      40.676 -11.386   4.564  1.00  0.00    -0.319 N 
HETATM   15  H   UNL     1      40.424 -10.696   3.854  1.00  0.00     0.169 HD
HETATM   16  O   UNL     1      39.819 -13.296   5.612  1.00  0.00    -0.271 OA
BRANCH  14  17
HETATM   17  C   UNL     1      41.565 -10.919   5.527  1.00  0.00     0.094 A 
HETATM   18  S   UNL     1      41.000 -10.019   6.846  1.00  0.00    -0.076 SA
HETATM   19  C   UNL     1      42.544  -9.941   7.560  1.00  0.00    -0.012 A 
HETATM   20  C   UNL     1      42.710  -9.222   8.863  1.00  0.00     0.057 C 
HETATM   21  C   UNL     1      43.507 -10.593   6.802  1.00  0.00    -0.030 A 
HETATM   22  C   UNL     1      44.954 -10.675   7.189  1.00  0.00     0.050 C 
HETATM   23  C   UNL     1      42.926 -11.189   5.603  1.00  0.00     0.080 A 
BRANCH  23  24
HETATM   24  C   UNL     1      43.598 -11.973   4.559  1.00  0.00     0.296 C 
HETATM   25  O   UNL     1      44.466 -11.482   3.838  1.00  0.00    -0.259 OA
BRANCH  24  26
HETATM   26  O   UNL     1      43.182 -13.264   4.488  1.00  0.00    -0.322 OA
HETATM   27  C   UNL     1      43.326 -14.011   5.696  1.00  0.00     0.213 C 
ENDBRANCH  24  26
ENDBRANCH  23  24
ENDBRANCH  14  17
ENDBRANCH  12  13
ENDBRANCH   2  12
BRANCH   1  28
HETATM   28  C   UNL     1      41.496 -14.604   1.637  1.00  0.00    -0.027 A 
HETATM   29  C   UNL     1      42.872 -14.827   1.493  1.00  0.00     0.011 A 
HETATM   30  C   UNL     1      43.497 -15.910   2.127  1.00  0.00     0.030 A 
HETATM   31  C   UNL     1      42.767 -16.827   2.888  1.00  0.00     0.030 A 
HETATM   32  C   UNL     1      41.381 -16.647   2.961  1.00  0.00     0.030 A 
HETATM   33  C   UNL     1      40.753 -15.552   2.356  1.00  0.00     0.011 A 
BRANCH  31  34
HETATM   34  N   UNL     1      43.354 -17.874   3.594  1.00  0.00    -0.382 N 
BRANCH  34  35
HETATM   35  C   UNL     1      43.824 -17.646   4.969  1.00  0.00     0.118 C 
HETATM   36  C   UNL     1      43.589 -18.875   5.839  1.00  0.00     0.026 C 
ENDBRANCH  34  35
BRANCH  34  37
HETATM   37  C   UNL     1      44.117 -18.837   2.786  1.00  0.00     0.118 C 
HETATM   38  C   UNL     1      43.225 -19.907   2.168  1.00  0.00     0.026 C 
ENDBRANCH  34  37
ENDBRANCH  31  34
ENDBRANCH   1  28
BRANCH   6  39
HETATM   39  O   UNL     1      40.101 -11.624  -1.187  1.00  0.00    -0.389 OA
HETATM   40  H   UNL     1      39.776 -10.737  -1.438  1.00  0.00     0.210 HD
ENDBRANCH   6  39
TORSDOF 10
ENDMDL
MODEL 2
REMARK VINA RESULT:      -8.7      1.439      2.015
REMARK  10 active torsions:
REMARK  status: ('A' for Active; 'I' for Inactive)
REMARK    1  A    between atoms: C_2  and  N_3 
REMARK    2  A    between atoms: N_3  and  C_4 
REMARK    3  A    between atoms: N_3  and  C_37 
REMARK    4  A    between atoms: C_7  and  C_8 
REMARK    5  A    between atoms: N_9  and  C_11 
REMARK    6  A    between atoms: C_11  and  C_12 
REMARK       I    between atoms: C_12  and  N_13 
REMARK    7  A    between atoms: N_13  and  C_14 
REMARK    8  A    between atoms: C_20  and  C_21 
REMARK    9  A    between atoms: C_21  and  O_22 
REMARK   10  A    between atoms: C_28  and  O_29 
ROOT
HETATM    1  C   UNL     1      40.309 -13.402   0.255  1.00  0.00     0.228 C 
HETATM    2  N   UNL     1      39.725 -12.403   1.247  1.00  0.00    -0.054 N 
HETATM    3  H   UNL     1      40.544 -11.986   1.723  1.00  0.00     0.281 HD
HETATM    4  C   UNL     1      39.075 -11.220   0.572  1.00  0.00     0.239 C 
HETATM    5  C   UNL     1      37.974 -11.681  -0.369  1.00  0.00     0.066 C 
HETATM    6  C   UNL     1      38.528 -12.644  -1.416  1.00  0.00     0.065 C 
HETATM    7  C   UNL     1      39.210 -13.863  -0.743  1.00  0.00     0.055 C 
HETATM    8  C   UNL     1      37.419 -13.107  -2.377  1.00  0.00     0.038 C 
HETATM    9  C   UNL     1      37.948 -14.068  -3.441  1.00  0.00     0.003 C 
HETATM   10  C   UNL     1      38.688 -15.244  -2.817  1.00  0.00     0.001 C 
HETATM   11  C   UNL     1      39.777 -14.790  -1.846  1.00  0.00     0.010 C 
ENDROOT
BRANCH   2  12
HETATM   12  C   UNL     1      38.927 -12.948   2.442  1.00  0.00     0.338 C 
BRANCH  12  13
HETATM   13  C   UNL     1      39.698 -12.653   3.737  1.00  0.00     0.248 C 
HETATM   14  N   UNL     1      41.004 -13.089   3.740  1.00  0.00    -0.319 N 
HETATM   15  H   UNL     1      41.522 -13.137   2.860  1.00  0.00     0.169 HD
HETATM   16  O   UNL     1      39.084 -12.112   4.657  1.00  0.00    -0.271 OA
BRANCH  14  17
HETATM   17  C   UNL     1      41.785 -13.277   4.876  1.00  0.00     0.094 A 
HETATM   18  S   UNL     1      41.542 -14.629   5.866  1.00  0.00    -0.076 SA
HETATM   19  C   UNL     1      42.852 -14.230   6.877  1.00  0.00    -0.012 A 
HETATM   20  C   UNL     1      43.183 -15.123   8.032  1.00  0.00     0.057 C 
HETATM   21  C   UNL     1      43.486 -13.061   6.477  1.00  0.00    -0.030 A 
HETATM   22  C   UNL     1      44.667 -12.470   7.191  1.00  0.00     0.050 C 
HETATM   23  C   UNL     1      42.865 -12.502   5.281  1.00  0.00     0.080 A 
BRANCH  23  24
HETATM   24  C   UNL     1      43.246 -11.294   4.537  1.00  0.00     0.296 C 
HETATM   25  O   UNL     1      44.329 -11.203   3.960  1.00  0.00    -0.259 OA
BRANCH  24  26
HETATM   26  O   UNL     1      42.297 -10.322   4.543  1.00  0.00    -0.322 OA
HETATM   27  C   UNL     1      42.068  -9.712   5.813  1.00  0.00     0.213 C 
ENDBRANCH  24  26
ENDBRANCH  23  24
ENDBRANCH  14  17
ENDBRANCH  12  13
ENDBRANCH   2  12
BRANCH   1  28
HETATM   28  C   UNL     1      41.109 -14.486   0.965  1.00  0.00    -0.027 A 
HETATM   29  C   UNL     1      42.501 -14.436   1.125  1.00  0.00     0.011 A 
HETATM   30  C   UNL     1      43.177 -15.418   1.862  1.00  0.00     0.030 A 
HETATM   31  C   UNL     1      42.497 -16.501   2.425  1.00  0.00     0.030 A 
HETATM   32  C   UNL     1      41.120 -16.591   2.192  1.00  0.00     0.030 A 
HETATM   33  C   UNL     1      40.432 -15.599   1.484  1.00  0.00     0.011 A 
BRANCH  31  34
HETATM   34  N   UNL     1      43.115 -17.461   3.223  1.00  0.00    -0.382 N 
BRANCH  34  35
HETATM   35  C   UNL     1      43.630 -17.078   4.546  1.00  0.00     0.118 C 
HETATM   36  C   UNL     1      43.616 -18.263   5.504  1.00  0.00     0.026 C 
ENDBRANCH  34  35
BRANCH  34  37
HETATM   37  C   UNL     1      43.856 -18.507   2.503  1.00  0.00     0.118 C 
HETATM   38  C   UNL     1      42.976 -19.700   2.152  1.00  0.00     0.026 C 
ENDBRANCH  34  37
ENDBRANCH  31  34
ENDBRANCH   1  28
BRANCH   6  39
HETATM   39  O   UNL     1      39.522 -11.922  -2.152  1.00  0.00    -0.389 OA
HETATM   40  H   UNL     1      39.317 -11.968  -3.107  1.00  0.00     0.210 HD
ENDBRANCH   6  39
TORSDOF 10
ENDMDL
MODEL 3
REMARK VINA RESULT:      -8.4      1.504      2.166
REMARK  10 active torsions:
REMARK  status: ('A' for Active; 'I' for Inactive)
REMARK    1  A    between atoms: C_2  and  N_3 
REMARK    2  A    between atoms: N_3  and  C_4 
REMARK    3  A    between atoms: N_3  and  C_37 
REMARK    4  A    between atoms: C_7  and  C_8 
REMARK    5  A    between atoms: N_9  and  C_11 
REMARK    6  A    between atoms: C_11  and  C_12 
REMARK       I    between atoms: C_12  and  N_13 
REMARK    7  A    between atoms: N_13  and  C_14 
REMARK    8  A    between atoms: C_20  and  C_21 
REMARK    9  A    between atoms: C_21  and  O_22 
REMARK   10  A    between atoms: C_28  and  O_29 
ROOT
HETATM    1  C   UNL     1      40.556 -13.153   0.793  1.00  0.00     0.228 C 
HETATM    2  N   UNL     1      40.025 -12.107   1.765  1.00  0.00    -0.054 N 
HETATM    3  H   UNL     1      40.860 -11.758   2.268  1.00  0.00     0.281 HD
HETATM    4  C   UNL     1      39.498 -10.876   1.069  1.00  0.00     0.239 C 
HETATM    5  C   UNL     1      38.394 -11.246   0.092  1.00  0.00     0.066 C 
HETATM    6  C   UNL     1      38.901 -12.253  -0.937  1.00  0.00     0.065 C 
HETATM    7  C   UNL     1      39.456 -13.523  -0.241  1.00  0.00     0.055 C 
HETATM    8  C   UNL     1      37.790 -12.625  -1.935  1.00  0.00     0.038 C 
HETATM    9  C   UNL     1      38.273 -13.629  -2.980  1.00  0.00     0.003 C 
HETATM   10  C   UNL     1      38.890 -14.861  -2.332  1.00  0.00     0.001 C 
HETATM   11  C   UNL     1      39.981 -14.497  -1.326  1.00  0.00     0.010 C 
ENDROOT
BRANCH   2  12
HETATM   12  C   UNL     1      39.145 -12.580   2.933  1.00  0.00     0.338 C 
BRANCH  12  13
HETATM   13  C   UNL     1      39.878 -12.313   4.255  1.00  0.00     0.248 C 
HETATM   14  N   UNL     1      40.843 -11.333   4.189  1.00  0.00    -0.319 N 
HETATM   15  H   UNL     1      40.738 -10.566   3.521  1.00  0.00     0.169 HD
HETATM   16  O   UNL     1      39.584 -13.014   5.223  1.00  0.00    -0.271 OA
BRANCH  14  17
HETATM   17  C   UNL     1      41.873 -11.156   5.108  1.00  0.00     0.094 A 
HETATM   18  S   UNL     1      43.344 -11.972   4.910  1.00  0.00    -0.076 SA
HETATM   19  C   UNL     1      44.050 -11.197   6.251  1.00  0.00    -0.012 A 
HETATM   20  C   UNL     1      45.466 -11.517   6.618  1.00  0.00     0.057 C 
HETATM   21  C   UNL     1      43.174 -10.314   6.869  1.00  0.00    -0.030 A 
HETATM   22  C   UNL     1      43.529  -9.501   8.079  1.00  0.00     0.050 C 
HETATM   23  C   UNL     1      41.887 -10.276   6.182  1.00  0.00     0.080 A 
BRANCH  23  24
HETATM   24  C   UNL     1      40.706  -9.463   6.506  1.00  0.00     0.296 C 
HETATM   25  O   UNL     1      40.668  -8.256   6.273  1.00  0.00    -0.259 OA
BRANCH  24  26
HETATM   26  O   UNL     1      39.687 -10.170   7.060  1.00  0.00    -0.322 OA
HETATM   27  C   UNL     1      39.411  -9.859   8.425  1.00  0.00     0.213 C 
ENDBRANCH  24  26
ENDBRANCH  23  24
ENDBRANCH  14  17
ENDBRANCH  12  13
ENDBRANCH   2  12
BRANCH   1  28
HETATM   28  C   UNL     1      41.239 -14.298   1.528  1.00  0.00    -0.027 A 
HETATM   29  C   UNL     1      42.618 -14.340   1.778  1.00  0.00     0.011 A 
HETATM   30  C   UNL     1      43.182 -15.376   2.535  1.00  0.00     0.030 A 
HETATM   31  C   UNL     1      42.400 -16.423   3.030  1.00  0.00     0.030 A 
HETATM   32  C   UNL     1      41.038 -16.421   2.709  1.00  0.00     0.030 A 
HETATM   33  C   UNL     1      40.461 -15.375   1.980  1.00  0.00     0.011 A 
BRANCH  31  34
HETATM   34  N   UNL     1      42.904 -17.434   3.846  1.00  0.00    -0.382 N 
BRANCH  34  35
HETATM   35  C   UNL     1      43.037 -17.198   5.291  1.00  0.00     0.118 C 
HETATM   36  C   UNL     1      44.480 -16.874   5.662  1.00  0.00     0.026 C 
ENDBRANCH  34  35
BRANCH  34  37
HETATM   37  C   UNL     1      43.905 -18.314   3.224  1.00  0.00     0.118 C 
HETATM   38  C   UNL     1      43.284 -19.275   2.218  1.00  0.00     0.026 C 
ENDBRANCH  34  37
ENDBRANCH  31  34
ENDBRANCH   1  28
BRANCH   6  39
HETATM   39  O   UNL     1      39.976 -11.619  -1.639  1.00  0.00    -0.389 OA
HETATM   40  H   UNL     1      40.011 -10.674  -1.394  1.00  0.00     0.210 HD
ENDBRANCH   6  39
TORSDOF 10
ENDMDL
MODEL 4
REMARK VINA RESULT:      -8.0      2.176      6.291
REMARK  10 active torsions:
REMARK  status: ('A' for Active; 'I' for Inactive)
REMARK    1  A    between atoms: C_2  and  N_3 
REMARK    2  A    between atoms: N_3  and  C_4 
REMARK    3  A    between atoms: N_3  and  C_37 
REMARK    4  A    between atoms: C_7  and  C_8 
REMARK    5  A    between atoms: N_9  and  C_11 
REMARK    6  A    between atoms: C_11  and  C_12 
REMARK       I    between atoms: C_12  and  N_13 
REMARK    7  A    between atoms: N_13  and  C_14 
REMARK    8  A    between atoms: C_20  and  C_21 
REMARK    9  A    between atoms: C_21  and  O_22 
REMARK   10  A    between atoms: C_28  and  O_29 
ROOT
HETATM    1  C   UNL     1      41.945 -14.627   4.452  1.00  0.00     0.228 C 
HETATM    2  N   UNL     1      42.543 -13.615   5.421  1.00  0.00    -0.054 N 
HETATM    3  H   UNL     1      41.745 -13.031   5.727  1.00  0.00     0.281 HD
HETATM    4  C   UNL     1      43.026 -14.247   6.703  1.00  0.00     0.239 C 
HETATM    5  C   UNL     1      44.061 -15.321   6.412  1.00  0.00     0.066 C 
HETATM    6  C   UNL     1      43.484 -16.388   5.486  1.00  0.00     0.065 C 
HETATM    7  C   UNL     1      42.972 -15.758   4.164  1.00  0.00     0.055 C 
HETATM    8  C   UNL     1      44.525 -17.484   5.194  1.00  0.00     0.038 C 
HETATM    9  C   UNL     1      43.971 -18.569   4.273  1.00  0.00     0.003 C 
HETATM   10  C   UNL     1      43.394 -17.979   2.993  1.00  0.00     0.001 C 
HETATM   11  C   UNL     1      42.374 -16.877   3.276  1.00  0.00     0.010 C 
ENDROOT
BRANCH   2  12
HETATM   12  C   UNL     1      43.498 -12.548   4.860  1.00  0.00     0.338 C 
BRANCH  12  13
HETATM   13  C   UNL     1      43.015 -11.159   5.303  1.00  0.00     0.248 C 
HETATM   14  N   UNL     1      43.313 -10.837   6.609  1.00  0.00    -0.319 N 
HETATM   15  H   UNL     1      44.149 -11.230   7.046  1.00  0.00     0.169 HD
HETATM   16  O   UNL     1      42.375 -10.491   4.491  1.00  0.00    -0.271 OA
BRANCH  14  17
HETATM   17  C   UNL     1      42.693  -9.836   7.350  1.00  0.00     0.094 A 
HETATM   18  S   UNL     1      41.012  -9.641   7.284  1.00  0.00    -0.076 SA
HETATM   19  C   UNL     1      41.025  -8.406   8.455  1.00  0.00    -0.012 A 
HETATM   20  C   UNL     1      39.731  -7.778   8.870  1.00  0.00     0.057 C 
HETATM   21  C   UNL     1      42.308  -8.123   8.906  1.00  0.00    -0.030 A 
HETATM   22  C   UNL     1      42.615  -7.074   9.934  1.00  0.00     0.050 C 
HETATM   23  C   UNL     1      43.298  -8.982   8.264  1.00  0.00     0.080 A 
BRANCH  23  24
HETATM   24  C   UNL     1      44.751  -9.013   8.477  1.00  0.00     0.296 C 
HETATM   25  O   UNL     1      45.471  -8.066   8.165  1.00  0.00    -0.259 OA
BRANCH  24  26
HETATM   26  O   UNL     1      45.198 -10.160   9.051  1.00  0.00    -0.322 OA
HETATM   27  C   UNL     1      44.992 -10.248  10.461  1.00  0.00     0.213 C 
ENDBRANCH  24  26
ENDBRANCH  23  24
ENDBRANCH  14  17
ENDBRANCH  12  13
ENDBRANCH   2  12
BRANCH   1  28
HETATM   28  C   UNL     1      41.309 -13.938   3.251  1.00  0.00    -0.027 A 
HETATM   29  C   UNL     1      41.919 -13.869   1.991  1.00  0.00     0.011 A 
HETATM   30  C   UNL     1      41.252 -13.298   0.898  1.00  0.00     0.030 A 
HETATM   31  C   UNL     1      39.978 -12.742   1.034  1.00  0.00     0.030 A 
HETATM   32  C   UNL     1      39.407 -12.739   2.312  1.00  0.00     0.030 A 
HETATM   33  C   UNL     1      40.052 -13.334   3.402  1.00  0.00     0.011 A 
BRANCH  31  34
HETATM   34  N   UNL     1      39.249 -12.230  -0.036  1.00  0.00    -0.382 N 
BRANCH  34  35
HETATM   35  C   UNL     1      39.587 -12.643  -1.406  1.00  0.00     0.118 C 
HETATM   36  C   UNL     1      38.748 -13.839  -1.841  1.00  0.00     0.026 C 
ENDBRANCH  34  35
BRANCH  34  37
HETATM   37  C   UNL     1      38.746 -10.858   0.135  1.00  0.00     0.118 C 
HETATM   38  C   UNL     1      37.234 -10.772  -0.035  1.00  0.00     0.026 C 
ENDBRANCH  34  37
ENDBRANCH  31  34
ENDBRANCH   1  28
BRANCH   6  39
HETATM   39  O   UNL     1      42.366 -16.966   6.170  1.00  0.00    -0.389 OA
HETATM   40  H   UNL     1      41.560 -16.455   5.964  1.00  0.00     0.210 HD
ENDBRANCH   6  39
TORSDOF 10
ENDMDL
MODEL 5
REMARK VINA RESULT:      -7.7      2.324      7.128
REMARK  10 active torsions:
REMARK  status: ('A' for Active; 'I' for Inactive)
REMARK    1  A    between atoms: C_2  and  N_3 
REMARK    2  A    between atoms: N_3  and  C_4 
REMARK    3  A    between atoms: N_3  and  C_37 
REMARK    4  A    between atoms: C_7  and  C_8 
REMARK    5  A    between atoms: N_9  and  C_11 
REMARK    6  A    between atoms: C_11  and  C_12 
REMARK       I    between atoms: C_12  and  N_13 
REMARK    7  A    between atoms: N_13  and  C_14 
REMARK    8  A    between atoms: C_20  and  C_21 
REMARK    9  A    between atoms: C_21  and  O_22 
REMARK   10  A    between atoms: C_28  and  O_29 
ROOT
HETATM    1  C   UNL     1      41.671 -13.149   4.947  1.00  0.00     0.228 C 
HETATM    2  N   UNL     1      41.155 -12.447   3.697  1.00  0.00    -0.054 N 
HETATM    3  H   UNL     1      40.323 -12.991   3.406  1.00  0.00     0.281 HD
HETATM    4  C   UNL     1      40.591 -11.077   3.986  1.00  0.00     0.239 C 
HETATM    5  C   UNL     1      41.638 -10.198   4.648  1.00  0.00     0.066 C 
HETATM    6  C   UNL     1      42.144 -10.839   5.937  1.00  0.00     0.065 C 
HETATM    7  C   UNL     1      42.719 -12.253   5.664  1.00  0.00     0.055 C 
HETATM    8  C   UNL     1      43.199  -9.948   6.617  1.00  0.00     0.038 C 
HETATM    9  C   UNL     1      43.718 -10.565   7.914  1.00  0.00     0.003 C 
HETATM   10  C   UNL     1      44.227 -11.984   7.698  1.00  0.00     0.001 C 
HETATM   11  C   UNL     1      43.191 -12.868   7.005  1.00  0.00     0.010 C 
ENDROOT
BRANCH   2  12
HETATM   12  C   UNL     1      42.013 -12.506   2.423  1.00  0.00     0.338 C 
BRANCH  12  13
HETATM   13  C   UNL     1      41.148 -12.121   1.215  1.00  0.00     0.248 C 
HETATM   14  N   UNL     1      40.092 -12.971   0.971  1.00  0.00    -0.319 N 
HETATM   15  H   UNL     1      39.657 -13.471   1.749  1.00  0.00     0.169 HD
HETATM   16  O   UNL     1      41.491 -11.140   0.556  1.00  0.00    -0.271 OA
BRANCH  14  17
HETATM   17  C   UNL     1      39.399 -13.065  -0.232  1.00  0.00     0.094 A 
HETATM   18  S   UNL     1      39.678 -14.366  -1.280  1.00  0.00    -0.076 SA
HETATM   19  C   UNL     1      38.465 -13.861  -2.363  1.00  0.00    -0.012 A 
HETATM   20  C   UNL     1      38.200 -14.673  -3.593  1.00  0.00     0.057 C 
HETATM   21  C   UNL     1      37.839 -12.695  -1.944  1.00  0.00    -0.030 A 
HETATM   22  C   UNL     1      36.738 -12.022  -2.710  1.00  0.00     0.050 C 
HETATM   23  C   UNL     1      38.379 -12.230  -0.671  1.00  0.00     0.080 A 
BRANCH  23  24
HETATM   24  C   UNL     1      37.978 -11.054   0.112  1.00  0.00     0.296 C 
HETATM   25  O   UNL     1      37.314 -11.157   1.142  1.00  0.00    -0.259 OA
BRANCH  24  26
HETATM   26  O   UNL     1      38.420  -9.875  -0.400  1.00  0.00    -0.322 OA
HETATM   27  C   UNL     1      37.394  -8.940  -0.730  1.00  0.00     0.213 C 
ENDBRANCH  24  26
ENDBRANCH  23  24
ENDBRANCH  14  17
ENDBRANCH  12  13
ENDBRANCH   2  12
BRANCH   1  28
HETATM   28  C   UNL     1      42.067 -14.589   4.652  1.00  0.00    -0.027 A 
HETATM   29  C   UNL     1      41.233 -15.496   3.982  1.00  0.00     0.011 A 
HETATM   30  C   UNL     1      41.680 -16.784   3.659  1.00  0.00     0.030 A 
HETATM   31  C   UNL     1      42.953 -17.225   4.029  1.00  0.00     0.030 A 
HETATM   32  C   UNL     1      43.752 -16.346   4.770  1.00  0.00     0.030 A 
HETATM   33  C   UNL     1      43.325 -15.047   5.070  1.00  0.00     0.011 A 
BRANCH  31  34
HETATM   34  N   UNL     1      43.467 -18.469   3.669  1.00  0.00    -0.382 N 
BRANCH  34  35
HETATM   35  C   UNL     1      44.526 -19.078   4.486  1.00  0.00     0.118 C 
HETATM   36  C   UNL     1      43.955 -20.129   5.430  1.00  0.00     0.026 C 
ENDBRANCH  34  35
BRANCH  34  37
HETATM   37  C   UNL     1      43.502 -18.748   2.225  1.00  0.00     0.118 C 
HETATM   38  C   UNL     1      43.179 -20.204   1.911  1.00  0.00     0.026 C 
ENDBRANCH  34  37
ENDBRANCH  31  34
ENDBRANCH   1  28
BRANCH   6  39
HETATM   39  O   UNL     1      41.010 -10.975   6.802  1.00  0.00    -0.389 OA
HETATM   40  H   UNL     1      40.624 -11.866   6.694  1.00  0.00     0.210 HD
ENDBRANCH   6  39
TORSDOF 10
ENDMDL
MODEL 6
REMARK VINA RESULT:      -7.6      1.345      2.033
REMARK  10 active torsions:
REMARK  status: ('A' for Active; 'I' for Inactive)
REMARK    1  A    between atoms: C_2  and  N_3 
REMARK    2  A    between atoms: N_3  and  C_4 
REMARK    3  A    between atoms: N_3  and  C_37 
REMARK    4  A    between atoms: C_7  and  C_8 
REMARK    5  A    between atoms: N_9  and  C_11 
REMARK    6  A    between atoms: C_11  and  C_12 
REMARK       I    between atoms: C_12  and  N_13 
REMARK    7  A    between atoms: N_13  and  C_14 
REMARK    8  A    between atoms: C_20  and  C_21 
REMARK    9  A    between atoms: C_21  and  O_22 
REMARK   10  A    between atoms: C_28  and  O_29 
ROOT
HETATM    1  C   UNL     1      40.810 -13.015   2.214  1.00  0.00     0.228 C 
HETATM    2  N   UNL     1      40.176 -11.997   3.153  1.00  0.00    -0.054 N 
HETATM    3  H   UNL     1      40.950 -11.670   3.758  1.00  0.00     0.281 HD
HETATM    4  C   UNL     1      39.735 -10.740   2.443  1.00  0.00     0.239 C 
HETATM    5  C   UNL     1      38.747 -11.071   1.336  1.00  0.00     0.066 C 
HETATM    6  C   UNL     1      39.363 -12.049   0.339  1.00  0.00     0.065 C 
HETATM    7  C   UNL     1      39.832 -13.345   1.051  1.00  0.00     0.055 C 
HETATM    8  C   UNL     1      38.370 -12.381  -0.789  1.00  0.00     0.038 C 
HETATM    9  C   UNL     1      38.964 -13.355  -1.805  1.00  0.00     0.003 C 
HETATM   10  C   UNL     1      39.500 -14.611  -1.133  1.00  0.00     0.001 C 
HETATM   11  C   UNL     1      40.472 -14.287   0.002  1.00  0.00     0.010 C 
ENDROOT
BRANCH   2  12
HETATM   12  C   UNL     1      39.168 -12.501   4.199  1.00  0.00     0.338 C 
BRANCH  12  13
HETATM   13  C   UNL     1      39.644 -12.083   5.597  1.00  0.00     0.248 C 
HETATM   14  N   UNL     1      39.914 -10.739   5.735  1.00  0.00    -0.319 N 
HETATM   15  H   UNL     1      39.401 -10.062   5.168  1.00  0.00     0.169 HD
HETATM   16  O   UNL     1      39.789 -12.969   6.440  1.00  0.00    -0.271 OA
BRANCH  14  17
HETATM   17  C   UNL     1      40.685 -10.174   6.747  1.00  0.00     0.094 A 
HETATM   18  S   UNL     1      39.940  -9.465   8.092  1.00  0.00    -0.076 SA
HETATM   19  C   UNL     1      41.429  -9.150   8.855  1.00  0.00    -0.012 A 
HETATM   20  C   UNL     1      41.437  -8.487  10.197  1.00  0.00     0.057 C 
HETATM   21  C   UNL     1      42.510  -9.575   8.093  1.00  0.00    -0.030 A 
HETATM   22  C   UNL     1      43.940  -9.417   8.518  1.00  0.00     0.050 C 
HETATM   23  C   UNL     1      42.070 -10.199   6.849  1.00  0.00     0.080 A 
BRANCH  23  24
HETATM   24  C   UNL     1      42.893 -10.790   5.786  1.00  0.00     0.296 C 
HETATM   25  O   UNL     1      42.753 -10.473   4.606  1.00  0.00    -0.259 OA
BRANCH  24  26
HETATM   26  O   UNL     1      43.810 -11.687   6.236  1.00  0.00    -0.322 OA
HETATM   27  C   UNL     1      45.151 -11.441   5.811  1.00  0.00     0.213 C 
ENDBRANCH  24  26
ENDBRANCH  23  24
ENDBRANCH  14  17
ENDBRANCH  12  13
ENDBRANCH   2  12
BRANCH   1  28
HETATM   28  C   UNL     1      41.401 -14.188   2.984  1.00  0.00    -0.027 A 
HETATM   29  C   UNL     1      40.757 -15.427   3.115  1.00  0.00     0.011 A 
HETATM   30  C   UNL     1      41.384 -16.500   3.762  1.00  0.00     0.030 A 
HETATM   31  C   UNL     1      42.651 -16.364   4.334  1.00  0.00     0.030 A 
HETATM   32  C   UNL     1      43.256 -15.103   4.273  1.00  0.00     0.030 A 
HETATM   33  C   UNL     1      42.651 -14.034   3.603  1.00  0.00     0.011 A 
BRANCH  31  34
HETATM   34  N   UNL     1      43.343 -17.421   4.922  1.00  0.00    -0.382 N 
BRANCH  34  35
HETATM   35  C   UNL     1      43.489 -18.687   4.189  1.00  0.00     0.118 C 
HETATM   36  C   UNL     1      44.164 -18.464   2.841  1.00  0.00     0.026 C 
ENDBRANCH  34  35
BRANCH  34  37
HETATM   37  C   UNL     1      43.237 -17.513   6.386  1.00  0.00     0.118 C 
HETATM   38  C   UNL     1      43.316 -18.952   6.881  1.00  0.00     0.026 C 
ENDBRANCH  34  37
ENDBRANCH  31  34
ENDBRANCH   1  28
BRANCH   6  39
HETATM   39  O   UNL     1      40.513 -11.400  -0.217  1.00  0.00    -0.389 OA
HETATM   40  H   UNL     1      41.317 -11.719   0.238  1.00  0.00     0.210 HD
ENDBRANCH   6  39
TORSDOF 10
ENDMDL
MODEL 7
REMARK VINA RESULT:      -7.6      2.145      6.155
REMARK  10 active torsions:
REMARK  status: ('A' for Active; 'I' for Inactive)
REMARK    1  A    between atoms: C_2  and  N_3 
REMARK    2  A    between atoms: N_3  and  C_4 
REMARK    3  A    between atoms: N_3  and  C_37 
REMARK    4  A    between atoms: C_7  and  C_8 
REMARK    5  A    between atoms: N_9  and  C_11 
REMARK    6  A    between atoms: C_11  and  C_12 
REMARK       I    between atoms: C_12  and  N_13 
REMARK    7  A    between atoms: N_13  and  C_14 
REMARK    8  A    between atoms: C_20  and  C_21 
REMARK    9  A    between atoms: C_21  and  O_22 
REMARK   10  A    between atoms: C_28  and  O_29 
ROOT
HETATM    1  C   UNL     1      41.743 -14.845   4.002  1.00  0.00     0.228 C 
HETATM    2  N   UNL     1      42.257 -13.687   4.848  1.00  0.00    -0.054 N 
HETATM    3  H   UNL     1      41.417 -13.126   5.075  1.00  0.00     0.281 HD
HETATM    4  C   UNL     1      42.757 -14.129   6.202  1.00  0.00     0.239 C 
HETATM    5  C   UNL     1      43.865 -15.158   6.052  1.00  0.00     0.066 C 
HETATM    6  C   UNL     1      43.375 -16.365   5.255  1.00  0.00     0.065 C 
HETATM    7  C   UNL     1      42.847 -15.931   3.863  1.00  0.00     0.055 C 
HETATM    8  C   UNL     1      44.490 -17.415   5.108  1.00  0.00     0.038 C 
HETATM    9  C   UNL     1      44.023 -18.637   4.318  1.00  0.00     0.003 C 
HETATM   10  C   UNL     1      43.432 -18.243   2.971  1.00  0.00     0.001 C 
HETATM   11  C   UNL     1      42.338 -17.185   3.110  1.00  0.00     0.010 C 
ENDROOT
BRANCH   2  12
HETATM   12  C   UNL     1      43.150 -12.633   4.173  1.00  0.00     0.338 C 
BRANCH  12  13
HETATM   13  C   UNL     1      43.500 -11.542   5.195  1.00  0.00     0.248 C 
HETATM   14  N   UNL     1      42.422 -11.038   5.889  1.00  0.00    -0.319 N 
HETATM   15  H   UNL     1      41.613 -11.636   6.066  1.00  0.00     0.169 HD
HETATM   16  O   UNL     1      44.676 -11.185   5.268  1.00  0.00    -0.271 OA
BRANCH  14  17
HETATM   17  C   UNL     1      42.406  -9.830   6.579  1.00  0.00     0.094 A 
HETATM   18  S   UNL     1      43.358  -9.624   7.964  1.00  0.00    -0.076 SA
HETATM   19  C   UNL     1      42.913  -7.990   8.130  1.00  0.00    -0.012 A 
HETATM   20  C   UNL     1      43.481  -7.188   9.260  1.00  0.00     0.057 C 
HETATM   21  C   UNL     1      42.030  -7.583   7.138  1.00  0.00    -0.030 A 
HETATM   22  C   UNL     1      41.467  -6.195   7.044  1.00  0.00     0.050 C 
HETATM   23  C   UNL     1      41.741  -8.669   6.206  1.00  0.00     0.080 A 
BRANCH  23  24
HETATM   24  C   UNL     1      40.877  -8.643   5.018  1.00  0.00     0.296 C 
HETATM   25  O   UNL     1      41.333  -8.777   3.884  1.00  0.00    -0.259 OA
BRANCH  24  26
HETATM   26  O   UNL     1      39.559  -8.474   5.301  1.00  0.00    -0.322 OA
HETATM   27  C   UNL     1      38.783  -9.673   5.292  1.00  0.00     0.213 C 
ENDBRANCH  24  26
ENDBRANCH  23  24
ENDBRANCH  14  17
ENDBRANCH  12  13
ENDBRANCH   2  12
BRANCH   1  28
HETATM   28  C   UNL     1      41.086 -14.349   2.721  1.00  0.00    -0.027 A 
HETATM   29  C   UNL     1      39.914 -13.578   2.705  1.00  0.00     0.011 A 
HETATM   30  C   UNL     1      39.399 -13.074   1.503  1.00  0.00     0.030 A 
HETATM   31  C   UNL     1      40.008 -13.356   0.277  1.00  0.00     0.030 A 
HETATM   32  C   UNL     1      41.129 -14.193   0.290  1.00  0.00     0.030 A 
HETATM   33  C   UNL     1      41.668 -14.676   1.488  1.00  0.00     0.011 A 
BRANCH  31  34
HETATM   34  N   UNL     1      39.575 -12.819  -0.933  1.00  0.00    -0.382 N 
BRANCH  34  35
HETATM   35  C   UNL     1      38.673 -13.603  -1.790  1.00  0.00     0.118 C 
HETATM   36  C   UNL     1      37.436 -12.795  -2.167  1.00  0.00     0.026 C 
ENDBRANCH  34  35
BRANCH  34  37
HETATM   37  C   UNL     1      40.531 -11.934  -1.614  1.00  0.00     0.118 C 
HETATM   38  C   UNL     1      41.008 -12.511  -2.941  1.00  0.00     0.026 C 
ENDBRANCH  34  37
ENDBRANCH  31  34
ENDBRANCH   1  28
BRANCH   6  39
HETATM   39  O   UNL     1      42.285 -16.930   5.993  1.00  0.00    -0.389 OA
HETATM   40  H   UNL     1      42.559 -17.788   6.371  1.00  0.00     0.210 HD
ENDBRANCH   6  39
TORSDOF 10
ENDMDL
MODEL 8
REMARK VINA RESULT:      -7.6      2.355      6.271
REMARK  10 active torsions:
REMARK  status: ('A' for Active; 'I' for Inactive)
REMARK    1  A    between atoms: C_2  and  N_3 
REMARK    2  A    between atoms: N_3  and  C_4 
REMARK    3  A    between atoms: N_3  and  C_37 
REMARK    4  A    between atoms: C_7  and  C_8 
REMARK    5  A    between atoms: N_9  and  C_11 
REMARK    6  A    between atoms: C_11  and  C_12 
REMARK       I    between atoms: C_12  and  N_13 
REMARK    7  A    between atoms: N_13  and  C_14 
REMARK    8  A    between atoms: C_20  and  C_21 
REMARK    9  A    between atoms: C_21  and  O_22 
REMARK   10  A    between atoms: C_28  and  O_29 
ROOT
HETATM    1  C   UNL     1      41.583 -14.806   4.160  1.00  0.00     0.228 C 
HETATM    2  N   UNL     1      41.949 -13.790   5.235  1.00  0.00    -0.054 N 
HETATM    3  H   UNL     1      41.056 -13.328   5.483  1.00  0.00     0.281 HD
HETATM    4  C   UNL     1      42.378 -14.436   6.529  1.00  0.00     0.239 C 
HETATM    5  C   UNL     1      43.565 -15.357   6.298  1.00  0.00     0.066 C 
HETATM    6  C   UNL     1      43.222 -16.428   5.265  1.00  0.00     0.065 C 
HETATM    7  C   UNL     1      42.769 -15.784   3.929  1.00  0.00     0.055 C 
HETATM    8  C   UNL     1      44.418 -17.369   5.033  1.00  0.00     0.038 C 
HETATM    9  C   UNL     1      44.100 -18.455   4.007  1.00  0.00     0.003 C 
HETATM   10  C   UNL     1      43.583 -17.861   2.703  1.00  0.00     0.001 C 
HETATM   11  C   UNL     1      42.408 -16.910   2.929  1.00  0.00     0.010 C 
ENDROOT
BRANCH   2  12
HETATM   12  C   UNL     1      42.811 -12.583   4.832  1.00  0.00     0.338 C 
BRANCH  12  13
HETATM   13  C   UNL     1      42.343 -11.347   5.614  1.00  0.00     0.248 C 
HETATM   14  N   UNL     1      40.980 -11.258   5.788  1.00  0.00    -0.319 N 
HETATM   15  H   UNL     1      40.422 -12.113   5.839  1.00  0.00     0.169 HD
HETATM   16  O   UNL     1      43.201 -10.537   5.967  1.00  0.00    -0.271 OA
BRANCH  14  17
HETATM   17  C   UNL     1      40.287 -10.099   6.122  1.00  0.00     0.094 A 
HETATM   18  S   UNL     1      40.154  -9.620   7.741  1.00  0.00    -0.076 SA
HETATM   19  C   UNL     1      39.345  -8.178   7.335  1.00  0.00    -0.012 A 
HETATM   20  C   UNL     1      38.933  -7.239   8.426  1.00  0.00     0.057 C 
HETATM   21  C   UNL     1      39.161  -8.047   5.965  1.00  0.00    -0.030 A 
HETATM   22  C   UNL     1      38.472  -6.877   5.327  1.00  0.00     0.050 C 
HETATM   23  C   UNL     1      39.735  -9.178   5.241  1.00  0.00     0.080 A 
BRANCH  23  24
HETATM   24  C   UNL     1      39.767  -9.408   3.791  1.00  0.00     0.296 C 
HETATM   25  O   UNL     1      38.772  -9.782   3.172  1.00  0.00    -0.259 OA
BRANCH  24  26
HETATM   26  O   UNL     1      40.975  -9.156   3.221  1.00  0.00    -0.322 OA
HETATM   27  C   UNL     1      41.387 -10.106   2.239  1.00  0.00     0.213 C 
ENDBRANCH  24  26
ENDBRANCH  23  24
ENDBRANCH  14  17
ENDBRANCH  12  13
ENDBRANCH   2  12
BRANCH   1  28
HETATM   28  C   UNL     1      40.987 -14.127   2.934  1.00  0.00    -0.027 A 
HETATM   29  C   UNL     1      41.655 -14.034   1.704  1.00  0.00     0.011 A 
HETATM   30  C   UNL     1      41.027 -13.474   0.584  1.00  0.00     0.030 A 
HETATM   31  C   UNL     1      39.733 -12.953   0.660  1.00  0.00     0.030 A 
HETATM   32  C   UNL     1      39.101 -12.973   1.909  1.00  0.00     0.030 A 
HETATM   33  C   UNL     1      39.709 -13.557   3.027  1.00  0.00     0.011 A 
BRANCH  31  34
HETATM   34  N   UNL     1      39.043 -12.453  -0.441  1.00  0.00    -0.382 N 
BRANCH  34  35
HETATM   35  C   UNL     1      37.943 -11.499  -0.235  1.00  0.00     0.118 C 
HETATM   36  C   UNL     1      38.443 -10.061  -0.315  1.00  0.00     0.026 C 
ENDBRANCH  34  35
BRANCH  34  37
HETATM   37  C   UNL     1      38.913 -13.373  -1.581  1.00  0.00     0.118 C 
HETATM   38  C   UNL     1      37.552 -13.267  -2.258  1.00  0.00     0.026 C 
ENDBRANCH  34  37
ENDBRANCH  31  34
ENDBRANCH   1  28
BRANCH   6  39
HETATM   39  O   UNL     1      42.125 -17.178   5.798  1.00  0.00    -0.389 OA
HETATM   40  H   UNL     1      42.443 -17.747   6.525  1.00  0.00     0.210 HD
ENDBRANCH   6  39
TORSDOF 10
ENDMDL
MODEL 9
REMARK VINA RESULT:      -7.6      3.384      7.137
REMARK  10 active torsions:
REMARK  status: ('A' for Active; 'I' for Inactive)
REMARK    1  A    between atoms: C_2  and  N_3 
REMARK    2  A    between atoms: N_3  and  C_4 
REMARK    3  A    between atoms: N_3  and  C_37 
REMARK    4  A    between atoms: C_7  and  C_8 
REMARK    5  A    between atoms: N_9  and  C_11 
REMARK    6  A    between atoms: C_11  and  C_12 
REMARK       I    between atoms: C_12  and  N_13 
REMARK    7  A    between atoms: N_13  and  C_14 
REMARK    8  A    between atoms: C_20  and  C_21 
REMARK    9  A    between atoms: C_21  and  O_22 
REMARK   10  A    between atoms: C_28  and  O_29 
ROOT
HETATM    1  C   UNL     1      41.589 -13.642   5.741  1.00  0.00     0.228 C 
HETATM    2  N   UNL     1      42.606 -13.253   6.807  1.00  0.00    -0.054 N 
HETATM    3  H   UNL     1      42.046 -12.846   7.577  1.00  0.00     0.281 HD
HETATM    4  C   UNL     1      43.265 -14.448   7.451  1.00  0.00     0.239 C 
HETATM    5  C   UNL     1      43.956 -15.306   6.403  1.00  0.00     0.066 C 
HETATM    6  C   UNL     1      42.959 -15.765   5.341  1.00  0.00     0.065 C 
HETATM    7  C   UNL     1      42.262 -14.551   4.673  1.00  0.00     0.055 C 
HETATM    8  C   UNL     1      43.651 -16.642   4.282  1.00  0.00     0.038 C 
HETATM    9  C   UNL     1      42.674 -17.120   3.209  1.00  0.00     0.003 C 
HETATM   10  C   UNL     1      41.917 -15.958   2.579  1.00  0.00     0.001 C 
HETATM   11  C   UNL     1      41.245 -15.073   3.628  1.00  0.00     0.010 C 
ENDROOT
BRANCH   2  12
HETATM   12  C   UNL     1      43.577 -12.102   6.500  1.00  0.00     0.338 C 
BRANCH  12  13
HETATM   13  C   UNL     1      43.871 -11.333   7.796  1.00  0.00     0.248 C 
HETATM   14  N   UNL     1      42.769 -10.744   8.377  1.00  0.00    -0.319 N 
HETATM   15  H   UNL     1      41.848 -11.170   8.255  1.00  0.00     0.169 HD
HETATM   16  O   UNL     1      45.043 -11.267   8.167  1.00  0.00    -0.271 OA
BRANCH  14  17
HETATM   17  C   UNL     1      42.809  -9.718   9.315  1.00  0.00     0.094 A 
HETATM   18  S   UNL     1      43.305 -10.032  10.904  1.00  0.00    -0.076 SA
HETATM   19  C   UNL     1      43.205  -8.392  11.348  1.00  0.00    -0.012 A 
HETATM   20  C   UNL     1      43.557  -7.991  12.747  1.00  0.00     0.057 C 
HETATM   21  C   UNL     1      42.788  -7.587  10.296  1.00  0.00    -0.030 A 
HETATM   22  C   UNL     1      42.605  -6.102  10.407  1.00  0.00     0.050 C 
HETATM   23  C   UNL     1      42.568  -8.370   9.084  1.00  0.00     0.080 A 
BRANCH  23  24
HETATM   24  C   UNL     1      42.145  -7.896   7.759  1.00  0.00     0.296 C 
HETATM   25  O   UNL     1      42.760  -7.017   7.159  1.00  0.00    -0.259 OA
BRANCH  24  26
HETATM   26  O   UNL     1      41.042  -8.526   7.277  1.00  0.00    -0.322 OA
HETATM   27  C   UNL     1      39.819  -8.184   7.930  1.00  0.00     0.213 C 
ENDBRANCH  24  26
ENDBRANCH  23  24
ENDBRANCH  14  17
ENDBRANCH  12  13
ENDBRANCH   2  12
BRANCH   1  28
HETATM   28  C   UNL     1      40.818 -12.429   5.240  1.00  0.00    -0.027 A 
HETATM   29  C   UNL     1      41.168 -11.717   4.084  1.00  0.00     0.011 A 
HETATM   30  C   UNL     1      40.373 -10.660   3.620  1.00  0.00     0.030 A 
HETATM   31  C   UNL     1      39.230 -10.252   4.313  1.00  0.00     0.030 A 
HETATM   32  C   UNL     1      38.930 -10.911   5.510  1.00  0.00     0.030 A 
HETATM   33  C   UNL     1      39.701 -11.988   5.965  1.00  0.00     0.011 A 
BRANCH  31  34
HETATM   34  N   UNL     1      38.371  -9.256   3.853  1.00  0.00    -0.382 N 
BRANCH  34  35
HETATM   35  C   UNL     1      38.448  -8.827   2.448  1.00  0.00     0.118 C 
HETATM   36  C   UNL     1      37.533  -9.669   1.567  1.00  0.00     0.026 C 
ENDBRANCH  34  35
BRANCH  34  37
HETATM   37  C   UNL     1      38.002  -8.229   4.839  1.00  0.00     0.118 C 
HETATM   38  C   UNL     1      38.613  -6.872   4.515  1.00  0.00     0.026 C 
ENDBRANCH  34  37
ENDBRANCH  31  34
ENDBRANCH   1  28
BRANCH   6  39
HETATM   39  O   UNL     1      41.963 -16.538   6.020  1.00  0.00    -0.389 OA
HETATM   40  H   UNL     1      41.873 -16.218   6.938  1.00  0.00     0.210 HD
ENDBRANCH   6  39
TORSDOF 10
ENDMDL
MODEL 10
REMARK VINA RESULT:      -7.6      2.554      7.378
REMARK  10 active torsions:
REMARK  status: ('A' for Active; 'I' for Inactive)
REMARK    1  A    between atoms: C_2  and  N_3 
REMARK    2  A    between atoms: N_3  and  C_4 
REMARK    3  A    between atoms: N_3  and  C_37 
REMARK    4  A    between atoms: C_7  and  C_8 
REMARK    5  A    between atoms: N_9  and  C_11 
REMARK    6  A    between atoms: C_11  and  C_12 
REMARK       I    between atoms: C_12  and  N_13 
REMARK    7  A    between atoms: N_13  and  C_14 
REMARK    8  A    between atoms: C_20  and  C_21 
REMARK    9  A    between atoms: C_21  and  O_22 
REMARK   10  A    between atoms: C_28  and  O_29 
ROOT
HETATM    1  C   UNL     1      42.032 -10.794   6.548  1.00  0.00     0.228 C 
HETATM    2  N   UNL     1      41.277  -9.781   5.696  1.00  0.00    -0.054 N 
HETATM    3  H   UNL     1      40.366 -10.228   5.491  1.00  0.00     0.281 HD
HETATM    4  C   UNL     1      40.892  -8.541   6.465  1.00  0.00     0.239 C 
HETATM    5  C   UNL     1      42.125  -7.871   7.050  1.00  0.00     0.066 C 
HETATM    6  C   UNL     1      42.883  -8.837   7.957  1.00  0.00     0.065 C 
HETATM    7  C   UNL     1      43.280 -10.123   7.188  1.00  0.00     0.055 C 
HETATM    8  C   UNL     1      44.128  -8.161   8.559  1.00  0.00     0.038 C 
HETATM    9  C   UNL     1      44.903  -9.105   9.477  1.00  0.00     0.003 C 
HETATM   10  C   UNL     1      45.250 -10.412   8.776  1.00  0.00     0.001 C 
HETATM   11  C   UNL     1      44.020 -11.077   8.159  1.00  0.00     0.010 C 
ENDROOT
BRANCH   2  12
HETATM   12  C   UNL     1      41.797  -9.492   4.278  1.00  0.00     0.338 C 
BRANCH  12  13
HETATM   13  C   UNL     1      41.050 -10.385   3.278  1.00  0.00     0.248 C 
HETATM   14  N   UNL     1      41.843 -10.934   2.294  1.00  0.00    -0.319 N 
HETATM   15  H   UNL     1      42.826 -11.132   2.491  1.00  0.00     0.169 HD
HETATM   16  O   UNL     1      39.830 -10.491   3.407  1.00  0.00    -0.271 OA
BRANCH  14  17
HETATM   17  C   UNL     1      41.381 -11.459   1.091  1.00  0.00     0.094 A 
HETATM   18  S   UNL     1      40.815 -13.053   1.016  1.00  0.00    -0.076 SA
HETATM   19  C   UNL     1      40.359 -12.903  -0.617  1.00  0.00    -0.012 A 
HETATM   20  C   UNL     1      39.735 -14.073  -1.312  1.00  0.00     0.057 C 
HETATM   21  C   UNL     1      40.638 -11.642  -1.126  1.00  0.00    -0.030 A 
HETATM   22  C   UNL     1      40.348 -11.233  -2.541  1.00  0.00     0.050 C 
HETATM   23  C   UNL     1      41.229 -10.777  -0.110  1.00  0.00     0.080 A 
BRANCH  23  24
HETATM   24  C   UNL     1      41.647  -9.375  -0.239  1.00  0.00     0.296 C 
HETATM   25  O   UNL     1      41.071  -8.470   0.362  1.00  0.00    -0.259 OA
BRANCH  24  26
HETATM   26  O   UNL     1      42.716  -9.193  -1.057  1.00  0.00    -0.322 OA
HETATM   27  C   UNL     1      42.988  -7.834  -1.399  1.00  0.00     0.213 C 
ENDBRANCH  24  26
ENDBRANCH  23  24
ENDBRANCH  14  17
ENDBRANCH  12  13
ENDBRANCH   2  12
BRANCH   1  28
HETATM   28  C   UNL     1      42.248 -12.100   5.796  1.00  0.00    -0.027 A 
HETATM   29  C   UNL     1      43.418 -12.392   5.079  1.00  0.00     0.011 A 
HETATM   30  C   UNL     1      43.600 -13.644   4.477  1.00  0.00     0.030 A 
HETATM   31  C   UNL     1      42.610 -14.629   4.532  1.00  0.00     0.030 A 
HETATM   32  C   UNL     1      41.411 -14.304   5.178  1.00  0.00     0.030 A 
HETATM   33  C   UNL     1      41.232 -13.067   5.808  1.00  0.00     0.011 A 
BRANCH  31  34
HETATM   34  N   UNL     1      42.775 -15.910   4.012  1.00  0.00    -0.382 N 
BRANCH  34  35
HETATM   35  C   UNL     1      42.180 -16.244   2.709  1.00  0.00     0.118 C 
HETATM   36  C   UNL     1      43.173 -16.010   1.577  1.00  0.00     0.026 C 
ENDBRANCH  34  35
BRANCH  34  37
HETATM   37  C   UNL     1      42.849 -16.995   5.002  1.00  0.00     0.118 C 
HETATM   38  C   UNL     1      44.031 -17.923   4.755  1.00  0.00     0.026 C 
ENDBRANCH  34  37
ENDBRANCH  31  34
ENDBRANCH   1  28
BRANCH   6  39
HETATM   39  O   UNL     1      41.985  -9.202   9.011  1.00  0.00    -0.389 OA
HETATM   40  H   UNL     1      41.166  -9.571   8.627  1.00  0.00     0.210 HD
ENDBRANCH   6  39
TORSDOF 10
ENDMDL
