MODEL 1
REMARK VINA RESULT:      -8.7      0.000      0.000
REMARK  5 active torsions:
REMARK  status: ('A' for Active; 'I' for Inactive)
REMARK    1  A    between atoms: O_2  and  C_3 
REMARK    2  A    between atoms: C_5  and  C_23 
REMARK    3  A    between atoms: C_11  and  C_14 
REMARK    4  A    between atoms: C_14  and  N_15 
REMARK    5  A    between atoms: C_14  and  C_16 
ROOT
HETATM    1  C   UNL     1      42.659 -16.230   5.914  1.00  0.00     0.098 A 
HETATM    2  C   UNL     1      42.957 -17.557   5.564  1.00  0.00     0.051 A 
HETATM    3  C   UNL     1      43.388 -17.886   4.269  1.00  0.00    -0.019 A 
HETATM    4  C   UNL     1      43.519 -16.867   3.323  1.00  0.00     0.032 A 
HETATM    5  C   UNL     1      43.233 -15.545   3.677  1.00  0.00     0.064 A 
HETATM    6  C   UNL     1      43.344 -14.467   2.678  1.00  0.00     0.259 A 
HETATM    7  O   UNL     1      43.686 -14.686   1.523  1.00  0.00    -0.267 OA
HETATM    8  N   UNL     1      43.030 -13.215   3.126  1.00  0.00    -0.309 N 
HETATM    9  C   UNL     1      42.639 -12.947   4.412  1.00  0.00     0.145 A 
HETATM   10  N   UNL     1      42.521 -13.862   5.319  1.00  0.00    -0.229 NA
HETATM   11  C   UNL     1      42.811 -15.200   4.966  1.00  0.00     0.108 A 
HETATM   12  H   UNL     1      43.051 -12.460   2.454  1.00  0.00     0.170 HD
ENDROOT
BRANCH   9  13
HETATM   13  C   UNL     1      42.322 -11.477   4.726  1.00  0.00     0.320 C 
BRANCH  13  14
HETATM   14  N   UNL     1      42.564 -10.681   3.504  1.00  0.00     0.094 N 
HETATM   15  H   UNL     1      41.972 -11.064   2.765  1.00  0.00     0.314 HD
HETATM   16  H   UNL     1      43.521 -10.866   3.199  1.00  0.00     0.314 HD
ENDBRANCH  13  14
BRANCH  13  17
HETATM   17  C   UNL     1      43.119 -10.977   5.920  1.00  0.00    -0.018 A 
HETATM   18  C   UNL     1      44.490 -11.281   6.000  1.00  0.00     0.011 A 
HETATM   19  C   UNL     1      45.262 -10.825   7.072  1.00  0.00     0.024 A 
HETATM   20  C   UNL     1      44.674 -10.058   8.073  1.00  0.00     0.034 A 
HETATM   21 CL   UNL     1      45.623  -9.499   9.396  1.00  0.00    -0.084 Cl
HETATM   22  C   UNL     1      43.322  -9.736   8.009  1.00  0.00     0.024 A 
HETATM   23  C   UNL     1      42.549 -10.191   6.937  1.00  0.00     0.011 A 
ENDBRANCH  13  17
ENDBRANCH   9  13
BRANCH   1  24
HETATM   24  O   UNL     1      42.239 -15.843   7.165  1.00  0.00    -0.354 OA
HETATM   25  C   UNL     1      43.227 -15.769   8.185  1.00  0.00     0.210 C 
ENDBRANCH   1  24
BRANCH   3  26
HETATM   26  C   UNL     1      43.678 -19.269   3.927  1.00  0.00     0.010 A 
HETATM   27  C   UNL     1      43.637 -19.945   2.684  1.00  0.00     0.152 A 
HETATM   28  N   UNL     1      43.966 -21.236   2.783  1.00  0.00    -0.187 NA
HETATM   29  N   UNL     1      44.221 -21.394   4.092  1.00  0.00    -0.289 N 
HETATM   30  H   UNL     1      44.497 -22.313   4.421  1.00  0.00     0.188 HD
HETATM   31  C   UNL     1      44.060 -20.250   4.819  1.00  0.00     0.123 A 
ENDBRANCH   3  26
TORSDOF 5
ENDMDL
MODEL 2
REMARK VINA RESULT:      -8.7      0.913      2.801
REMARK  5 active torsions:
REMARK  status: ('A' for Active; 'I' for Inactive)
REMARK    1  A    between atoms: O_2  and  C_3 
REMARK    2  A    between atoms: C_5  and  C_23 
REMARK    3  A    between atoms: C_11  and  C_14 
REMARK    4  A    between atoms: C_14  and  N_15 
REMARK    5  A    between atoms: C_14  and  C_16 
ROOT
HETATM    1  C   UNL     1      43.191 -15.543   3.011  1.00  0.00     0.098 A 
HETATM    2  C   UNL     1      43.418 -16.924   2.891  1.00  0.00     0.051 A 
HETATM    3  C   UNL     1      43.494 -17.748   4.025  1.00  0.00    -0.019 A 
HETATM    4  C   UNL     1      43.339 -17.171   5.288  1.00  0.00     0.032 A 
HETATM    5  C   UNL     1      43.102 -15.798   5.405  1.00  0.00     0.064 A 
HETATM    6  C   UNL     1      42.963 -15.178   6.734  1.00  0.00     0.259 A 
HETATM    7  O   UNL     1      43.047 -15.831   7.767  1.00  0.00    -0.267 OA
HETATM    8  N   UNL     1      42.746 -13.829   6.734  1.00  0.00    -0.309 N 
HETATM    9  C   UNL     1      42.655 -13.077   5.592  1.00  0.00     0.145 A 
HETATM   10  N   UNL     1      42.778 -13.578   4.406  1.00  0.00    -0.229 NA
HETATM   11  C   UNL     1      43.015 -14.966   4.283  1.00  0.00     0.108 A 
HETATM   12  H   UNL     1      42.692 -13.364   7.631  1.00  0.00     0.170 HD
ENDROOT
BRANCH   9  13
HETATM   13  C   UNL     1      42.413 -11.573   5.795  1.00  0.00     0.320 C 
BRANCH  13  14
HETATM   14  N   UNL     1      42.627 -10.893   4.501  1.00  0.00     0.094 N 
HETATM   15  H   UNL     1      42.227  -9.956   4.576  1.00  0.00     0.314 HD
HETATM   16  H   UNL     1      42.055 -11.370   3.802  1.00  0.00     0.314 HD
ENDBRANCH  13  14
BRANCH  13  17
HETATM   17  C   UNL     1      43.289 -11.013   6.905  1.00  0.00    -0.018 A 
HETATM   18  C   UNL     1      42.702 -10.213   7.901  1.00  0.00     0.011 A 
HETATM   19  C   UNL     1      43.469  -9.694   8.947  1.00  0.00     0.024 A 
HETATM   20  C   UNL     1      44.830  -9.973   9.013  1.00  0.00     0.034 A 
HETATM   21 CL   UNL     1      45.777  -9.332  10.300  1.00  0.00    -0.084 Cl
HETATM   22  C   UNL     1      45.432 -10.773   8.045  1.00  0.00     0.024 A 
HETATM   23  C   UNL     1      44.665 -11.292   6.998  1.00  0.00     0.011 A 
ENDBRANCH  13  17
ENDBRANCH   9  13
BRANCH   1  24
HETATM   24  O   UNL     1      43.101 -14.685   1.940  1.00  0.00    -0.354 OA
HETATM   25  C   UNL     1      41.893 -14.712   1.191  1.00  0.00     0.210 C 
ENDBRANCH   1  24
BRANCH   3  26
HETATM   26  C   UNL     1      43.743 -19.172   3.877  1.00  0.00     0.010 A 
HETATM   27  C   UNL     1      43.691 -20.009   2.737  1.00  0.00     0.152 A 
HETATM   28  N   UNL     1      43.977 -21.284   3.014  1.00  0.00    -0.187 NA
HETATM   29  N   UNL     1      44.216 -21.271   4.335  1.00  0.00    -0.289 N 
HETATM   30  H   UNL     1      44.460 -22.145   4.789  1.00  0.00     0.188 HD
HETATM   31  C   UNL     1      44.086 -20.034   4.898  1.00  0.00     0.123 A 
ENDBRANCH   3  26
TORSDOF 5
ENDMDL
MODEL 3
REMARK VINA RESULT:      -8.1      2.576      4.160
REMARK  5 active torsions:
REMARK  status: ('A' for Active; 'I' for Inactive)
REMARK    1  A    between atoms: O_2  and  C_3 
REMARK    2  A    between atoms: C_5  and  C_23 
REMARK    3  A    between atoms: C_11  and  C_14 
REMARK    4  A    between atoms: C_14  and  N_15 
REMARK    5  A    between atoms: C_14  and  C_16 
ROOT
HETATM    1  C   UNL     1      43.172 -15.495   3.060  1.00  0.00     0.098 A 
HETATM    2  C   UNL     1      43.390 -16.878   2.958  1.00  0.00     0.051 A 
HETATM    3  C   UNL     1      43.516 -17.680   4.104  1.00  0.00    -0.019 A 
HETATM    4  C   UNL     1      43.421 -17.077   5.361  1.00  0.00     0.032 A 
HETATM    5  C   UNL     1      43.193 -15.701   5.460  1.00  0.00     0.064 A 
HETATM    6  C   UNL     1      43.117 -15.054   6.782  1.00  0.00     0.259 A 
HETATM    7  O   UNL     1      43.248 -15.686   7.823  1.00  0.00    -0.267 OA
HETATM    8  N   UNL     1      42.904 -13.704   6.764  1.00  0.00    -0.309 N 
HETATM    9  C   UNL     1      42.762 -12.975   5.613  1.00  0.00     0.145 A 
HETATM   10  N   UNL     1      42.829 -13.500   4.432  1.00  0.00    -0.229 NA
HETATM   11  C   UNL     1      43.056 -14.892   4.327  1.00  0.00     0.108 A 
HETATM   12  H   UNL     1      42.893 -13.221   7.653  1.00  0.00     0.170 HD
ENDROOT
BRANCH   9  13
HETATM   13  C   UNL     1      42.534 -11.467   5.796  1.00  0.00     0.320 C 
BRANCH  13  14
HETATM   14  N   UNL     1      42.273 -11.210   7.228  1.00  0.00     0.094 N 
HETATM   15  H   UNL     1      42.527 -10.239   7.417  1.00  0.00     0.314 HD
HETATM   16  H   UNL     1      42.935 -11.768   7.768  1.00  0.00     0.314 HD
ENDBRANCH  13  14
BRANCH  13  17
HETATM   17  C   UNL     1      41.419 -10.959   4.895  1.00  0.00    -0.018 A 
HETATM   18  C   UNL     1      40.086 -11.277   5.212  1.00  0.00     0.011 A 
HETATM   19  C   UNL     1      39.032 -10.815   4.419  1.00  0.00     0.024 A 
HETATM   20  C   UNL     1      39.298 -10.025   3.305  1.00  0.00     0.034 A 
HETATM   21 CL   UNL     1      38.001  -9.457   2.327  1.00  0.00    -0.084 Cl
HETATM   22  C   UNL     1      40.608  -9.687   2.978  1.00  0.00     0.024 A 
HETATM   23  C   UNL     1      41.662 -10.150   3.771  1.00  0.00     0.011 A 
ENDBRANCH  13  17
ENDBRANCH   9  13
BRANCH   1  24
HETATM   24  O   UNL     1      43.035 -14.659   1.978  1.00  0.00    -0.354 OA
HETATM   25  C   UNL     1      41.795 -14.702   1.282  1.00  0.00     0.210 C 
ENDBRANCH   1  24
BRANCH   3  26
HETATM   26  C   UNL     1      43.754 -19.108   3.974  1.00  0.00     0.010 A 
HETATM   27  C   UNL     1      43.691 -19.960   2.845  1.00  0.00     0.152 A 
HETATM   28  N   UNL     1      43.970 -21.232   3.138  1.00  0.00    -0.187 NA
HETATM   29  N   UNL     1      44.215 -21.203   4.458  1.00  0.00    -0.289 N 
HETATM   30  H   UNL     1      44.455 -22.073   4.922  1.00  0.00     0.188 HD
HETATM   31  C   UNL     1      44.096 -19.958   5.005  1.00  0.00     0.123 A 
ENDBRANCH   3  26
TORSDOF 5
ENDMDL
MODEL 4
REMARK VINA RESULT:      -8.0      2.161      2.575
REMARK  5 active torsions:
REMARK  status: ('A' for Active; 'I' for Inactive)
REMARK    1  A    between atoms: O_2  and  C_3 
REMARK    2  A    between atoms: C_5  and  C_23 
REMARK    3  A    between atoms: C_11  and  C_14 
REMARK    4  A    between atoms: C_14  and  N_15 
REMARK    5  A    between atoms: C_14  and  C_16 
ROOT
HETATM    1  C   UNL     1      43.319 -15.587   5.007  1.00  0.00     0.098 A 
HETATM    2  C   UNL     1      43.620 -16.944   4.808  1.00  0.00     0.051 A 
HETATM    3  C   UNL     1      43.290 -17.593   3.607  1.00  0.00    -0.019 A 
HETATM    4  C   UNL     1      42.653 -16.863   2.601  1.00  0.00     0.032 A 
HETATM    5  C   UNL     1      42.364 -15.508   2.796  1.00  0.00     0.064 A 
HETATM    6  C   UNL     1      41.669 -14.738   1.750  1.00  0.00     0.259 A 
HETATM    7  O   UNL     1      41.326 -15.245   0.690  1.00  0.00    -0.267 OA
HETATM    8  N   UNL     1      41.426 -13.427   2.050  1.00  0.00    -0.309 N 
HETATM    9  C   UNL     1      41.794 -12.838   3.231  1.00  0.00     0.145 A 
HETATM   10  N   UNL     1      42.399 -13.478   4.179  1.00  0.00    -0.229 NA
HETATM   11  C   UNL     1      42.695 -14.847   3.984  1.00  0.00     0.108 A 
HETATM   12  H   UNL     1      40.909 -12.881   1.373  1.00  0.00     0.170 HD
ENDROOT
BRANCH   9  13
HETATM   13  C   UNL     1      41.428 -11.354   3.386  1.00  0.00     0.320 C 
BRANCH  13  14
HETATM   14  N   UNL     1      42.647 -10.552   3.152  1.00  0.00     0.094 N 
HETATM   15  H   UNL     1      43.274 -10.706   3.943  1.00  0.00     0.314 HD
HETATM   16  H   UNL     1      42.384  -9.566   3.209  1.00  0.00     0.314 HD
ENDBRANCH  13  14
BRANCH  13  17
HETATM   17  C   UNL     1      40.793 -11.077   4.739  1.00  0.00    -0.018 A 
HETATM   18  C   UNL     1      41.517 -10.343   5.696  1.00  0.00     0.011 A 
HETATM   19  C   UNL     1      40.961 -10.051   6.945  1.00  0.00     0.024 A 
HETATM   20  C   UNL     1      39.674 -10.485   7.249  1.00  0.00     0.034 A 
HETATM   21 CL   UNL     1      38.990 -10.129   8.788  1.00  0.00    -0.084 Cl
HETATM   22  C   UNL     1      38.935 -11.203   6.314  1.00  0.00     0.024 A 
HETATM   23  C   UNL     1      39.490 -11.494   5.065  1.00  0.00     0.011 A 
ENDBRANCH  13  17
ENDBRANCH   9  13
BRANCH   1  24
HETATM   24  O   UNL     1      43.621 -14.896   6.156  1.00  0.00    -0.354 OA
HETATM   25  C   UNL     1      42.957 -15.300   7.346  1.00  0.00     0.210 C 
ENDBRANCH   1  24
BRANCH   3  26
HETATM   26  C   UNL     1      43.600 -19.001   3.429  1.00  0.00     0.010 A 
HETATM   27  C   UNL     1      43.496 -19.839   2.293  1.00  0.00     0.152 A 
HETATM   28  N   UNL     1      43.872 -21.096   2.537  1.00  0.00    -0.187 NA
HETATM   29  N   UNL     1      44.222 -21.072   3.833  1.00  0.00    -0.289 N 
HETATM   30  H   UNL     1      44.550 -21.933   4.259  1.00  0.00     0.188 HD
HETATM   31  C   UNL     1      44.076 -19.845   4.412  1.00  0.00     0.123 A 
ENDBRANCH   3  26
TORSDOF 5
ENDMDL
MODEL 5
REMARK VINA RESULT:      -7.8      5.501      9.014
REMARK  5 active torsions:
REMARK  status: ('A' for Active; 'I' for Inactive)
REMARK    1  A    between atoms: O_2  and  C_3 
REMARK    2  A    between atoms: C_5  and  C_23 
REMARK    3  A    between atoms: C_11  and  C_14 
REMARK    4  A    between atoms: C_14  and  N_15 
REMARK    5  A    between atoms: C_14  and  C_16 
ROOT
HETATM    1  C   UNL     1      39.555 -12.633  -1.239  1.00  0.00     0.098 A 
HETATM    2  C   UNL     1      39.886 -11.634  -2.170  1.00  0.00     0.051 A 
HETATM    3  C   UNL     1      40.800 -10.618  -1.851  1.00  0.00    -0.019 A 
HETATM    4  C   UNL     1      41.385 -10.612  -0.582  1.00  0.00     0.032 A 
HETATM    5  C   UNL     1      41.064 -11.614   0.339  1.00  0.00     0.064 A 
HETATM    6  C   UNL     1      41.657 -11.601   1.688  1.00  0.00     0.259 A 
HETATM    7  O   UNL     1      42.439 -10.730   2.045  1.00  0.00    -0.267 OA
HETATM    8  N   UNL     1      41.265 -12.619   2.512  1.00  0.00    -0.309 N 
HETATM    9  C   UNL     1      40.387 -13.601   2.138  1.00  0.00     0.145 A 
HETATM   10  N   UNL     1      39.837 -13.647   0.967  1.00  0.00    -0.229 NA
HETATM   11  C   UNL     1      40.161 -12.638   0.032  1.00  0.00     0.108 A 
HETATM   12  H   UNL     1      41.617 -12.614   3.460  1.00  0.00     0.170 HD
ENDROOT
BRANCH   9  13
HETATM   13  C   UNL     1      40.063 -14.657   3.206  1.00  0.00     0.320 C 
BRANCH  13  14
HETATM   14  N   UNL     1      39.773 -13.957   4.474  1.00  0.00     0.094 N 
HETATM   15  H   UNL     1      40.603 -14.033   5.065  1.00  0.00     0.314 HD
HETATM   16  H   UNL     1      39.050 -14.488   4.963  1.00  0.00     0.314 HD
ENDBRANCH  13  14
BRANCH  13  17
HETATM   17  C   UNL     1      41.185 -15.675   3.340  1.00  0.00    -0.018 A 
HETATM   18  C   UNL     1      41.443 -16.552   2.271  1.00  0.00     0.011 A 
HETATM   19  C   UNL     1      42.476 -17.490   2.348  1.00  0.00     0.024 A 
HETATM   20  C   UNL     1      43.266 -17.558   3.491  1.00  0.00     0.034 A 
HETATM   21 CL   UNL     1      44.537 -18.715   3.588  1.00  0.00    -0.084 Cl
HETATM   22  C   UNL     1      43.037 -16.693   4.557  1.00  0.00     0.024 A 
HETATM   23  C   UNL     1      42.004 -15.755   4.480  1.00  0.00     0.011 A 
ENDBRANCH  13  17
ENDBRANCH   9  13
BRANCH   1  24
HETATM   24  O   UNL     1      38.673 -13.655  -1.493  1.00  0.00    -0.354 OA
HETATM   25  C   UNL     1      39.021 -14.568  -2.527  1.00  0.00     0.210 C 
ENDBRANCH   1  24
BRANCH   3  26
HETATM   26  C   UNL     1      41.116  -9.588  -2.826  1.00  0.00     0.010 A 
HETATM   27  C   UNL     1      41.771  -8.341  -2.681  1.00  0.00     0.152 A 
HETATM   28  N   UNL     1      41.861  -7.664  -3.828  1.00  0.00    -0.187 NA
HETATM   29  N   UNL     1      41.265  -8.474  -4.718  1.00  0.00    -0.289 N 
HETATM   30  H   UNL     1      41.207  -8.170  -5.683  1.00  0.00     0.188 HD
HETATM   31  C   UNL     1      40.800  -9.635  -4.169  1.00  0.00     0.123 A 
ENDBRANCH   3  26
TORSDOF 5
ENDMDL
MODEL 6
REMARK VINA RESULT:      -7.8      4.738      5.884
REMARK  5 active torsions:
REMARK  status: ('A' for Active; 'I' for Inactive)
REMARK    1  A    between atoms: O_2  and  C_3 
REMARK    2  A    between atoms: C_5  and  C_23 
REMARK    3  A    between atoms: C_11  and  C_14 
REMARK    4  A    between atoms: C_14  and  N_15 
REMARK    5  A    between atoms: C_14  and  C_16 
ROOT
HETATM    1  C   UNL     1      42.666 -14.505   3.665  1.00  0.00     0.098 A 
HETATM    2  C   UNL     1      43.243 -15.764   3.903  1.00  0.00     0.051 A 
HETATM    3  C   UNL     1      42.773 -16.913   3.248  1.00  0.00    -0.019 A 
HETATM    4  C   UNL     1      41.714 -16.788   2.346  1.00  0.00     0.032 A 
HETATM    5  C   UNL     1      41.148 -15.532   2.102  1.00  0.00     0.064 A 
HETATM    6  C   UNL     1      40.013 -15.396   1.172  1.00  0.00     0.259 A 
HETATM    7  O   UNL     1      39.533 -16.360   0.588  1.00  0.00    -0.267 OA
HETATM    8  N   UNL     1      39.530 -14.128   1.017  1.00  0.00    -0.309 N 
HETATM    9  C   UNL     1      40.046 -13.036   1.664  1.00  0.00     0.145 A 
HETATM   10  N   UNL     1      41.035 -13.110   2.494  1.00  0.00    -0.229 NA
HETATM   11  C   UNL     1      41.612 -14.377   2.741  1.00  0.00     0.108 A 
HETATM   12  H   UNL     1      38.721 -14.006   0.421  1.00  0.00     0.170 HD
ENDROOT
BRANCH   9  13
HETATM   13  C   UNL     1      39.363 -11.692   1.365  1.00  0.00     0.320 C 
BRANCH  13  14
HETATM   14  N   UNL     1      37.907 -11.863   1.548  1.00  0.00     0.094 N 
HETATM   15  H   UNL     1      37.768 -12.624   2.214  1.00  0.00     0.314 HD
HETATM   16  H   UNL     1      37.522 -12.208   0.667  1.00  0.00     0.314 HD
ENDBRANCH  13  14
BRANCH  13  17
HETATM   17  C   UNL     1      39.725 -11.180  -0.020  1.00  0.00    -0.018 A 
HETATM   18  C   UNL     1      41.019 -10.676  -0.246  1.00  0.00     0.011 A 
HETATM   19  C   UNL     1      41.397 -10.213  -1.509  1.00  0.00     0.024 A 
HETATM   20  C   UNL     1      40.487 -10.252  -2.562  1.00  0.00     0.034 A 
HETATM   21 CL   UNL     1      40.950  -9.679  -4.117  1.00  0.00    -0.084 Cl
HETATM   22  C   UNL     1      39.205 -10.757  -2.365  1.00  0.00     0.024 A 
HETATM   23  C   UNL     1      38.828 -11.221  -1.102  1.00  0.00     0.011 A 
ENDBRANCH  13  17
ENDBRANCH   9  13
BRANCH   1  24
HETATM   24  O   UNL     1      43.085 -13.344   4.270  1.00  0.00    -0.354 OA
HETATM   25  C   UNL     1      43.023 -13.297   5.690  1.00  0.00     0.210 C 
ENDBRANCH   1  24
BRANCH   3  26
HETATM   26  C   UNL     1      43.378 -18.207   3.519  1.00  0.00     0.010 A 
HETATM   27  C   UNL     1      44.007 -18.711   4.682  1.00  0.00     0.152 A 
HETATM   28  N   UNL     1      44.452 -19.961   4.532  1.00  0.00    -0.187 NA
HETATM   29  N   UNL     1      44.108 -20.267   3.271  1.00  0.00    -0.289 N 
HETATM   30  H   UNL     1      44.346 -21.187   2.916  1.00  0.00     0.188 HD
HETATM   31  C   UNL     1      43.467 -19.251   2.622  1.00  0.00     0.123 A 
ENDBRANCH   3  26
TORSDOF 5
ENDMDL
MODEL 7
REMARK VINA RESULT:      -7.7      3.527      8.100
REMARK  5 active torsions:
REMARK  status: ('A' for Active; 'I' for Inactive)
REMARK    1  A    between atoms: O_2  and  C_3 
REMARK    2  A    between atoms: C_5  and  C_23 
REMARK    3  A    between atoms: C_11  and  C_14 
REMARK    4  A    between atoms: C_14  and  N_15 
REMARK    5  A    between atoms: C_14  and  C_16 
ROOT
HETATM    1  C   UNL     1      43.231 -11.391   5.526  1.00  0.00     0.098 A 
HETATM    2  C   UNL     1      42.543 -10.456   6.316  1.00  0.00     0.051 A 
HETATM    3  C   UNL     1      41.140 -10.422   6.345  1.00  0.00    -0.019 A 
HETATM    4  C   UNL     1      40.428 -11.340   5.569  1.00  0.00     0.032 A 
HETATM    5  C   UNL     1      41.115 -12.278   4.792  1.00  0.00     0.064 A 
HETATM    6  C   UNL     1      40.372 -13.234   3.951  1.00  0.00     0.259 A 
HETATM    7  O   UNL     1      39.148 -13.242   3.905  1.00  0.00    -0.267 OA
HETATM    8  N   UNL     1      41.140 -14.097   3.223  1.00  0.00    -0.309 N 
HETATM    9  C   UNL     1      42.510 -14.103   3.254  1.00  0.00     0.145 A 
HETATM   10  N   UNL     1      43.203 -13.278   3.970  1.00  0.00    -0.229 NA
HETATM   11  C   UNL     1      42.513 -12.330   4.760  1.00  0.00     0.108 A 
HETATM   12  H   UNL     1      40.663 -14.736   2.600  1.00  0.00     0.170 HD
ENDROOT
BRANCH   9  13
HETATM   13  C   UNL     1      43.199 -15.146   2.360  1.00  0.00     0.320 C 
BRANCH  13  14
HETATM   14  N   UNL     1      42.377 -15.328   1.145  1.00  0.00     0.094 N 
HETATM   15  H   UNL     1      41.419 -15.065   1.380  1.00  0.00     0.314 HD
HETATM   16  H   UNL     1      42.337 -16.329   0.946  1.00  0.00     0.314 HD
ENDBRANCH  13  14
BRANCH  13  17
HETATM   17  C   UNL     1      43.439 -16.448   3.107  1.00  0.00    -0.018 A 
HETATM   18  C   UNL     1      43.568 -17.642   2.375  1.00  0.00     0.011 A 
HETATM   19  C   UNL     1      43.807 -18.857   3.023  1.00  0.00     0.024 A 
HETATM   20  C   UNL     1      43.925 -18.891   4.409  1.00  0.00     0.034 A 
HETATM   21 CL   UNL     1      44.216 -20.387   5.209  1.00  0.00    -0.084 Cl
HETATM   22  C   UNL     1      43.813 -17.720   5.154  1.00  0.00     0.024 A 
HETATM   23  C   UNL     1      43.574 -16.505   4.506  1.00  0.00     0.011 A 
ENDBRANCH  13  17
ENDBRANCH   9  13
BRANCH   1  24
HETATM   24  O   UNL     1      44.601 -11.479   5.459  1.00  0.00    -0.354 OA
HETATM   25  C   UNL     1      45.307 -11.518   6.693  1.00  0.00     0.210 C 
ENDBRANCH   1  24
BRANCH   3  26
HETATM   26  C   UNL     1      40.451  -9.436   7.161  1.00  0.00     0.010 A 
HETATM   27  C   UNL     1      39.450  -9.587   8.150  1.00  0.00     0.152 A 
HETATM   28  N   UNL     1      39.056  -8.423   8.673  1.00  0.00    -0.187 NA
HETATM   29  N   UNL     1      39.804  -7.518   8.022  1.00  0.00    -0.289 N 
HETATM   30  H   UNL     1      39.682  -6.537   8.251  1.00  0.00     0.188 HD
HETATM   31  C   UNL     1      40.652  -8.072   7.106  1.00  0.00     0.123 A 
ENDBRANCH   3  26
TORSDOF 5
ENDMDL
MODEL 8
REMARK VINA RESULT:      -7.6      5.490      9.217
REMARK  5 active torsions:
REMARK  status: ('A' for Active; 'I' for Inactive)
REMARK    1  A    between atoms: O_2  and  C_3 
REMARK    2  A    between atoms: C_5  and  C_23 
REMARK    3  A    between atoms: C_11  and  C_14 
REMARK    4  A    between atoms: C_14  and  N_15 
REMARK    5  A    between atoms: C_14  and  C_16 
ROOT
HETATM    1  C   UNL     1      41.441 -10.141   0.836  1.00  0.00     0.098 A 
HETATM    2  C   UNL     1      41.856  -9.104  -0.016  1.00  0.00     0.051 A 
HETATM    3  C   UNL     1      41.901  -9.282  -1.408  1.00  0.00    -0.019 A 
HETATM    4  C   UNL     1      41.523 -10.517  -1.941  1.00  0.00     0.032 A 
HETATM    5  C   UNL     1      41.099 -11.544  -1.093  1.00  0.00     0.064 A 
HETATM    6  C   UNL     1      40.723 -12.857  -1.645  1.00  0.00     0.259 A 
HETATM    7  O   UNL     1      40.766 -13.093  -2.846  1.00  0.00    -0.267 OA
HETATM    8  N   UNL     1      40.335 -13.792  -0.727  1.00  0.00    -0.309 N 
HETATM    9  C   UNL     1      40.285 -13.554   0.621  1.00  0.00     0.145 A 
HETATM   10  N   UNL     1      40.613 -12.420   1.150  1.00  0.00    -0.229 NA
HETATM   11  C   UNL     1      41.040 -11.378   0.296  1.00  0.00     0.108 A 
HETATM   12  H   UNL     1      40.115 -14.719  -1.069  1.00  0.00     0.170 HD
ENDROOT
BRANCH   9  13
HETATM   13  C   UNL     1      39.830 -14.733   1.496  1.00  0.00     0.320 C 
BRANCH  13  14
HETATM   14  N   UNL     1      38.887 -14.217   2.510  1.00  0.00     0.094 N 
HETATM   15  H   UNL     1      39.340 -13.432   2.980  1.00  0.00     0.314 HD
HETATM   16  H   UNL     1      38.785 -14.935   3.230  1.00  0.00     0.314 HD
ENDBRANCH  13  14
BRANCH  13  17
HETATM   17  C   UNL     1      41.015 -15.461   2.110  1.00  0.00    -0.018 A 
HETATM   18  C   UNL     1      40.902 -15.966   3.418  1.00  0.00     0.011 A 
HETATM   19  C   UNL     1      41.962 -16.656   4.013  1.00  0.00     0.024 A 
HETATM   20  C   UNL     1      43.144 -16.853   3.305  1.00  0.00     0.034 A 
HETATM   21 CL   UNL     1      44.451 -17.701   4.037  1.00  0.00    -0.084 Cl
HETATM   22  C   UNL     1      43.274 -16.373   2.005  1.00  0.00     0.024 A 
HETATM   23  C   UNL     1      42.214 -15.683   1.410  1.00  0.00     0.011 A 
ENDBRANCH  13  17
ENDBRANCH   9  13
BRANCH   1  24
HETATM   24  O   UNL     1      41.369 -10.027   2.203  1.00  0.00    -0.354 OA
HETATM   25  C   UNL     1      40.382  -9.148   2.728  1.00  0.00     0.210 C 
ENDBRANCH   1  24
BRANCH   3  26
HETATM   26  C   UNL     1      42.347  -8.199  -2.268  1.00  0.00     0.010 A 
HETATM   27  C   UNL     1      41.993  -7.863  -3.596  1.00  0.00     0.152 A 
HETATM   28  N   UNL     1      42.639  -6.786  -4.050  1.00  0.00    -0.187 NA
HETATM   29  N   UNL     1      43.411  -6.423  -3.013  1.00  0.00    -0.289 N 
HETATM   30  H   UNL     1      44.010  -5.611  -3.119  1.00  0.00     0.188 HD
HETATM   31  C   UNL     1      43.276  -7.237  -1.925  1.00  0.00     0.123 A 
ENDBRANCH   3  26
TORSDOF 5
ENDMDL
MODEL 9
REMARK VINA RESULT:      -7.6      3.091      4.022
REMARK  5 active torsions:
REMARK  status: ('A' for Active; 'I' for Inactive)
REMARK    1  A    between atoms: O_2  and  C_3 
REMARK    2  A    between atoms: C_5  and  C_23 
REMARK    3  A    between atoms: C_11  and  C_14 
REMARK    4  A    between atoms: C_14  and  N_15 
REMARK    5  A    between atoms: C_14  and  C_16 
ROOT
HETATM    1  C   UNL     1      43.516 -15.813   5.358  1.00  0.00     0.098 A 
HETATM    2  C   UNL     1      43.745 -17.167   5.067  1.00  0.00     0.051 A 
HETATM    3  C   UNL     1      43.465 -17.694   3.796  1.00  0.00    -0.019 A 
HETATM    4  C   UNL     1      42.950 -16.845   2.814  1.00  0.00     0.032 A 
HETATM    5  C   UNL     1      42.733 -15.493   3.102  1.00  0.00     0.064 A 
HETATM    6  C   UNL     1      42.166 -14.597   2.080  1.00  0.00     0.259 A 
HETATM    7  O   UNL     1      41.871 -14.994   0.960  1.00  0.00    -0.267 OA
HETATM    8  N   UNL     1      41.984 -13.300   2.471  1.00  0.00    -0.309 N 
HETATM    9  C   UNL     1      42.300 -12.834   3.720  1.00  0.00     0.145 A 
HETATM   10  N   UNL     1      42.793 -13.587   4.650  1.00  0.00    -0.229 NA
HETATM   11  C   UNL     1      43.016 -14.953   4.362  1.00  0.00     0.108 A 
HETATM   12  H   UNL     1      41.553 -12.669   1.808  1.00  0.00     0.170 HD
ENDROOT
BRANCH   9  13
HETATM   13  C   UNL     1      42.017 -11.346   3.974  1.00  0.00     0.320 C 
BRANCH  13  14
HETATM   14  N   UNL     1      41.785 -11.161   5.422  1.00  0.00     0.094 N 
HETATM   15  H   UNL     1      40.889 -11.595   5.648  1.00  0.00     0.314 HD
HETATM   16  H   UNL     1      41.646 -10.162   5.588  1.00  0.00     0.314 HD
ENDBRANCH  13  14
BRANCH  13  17
HETATM   17  C   UNL     1      40.859 -10.846   3.125  1.00  0.00    -0.018 A 
HETATM   18  C   UNL     1      39.543 -11.050   3.577  1.00  0.00     0.011 A 
HETATM   19  C   UNL     1      38.452 -10.590   2.835  1.00  0.00     0.024 A 
HETATM   20  C   UNL     1      38.664  -9.918   1.635  1.00  0.00     0.034 A 
HETATM   21 CL   UNL     1      37.320  -9.355   0.719  1.00  0.00    -0.084 Cl
HETATM   22  C   UNL     1      39.957  -9.695   1.173  1.00  0.00     0.024 A 
HETATM   23  C   UNL     1      41.049 -10.154   1.915  1.00  0.00     0.011 A 
ENDBRANCH  13  17
ENDBRANCH   9  13
BRANCH   1  24
HETATM   24  O   UNL     1      43.775 -15.237   6.579  1.00  0.00    -0.354 OA
HETATM   25  C   UNL     1      43.012 -15.699   7.687  1.00  0.00     0.210 C 
ENDBRANCH   1  24
BRANCH   3  26
HETATM   26  C   UNL     1      43.699 -19.102   3.522  1.00  0.00     0.010 A 
HETATM   27  C   UNL     1      43.600 -19.843   2.320  1.00  0.00     0.152 A 
HETATM   28  N   UNL     1      43.888 -21.136   2.481  1.00  0.00    -0.187 NA
HETATM   29  N   UNL     1      44.175 -21.233   3.789  1.00  0.00    -0.289 N 
HETATM   30  H   UNL     1      44.430 -22.142   4.161  1.00  0.00     0.188 HD
HETATM   31  C   UNL     1      44.074 -20.046   4.456  1.00  0.00     0.123 A 
ENDBRANCH   3  26
TORSDOF 5
ENDMDL
MODEL 10
REMARK VINA RESULT:      -7.3      2.506      3.670
REMARK  5 active torsions:
REMARK  status: ('A' for Active; 'I' for Inactive)
REMARK    1  A    between atoms: O_2  and  C_3 
REMARK    2  A    between atoms: C_5  and  C_23 
REMARK    3  A    between atoms: C_11  and  C_14 
REMARK    4  A    between atoms: C_14  and  N_15 
REMARK    5  A    between atoms: C_14  and  C_16 
ROOT
HETATM    1  C   UNL     1      41.127 -15.026   2.406  1.00  0.00     0.098 A 
HETATM    2  C   UNL     1      41.664 -16.324   2.379  1.00  0.00     0.051 A 
HETATM    3  C   UNL     1      42.653 -16.720   3.294  1.00  0.00    -0.019 A 
HETATM    4  C   UNL     1      43.101 -15.797   4.242  1.00  0.00     0.032 A 
HETATM    5  C   UNL     1      42.557 -14.509   4.275  1.00  0.00     0.064 A 
HETATM    6  C   UNL     1      43.042 -13.523   5.256  1.00  0.00     0.259 A 
HETATM    7  O   UNL     1      43.922 -13.789   6.064  1.00  0.00    -0.267 OA
HETATM    8  N   UNL     1      42.451 -12.292   5.193  1.00  0.00    -0.309 N 
HETATM    9  C   UNL     1      41.470 -11.968   4.294  1.00  0.00     0.145 A 
HETATM   10  N   UNL     1      41.019 -12.800   3.411  1.00  0.00    -0.229 NA
HETATM   11  C   UNL     1      41.565 -14.104   3.376  1.00  0.00     0.108 A 
HETATM   12  H   UNL     1      42.793 -11.577   5.821  1.00  0.00     0.170 HD
ENDROOT
BRANCH   9  13
HETATM   13  C   UNL     1      40.932 -10.531   4.373  1.00  0.00     0.320 C 
BRANCH  13  14
HETATM   14  N   UNL     1      41.994  -9.614   3.907  1.00  0.00     0.094 N 
HETATM   15  H   UNL     1      42.466  -9.246   4.734  1.00  0.00     0.314 HD
HETATM   16  H   UNL     1      41.539  -8.806   3.479  1.00  0.00     0.314 HD
ENDBRANCH  13  14
BRANCH  13  17
HETATM   17  C   UNL     1      40.440 -10.197   5.773  1.00  0.00    -0.018 A 
HETATM   18  C   UNL     1      40.991  -9.091   6.444  1.00  0.00     0.011 A 
HETATM   19  C   UNL     1      40.553  -8.740   7.724  1.00  0.00     0.024 A 
HETATM   20  C   UNL     1      39.557  -9.488   8.345  1.00  0.00     0.034 A 
HETATM   21 CL   UNL     1      39.020  -9.059   9.923  1.00  0.00    -0.084 Cl
HETATM   22  C   UNL     1      38.989 -10.580   7.695  1.00  0.00     0.024 A 
HETATM   23  C   UNL     1      39.427 -10.931   6.415  1.00  0.00     0.011 A 
ENDBRANCH  13  17
ENDBRANCH   9  13
BRANCH   1  24
HETATM   24  O   UNL     1      40.155 -14.581   1.543  1.00  0.00    -0.354 OA
HETATM   25  C   UNL     1      40.463 -14.603   0.155  1.00  0.00     0.210 C 
ENDBRANCH   1  24
BRANCH   3  26
HETATM   26  C   UNL     1      43.203 -18.064   3.237  1.00  0.00     0.010 A 
HETATM   27  C   UNL     1      43.141 -19.050   2.225  1.00  0.00     0.152 A 
HETATM   28  N   UNL     1      43.771 -20.180   2.559  1.00  0.00    -0.187 NA
HETATM   29  N   UNL     1      44.242 -19.923   3.790  1.00  0.00    -0.289 N 
HETATM   30  H   UNL     1      44.768 -20.648   4.265  1.00  0.00     0.188 HD
HETATM   31  C   UNL     1      43.927 -18.674   4.241  1.00  0.00     0.123 A 
ENDBRANCH   3  26
TORSDOF 5
ENDMDL
