MODEL 1
REMARK VINA RESULT:      -9.0      0.000      0.000
REMARK  6 active torsions:
REMARK  status: ('A' for Active; 'I' for Inactive)
REMARK    1  A    between atoms: C_2  and  C_3 
REMARK    2  A    between atoms: C_3  and  N_4 
REMARK       I    between atoms: N_4  and  C_5 
REMARK    3  A    between atoms: C_5  and  C_6 
REMARK    4  A    between atoms: C_8  and  C_9 
REMARK    5  A    between atoms: C_9  and  N_10 
REMARK       I    between atoms: N_10  and  C_11 
REMARK    6  A    between atoms: C_11  and  C_12 
ROOT
HETATM    1  C   UNL     1      44.345 -11.656   6.353  1.00  0.00     0.161 C 
ENDROOT
BRANCH   1   2
HETATM    2  C   UNL     1      44.688 -10.864   7.587  1.00  0.00    -0.040 A 
HETATM    3  C   UNL     1      44.037 -11.139   8.799  1.00  0.00     0.026 A 
HETATM    4  C   UNL     1      44.330 -10.403   9.952  1.00  0.00     0.032 A 
HETATM    5  C   UNL     1      45.307  -9.403   9.907  1.00  0.00     0.017 A 
HETATM    6  C   UNL     1      45.954  -9.116   8.704  1.00  0.00     0.002 A 
HETATM    7  C   UNL     1      45.639  -9.835   7.548  1.00  0.00     0.009 A 
BRANCH   4   8
HETATM    8  C   UNL     1      43.634 -10.672  11.240  1.00  0.00     0.252 C 
HETATM    9  N   UNL     1      42.589  -9.822  11.542  1.00  0.00    -0.353 N 
HETATM   10  H   UNL     1      42.478  -8.981  10.989  1.00  0.00     0.163 HD
HETATM   11  O   UNL     1      44.017 -11.577  11.970  1.00  0.00    -0.268 OA
BRANCH   9  12
HETATM   12  C   UNL     1      41.865  -9.905  12.803  1.00  0.00     0.080 C 
HETATM   13  C   UNL     1      40.362  -9.947  12.536  1.00  0.00     0.032 C 
BRANCH  12  14
HETATM   14  C   UNL     1      42.259  -8.775  13.771  1.00  0.00     0.020 C 
HETATM   15  C   UNL     1      43.251  -7.767  13.205  1.00  0.00     0.007 C 
ENDBRANCH  12  14
ENDBRANCH   9  12
ENDBRANCH   4   8
ENDBRANCH   1   2
BRANCH   1  16
HETATM   16  N   UNL     1      44.249 -13.066   6.619  1.00  0.00    -0.351 N 
HETATM   17  C   UNL     1      43.289 -13.882   6.063  1.00  0.00     0.273 C 
HETATM   18  O   UNL     1      42.473 -13.500   5.228  1.00  0.00    -0.266 OA
HETATM   19  H   UNL     1      44.866 -13.511   7.292  1.00  0.00     0.163 HD
BRANCH  17  20
HETATM   20  C   UNL     1      43.331 -15.258   6.584  1.00  0.00     0.157 A 
HETATM   21  N   UNL     1      43.202 -15.513   7.906  1.00  0.00    -0.168 NA
HETATM   22  N   UNL     1      43.253 -16.856   7.977  1.00  0.00    -0.277 N 
HETATM   23  H   UNL     1      43.162 -17.292   8.887  1.00  0.00     0.189 HD
HETATM   24  C   UNL     1      43.426 -17.483   6.775  1.00  0.00     0.063 A 
HETATM   25  C   UNL     1      43.487 -16.462   5.835  1.00  0.00     0.029 A 
HETATM   26  C   UNL     1      43.528 -18.836   6.441  1.00  0.00     0.032 A 
HETATM   27  C   UNL     1      43.673 -16.798   4.479  1.00  0.00     0.023 A 
HETATM   28  C   UNL     1      43.790 -18.150   4.110  1.00  0.00    -0.061 A 
HETATM   29  C   UNL     1      43.714 -19.147   5.089  1.00  0.00     0.009 A 
HETATM   30  C   UNL     1      44.007 -18.503   2.667  1.00  0.00     0.048 C 
ENDBRANCH  17  20
ENDBRANCH   1  16
TORSDOF 6
ENDMDL
MODEL 2
REMARK VINA RESULT:      -8.7      1.324      1.896
REMARK  6 active torsions:
REMARK  status: ('A' for Active; 'I' for Inactive)
REMARK    1  A    between atoms: C_2  and  C_3 
REMARK    2  A    between atoms: C_3  and  N_4 
REMARK       I    between atoms: N_4  and  C_5 
REMARK    3  A    between atoms: C_5  and  C_6 
REMARK    4  A    between atoms: C_8  and  C_9 
REMARK    5  A    between atoms: C_9  and  N_10 
REMARK       I    between atoms: N_10  and  C_11 
REMARK    6  A    between atoms: C_11  and  C_12 
ROOT
HETATM    1  C   UNL     1      43.259 -12.817   5.927  1.00  0.00     0.161 C 
ENDROOT
BRANCH   1   2
HETATM    2  C   UNL     1      44.150 -11.937   6.765  1.00  0.00    -0.040 A 
HETATM    3  C   UNL     1      43.667 -11.390   7.963  1.00  0.00     0.026 A 
HETATM    4  C   UNL     1      44.475 -10.557   8.745  1.00  0.00     0.032 A 
HETATM    5  C   UNL     1      45.789 -10.293   8.348  1.00  0.00     0.017 A 
HETATM    6  C   UNL     1      46.276 -10.826   7.154  1.00  0.00     0.002 A 
HETATM    7  C   UNL     1      45.458 -11.635   6.360  1.00  0.00     0.009 A 
BRANCH   4   8
HETATM    8  C   UNL     1      43.970  -9.954  10.009  1.00  0.00     0.252 C 
HETATM    9  N   UNL     1      42.655 -10.238  10.321  1.00  0.00    -0.353 N 
HETATM   10  H   UNL     1      42.074 -10.665   9.610  1.00  0.00     0.163 HD
HETATM   11  O   UNL     1      44.696  -9.231  10.681  1.00  0.00    -0.268 OA
BRANCH   9  12
HETATM   12  C   UNL     1      41.993  -9.654  11.479  1.00  0.00     0.080 C 
HETATM   13  C   UNL     1      42.551 -10.267  12.761  1.00  0.00     0.032 C 
BRANCH  12  14
HETATM   14  C   UNL     1      40.460  -9.772  11.389  1.00  0.00     0.020 C 
HETATM   15  C   UNL     1      39.781 -10.240  12.670  1.00  0.00     0.007 C 
ENDBRANCH  12  14
ENDBRANCH   9  12
ENDBRANCH   4   8
ENDBRANCH   1   2
BRANCH   1  16
HETATM   16  N   UNL     1      43.443 -14.213   6.217  1.00  0.00    -0.351 N 
HETATM   17  C   UNL     1      43.183 -15.218   5.312  1.00  0.00     0.273 C 
HETATM   18  O   UNL     1      42.845 -15.015   4.148  1.00  0.00    -0.266 OA
HETATM   19  H   UNL     1      43.721 -14.519   7.144  1.00  0.00     0.163 HD
BRANCH  17  20
HETATM   20  C   UNL     1      43.338 -16.565   5.887  1.00  0.00     0.157 A 
HETATM   21  N   UNL     1      43.308 -16.765   7.224  1.00  0.00    -0.168 NA
HETATM   22  N   UNL     1      43.442 -18.098   7.349  1.00  0.00    -0.277 N 
HETATM   23  H   UNL     1      43.434 -18.497   8.281  1.00  0.00     0.189 HD
HETATM   24  C   UNL     1      43.576 -18.769   6.166  1.00  0.00     0.063 A 
HETATM   25  C   UNL     1      43.519 -17.791   5.181  1.00  0.00     0.029 A 
HETATM   26  C   UNL     1      43.738 -20.128   5.883  1.00  0.00     0.032 A 
HETATM   27  C   UNL     1      43.640 -18.178   3.832  1.00  0.00     0.023 A 
HETATM   28  C   UNL     1      43.814 -19.537   3.514  1.00  0.00    -0.061 A 
HETATM   29  C   UNL     1      43.858 -20.491   4.537  1.00  0.00     0.009 A 
HETATM   30  C   UNL     1      43.961 -19.943   2.076  1.00  0.00     0.048 C 
ENDBRANCH  17  20
ENDBRANCH   1  16
TORSDOF 6
ENDMDL
MODEL 3
REMARK VINA RESULT:      -8.7      2.610      9.415
REMARK  6 active torsions:
REMARK  status: ('A' for Active; 'I' for Inactive)
REMARK    1  A    between atoms: C_2  and  C_3 
REMARK    2  A    between atoms: C_3  and  N_4 
REMARK       I    between atoms: N_4  and  C_5 
REMARK    3  A    between atoms: C_5  and  C_6 
REMARK    4  A    between atoms: C_8  and  C_9 
REMARK    5  A    between atoms: C_9  and  N_10 
REMARK       I    between atoms: N_10  and  C_11 
REMARK    6  A    between atoms: C_11  and  C_12 
ROOT
HETATM    1  C   UNL     1      41.051 -13.373   5.998  1.00  0.00     0.161 C 
ENDROOT
BRANCH   1   2
HETATM    2  C   UNL     1      40.949 -13.993   4.629  1.00  0.00    -0.040 A 
HETATM    3  C   UNL     1      41.888 -14.953   4.224  1.00  0.00     0.026 A 
HETATM    4  C   UNL     1      41.820 -15.528   2.950  1.00  0.00     0.032 A 
HETATM    5  C   UNL     1      40.786 -15.167   2.081  1.00  0.00     0.017 A 
HETATM    6  C   UNL     1      39.852 -14.206   2.471  1.00  0.00     0.002 A 
HETATM    7  C   UNL     1      39.939 -13.614   3.734  1.00  0.00     0.009 A 
BRANCH   4   8
HETATM    8  C   UNL     1      42.820 -16.534   2.501  1.00  0.00     0.252 C 
HETATM    9  N   UNL     1      42.900 -17.680   3.267  1.00  0.00    -0.353 N 
HETATM   10  H   UNL     1      42.430 -17.691   4.163  1.00  0.00     0.163 HD
HETATM   11  O   UNL     1      43.531 -16.306   1.529  1.00  0.00    -0.268 OA
BRANCH   9  12
HETATM   12  C   UNL     1      43.887 -18.718   3.005  1.00  0.00     0.080 C 
HETATM   13  C   UNL     1      43.263 -19.827   2.162  1.00  0.00     0.032 C 
BRANCH  12  14
HETATM   14  C   UNL     1      44.524 -19.251   4.301  1.00  0.00     0.020 C 
HETATM   15  C   UNL     1      44.033 -20.627   4.733  1.00  0.00     0.007 C 
ENDBRANCH  12  14
ENDBRANCH   9  12
ENDBRANCH   4   8
ENDBRANCH   1   2
BRANCH   1  16
HETATM   16  N   UNL     1      42.254 -12.603   6.159  1.00  0.00    -0.351 N 
HETATM   17  C   UNL     1      43.339 -13.031   6.891  1.00  0.00     0.273 C 
HETATM   18  O   UNL     1      43.414 -14.143   7.409  1.00  0.00    -0.266 OA
HETATM   19  H   UNL     1      42.325 -11.664   5.779  1.00  0.00     0.163 HD
BRANCH  17  20
HETATM   20  C   UNL     1      44.398 -12.014   7.001  1.00  0.00     0.157 A 
HETATM   21  N   UNL     1      45.350 -11.886   6.049  1.00  0.00    -0.168 NA
HETATM   22  N   UNL     1      46.093 -10.850   6.479  1.00  0.00    -0.277 N 
HETATM   23  H   UNL     1      46.877 -10.552   5.910  1.00  0.00     0.189 HD
HETATM   24  C   UNL     1      45.684 -10.313   7.668  1.00  0.00     0.063 A 
HETATM   25  C   UNL     1      44.574 -11.059   8.045  1.00  0.00     0.029 A 
HETATM   26  C   UNL     1      46.186  -9.253   8.428  1.00  0.00     0.032 A 
HETATM   27  C   UNL     1      43.925 -10.744   9.254  1.00  0.00     0.023 A 
HETATM   28  C   UNL     1      44.410  -9.690  10.049  1.00  0.00    -0.061 A 
HETATM   29  C   UNL     1      45.527  -8.959   9.628  1.00  0.00     0.009 A 
HETATM   30  C   UNL     1      43.726  -9.371  11.347  1.00  0.00     0.048 C 
ENDBRANCH  17  20
ENDBRANCH   1  16
TORSDOF 6
ENDMDL
MODEL 4
REMARK VINA RESULT:      -8.5      2.284      3.065
REMARK  6 active torsions:
REMARK  status: ('A' for Active; 'I' for Inactive)
REMARK    1  A    between atoms: C_2  and  C_3 
REMARK    2  A    between atoms: C_3  and  N_4 
REMARK       I    between atoms: N_4  and  C_5 
REMARK    3  A    between atoms: C_5  and  C_6 
REMARK    4  A    between atoms: C_8  and  C_9 
REMARK    5  A    between atoms: C_9  and  N_10 
REMARK       I    between atoms: N_10  and  C_11 
REMARK    6  A    between atoms: C_11  and  C_12 
ROOT
HETATM    1  C   UNL     1      42.286 -11.178   5.121  1.00  0.00     0.161 C 
ENDROOT
BRANCH   1   2
HETATM    2  C   UNL     1      43.466 -11.133   6.056  1.00  0.00    -0.040 A 
HETATM    3  C   UNL     1      43.268 -10.868   7.420  1.00  0.00     0.026 A 
HETATM    4  C   UNL     1      44.354 -10.805   8.301  1.00  0.00     0.032 A 
HETATM    5  C   UNL     1      45.647 -11.043   7.826  1.00  0.00     0.017 A 
HETATM    6  C   UNL     1      45.855 -11.298   6.470  1.00  0.00     0.002 A 
HETATM    7  C   UNL     1      44.772 -11.333   5.587  1.00  0.00     0.009 A 
BRANCH   4   8
HETATM    8  C   UNL     1      44.160 -10.507   9.746  1.00  0.00     0.252 C 
HETATM    9  N   UNL     1      42.908 -10.045  10.098  1.00  0.00    -0.353 N 
HETATM   10  H   UNL     1      42.275  -9.765   9.359  1.00  0.00     0.163 HD
HETATM   11  O   UNL     1      45.089 -10.644  10.533  1.00  0.00    -0.268 OA
BRANCH   9  12
HETATM   12  C   UNL     1      42.590  -9.631  11.457  1.00  0.00     0.080 C 
HETATM   13  C   UNL     1      41.090  -9.771  11.705  1.00  0.00     0.032 C 
BRANCH  12  14
HETATM   14  C   UNL     1      43.107  -8.214  11.766  1.00  0.00     0.020 C 
HETATM   15  C   UNL     1      43.139  -7.856  13.246  1.00  0.00     0.007 C 
ENDBRANCH  12  14
ENDBRANCH   9  12
ENDBRANCH   4   8
ENDBRANCH   1   2
BRANCH   1  16
HETATM   16  N   UNL     1      42.401 -12.230   4.148  1.00  0.00    -0.351 N 
HETATM   17  C   UNL     1      41.583 -13.338   4.125  1.00  0.00     0.273 C 
HETATM   18  O   UNL     1      40.629 -13.494   4.883  1.00  0.00    -0.266 OA
HETATM   19  H   UNL     1      43.149 -12.223   3.461  1.00  0.00     0.163 HD
BRANCH  17  20
HETATM   20  C   UNL     1      41.978 -14.324   3.106  1.00  0.00     0.157 A 
HETATM   21  N   UNL     1      41.830 -14.068   1.786  1.00  0.00    -0.168 NA
HETATM   22  N   UNL     1      42.326 -15.168   1.191  1.00  0.00    -0.277 N 
HETATM   23  H   UNL     1      42.335 -15.204   0.178  1.00  0.00     0.189 HD
HETATM   24  C   UNL     1      42.771 -16.130   2.054  1.00  0.00     0.063 A 
HETATM   25  C   UNL     1      42.552 -15.612   3.325  1.00  0.00     0.029 A 
HETATM   26  C   UNL     1      43.339 -17.387   1.830  1.00  0.00     0.032 A 
HETATM   27  C   UNL     1      42.907 -16.389   4.445  1.00  0.00     0.023 A 
HETATM   28  C   UNL     1      43.471 -17.662   4.254  1.00  0.00    -0.061 A 
HETATM   29  C   UNL     1      43.682 -18.143   2.957  1.00  0.00     0.009 A 
HETATM   30  C   UNL     1      43.830 -18.495   5.451  1.00  0.00     0.048 C 
ENDBRANCH  17  20
ENDBRANCH   1  16
TORSDOF 6
ENDMDL
MODEL 5
REMARK VINA RESULT:      -8.2      5.029      8.773
REMARK  6 active torsions:
REMARK  status: ('A' for Active; 'I' for Inactive)
REMARK    1  A    between atoms: C_2  and  C_3 
REMARK    2  A    between atoms: C_3  and  N_4 
REMARK       I    between atoms: N_4  and  C_5 
REMARK    3  A    between atoms: C_5  and  C_6 
REMARK    4  A    between atoms: C_8  and  C_9 
REMARK    5  A    between atoms: C_9  and  N_10 
REMARK       I    between atoms: N_10  and  C_11 
REMARK    6  A    between atoms: C_11  and  C_12 
ROOT
HETATM    1  C   UNL     1      40.873 -12.037   5.376  1.00  0.00     0.161 C 
ENDROOT
BRANCH   1   2
HETATM    2  C   UNL     1      40.158 -11.972   4.051  1.00  0.00    -0.040 A 
HETATM    3  C   UNL     1      40.543 -12.826   3.006  1.00  0.00     0.026 A 
HETATM    4  C   UNL     1      39.902 -12.769   1.763  1.00  0.00     0.032 A 
HETATM    5  C   UNL     1      38.844 -11.877   1.570  1.00  0.00     0.017 A 
HETATM    6  C   UNL     1      38.459 -11.018   2.600  1.00  0.00     0.002 A 
HETATM    7  C   UNL     1      39.119 -11.057   3.831  1.00  0.00     0.009 A 
BRANCH   4   8
HETATM    8  C   UNL     1      40.313 -13.655   0.640  1.00  0.00     0.252 C 
HETATM    9  N   UNL     1      39.889 -13.265  -0.614  1.00  0.00    -0.353 N 
HETATM   10  H   UNL     1      39.193 -12.533  -0.679  1.00  0.00     0.163 HD
HETATM   11  O   UNL     1      40.956 -14.674   0.863  1.00  0.00    -0.268 OA
BRANCH   9  12
HETATM   12  C   UNL     1      40.140 -14.071  -1.800  1.00  0.00     0.080 C 
HETATM   13  C   UNL     1      40.598 -13.175  -2.949  1.00  0.00     0.032 C 
BRANCH  12  14
HETATM   14  C   UNL     1      38.925 -14.937  -2.178  1.00  0.00     0.020 C 
HETATM   15  C   UNL     1      38.225 -14.527  -3.467  1.00  0.00     0.007 C 
ENDBRANCH  12  14
ENDBRANCH   9  12
ENDBRANCH   4   8
ENDBRANCH   1   2
BRANCH   1  16
HETATM   16  N   UNL     1      41.524 -13.302   5.583  1.00  0.00    -0.351 N 
HETATM   17  C   UNL     1      40.943 -14.356   6.251  1.00  0.00     0.273 C 
HETATM   18  O   UNL     1      39.786 -14.344   6.665  1.00  0.00    -0.266 OA
HETATM   19  H   UNL     1      42.485 -13.447   5.288  1.00  0.00     0.163 HD
BRANCH  17  20
HETATM   20  C   UNL     1      41.855 -15.497   6.432  1.00  0.00     0.157 A 
HETATM   21  N   UNL     1      42.232 -15.905   7.665  1.00  0.00    -0.168 NA
HETATM   22  N   UNL     1      43.017 -16.971   7.422  1.00  0.00    -0.277 N 
HETATM   23  H   UNL     1      43.416 -17.464   8.212  1.00  0.00     0.189 HD
HETATM   24  C   UNL     1      43.184 -17.262   6.097  1.00  0.00     0.063 A 
HETATM   25  C   UNL     1      42.438 -16.309   5.415  1.00  0.00     0.029 A 
HETATM   26  C   UNL     1      43.911 -18.267   5.453  1.00  0.00     0.032 A 
HETATM   27  C   UNL     1      42.417 -16.344   4.007  1.00  0.00     0.023 A 
HETATM   28  C   UNL     1      43.147 -17.335   3.327  1.00  0.00    -0.061 A 
HETATM   29  C   UNL     1      43.879 -18.282   4.054  1.00  0.00     0.009 A 
HETATM   30  C   UNL     1      43.138 -17.357   1.826  1.00  0.00     0.048 C 
ENDBRANCH  17  20
ENDBRANCH   1  16
TORSDOF 6
ENDMDL
MODEL 6
REMARK VINA RESULT:      -8.2      2.329      2.672
REMARK  6 active torsions:
REMARK  status: ('A' for Active; 'I' for Inactive)
REMARK    1  A    between atoms: C_2  and  C_3 
REMARK    2  A    between atoms: C_3  and  N_4 
REMARK       I    between atoms: N_4  and  C_5 
REMARK    3  A    between atoms: C_5  and  C_6 
REMARK    4  A    between atoms: C_8  and  C_9 
REMARK    5  A    between atoms: C_9  and  N_10 
REMARK       I    between atoms: N_10  and  C_11 
REMARK    6  A    between atoms: C_11  and  C_12 
ROOT
HETATM    1  C   UNL     1      45.443 -11.666   6.798  1.00  0.00     0.161 C 
ENDROOT
BRANCH   1   2
HETATM    2  C   UNL     1      45.130 -10.646   7.863  1.00  0.00    -0.040 A 
HETATM    3  C   UNL     1      44.516 -11.049   9.058  1.00  0.00     0.026 A 
HETATM    4  C   UNL     1      44.202 -10.114  10.051  1.00  0.00     0.032 A 
HETATM    5  C   UNL     1      44.535  -8.769   9.867  1.00  0.00     0.017 A 
HETATM    6  C   UNL     1      45.138  -8.357   8.678  1.00  0.00     0.002 A 
HETATM    7  C   UNL     1      45.425  -9.289   7.676  1.00  0.00     0.009 A 
BRANCH   4   8
HETATM    8  C   UNL     1      43.534 -10.524  11.316  1.00  0.00     0.252 C 
HETATM    9  N   UNL     1      42.621  -9.625  11.828  1.00  0.00    -0.353 N 
HETATM   10  H   UNL     1      42.595  -8.692  11.436  1.00  0.00     0.163 HD
HETATM   11  O   UNL     1      43.829 -11.585  11.853  1.00  0.00    -0.268 OA
BRANCH   9  12
HETATM   12  C   UNL     1      41.947  -9.845  13.100  1.00  0.00     0.080 C 
HETATM   13  C   UNL     1      40.460 -10.095  12.864  1.00  0.00     0.032 C 
BRANCH  12  14
HETATM   14  C   UNL     1      42.201  -8.698  14.095  1.00  0.00     0.020 C 
HETATM   15  C   UNL     1      43.158  -7.622  13.597  1.00  0.00     0.007 C 
ENDBRANCH  12  14
ENDBRANCH   9  12
ENDBRANCH   4   8
ENDBRANCH   1   2
BRANCH   1  16
HETATM   16  N   UNL     1      44.258 -12.294   6.281  1.00  0.00    -0.351 N 
HETATM   17  C   UNL     1      43.733 -12.022   5.037  1.00  0.00     0.273 C 
HETATM   18  O   UNL     1      44.269 -11.277   4.221  1.00  0.00    -0.266 OA
HETATM   19  H   UNL     1      43.717 -12.935   6.854  1.00  0.00     0.163 HD
BRANCH  17  20
HETATM   20  C   UNL     1      42.453 -12.707   4.789  1.00  0.00     0.157 A 
HETATM   21  N   UNL     1      41.288 -12.208   5.261  1.00  0.00    -0.168 NA
HETATM   22  N   UNL     1      40.364 -13.073   4.805  1.00  0.00    -0.277 N 
HETATM   23  H   UNL     1      39.390 -12.897   5.025  1.00  0.00     0.189 HD
HETATM   24  C   UNL     1      40.870 -14.115   4.081  1.00  0.00     0.063 A 
HETATM   25  C   UNL     1      42.244 -13.911   4.054  1.00  0.00     0.029 A 
HETATM   26  C   UNL     1      40.248 -15.199   3.455  1.00  0.00     0.032 A 
HETATM   27  C   UNL     1      43.056 -14.841   3.376  1.00  0.00     0.023 A 
HETATM   28  C   UNL     1      42.463 -15.949   2.745  1.00  0.00    -0.061 A 
HETATM   29  C   UNL     1      41.073 -16.113   2.789  1.00  0.00     0.009 A 
HETATM   30  C   UNL     1      43.334 -16.948   2.039  1.00  0.00     0.048 C 
ENDBRANCH  17  20
ENDBRANCH   1  16
TORSDOF 6
ENDMDL
MODEL 7
REMARK VINA RESULT:      -8.0      6.329      9.307
REMARK  6 active torsions:
REMARK  status: ('A' for Active; 'I' for Inactive)
REMARK    1  A    between atoms: C_2  and  C_3 
REMARK    2  A    between atoms: C_3  and  N_4 
REMARK       I    between atoms: N_4  and  C_5 
REMARK    3  A    between atoms: C_5  and  C_6 
REMARK    4  A    between atoms: C_8  and  C_9 
REMARK    5  A    between atoms: C_9  and  N_10 
REMARK       I    between atoms: N_10  and  C_11 
REMARK    6  A    between atoms: C_11  and  C_12 
ROOT
HETATM    1  C   UNL     1      40.784 -13.760   3.702  1.00  0.00     0.161 C 
ENDROOT
BRANCH   1   2
HETATM    2  C   UNL     1      40.458 -14.090   2.269  1.00  0.00    -0.040 A 
HETATM    3  C   UNL     1      40.542 -13.093   1.285  1.00  0.00     0.026 A 
HETATM    4  C   UNL     1      40.228 -13.376  -0.049  1.00  0.00     0.032 A 
HETATM    5  C   UNL     1      39.859 -14.674  -0.414  1.00  0.00     0.017 A 
HETATM    6  C   UNL     1      39.764 -15.671   0.559  1.00  0.00     0.002 A 
HETATM    7  C   UNL     1      40.052 -15.378   1.895  1.00  0.00     0.009 A 
BRANCH   4   8
HETATM    8  C   UNL     1      40.295 -12.324  -1.100  1.00  0.00     0.252 C 
HETATM    9  N   UNL     1      39.203 -11.483  -1.173  1.00  0.00    -0.353 N 
HETATM   10  H   UNL     1      38.368 -11.735  -0.657  1.00  0.00     0.163 HD
HETATM   11  O   UNL     1      41.260 -12.265  -1.852  1.00  0.00    -0.268 OA
BRANCH   9  12
HETATM   12  C   UNL     1      39.083 -10.459  -2.200  1.00  0.00     0.080 C 
HETATM   13  C   UNL     1      39.362  -9.084  -1.599  1.00  0.00     0.032 C 
BRANCH  12  14
HETATM   14  C   UNL     1      37.725 -10.520  -2.922  1.00  0.00     0.020 C 
HETATM   15  C   UNL     1      36.937 -11.804  -2.691  1.00  0.00     0.007 C 
ENDBRANCH  12  14
ENDBRANCH   9  12
ENDBRANCH   4   8
ENDBRANCH   1   2
BRANCH   1  16
HETATM   16  N   UNL     1      41.487 -14.827   4.361  1.00  0.00    -0.351 N 
HETATM   17  C   UNL     1      42.764 -15.218   4.024  1.00  0.00     0.273 C 
HETATM   18  O   UNL     1      43.452 -14.643   3.184  1.00  0.00    -0.266 OA
HETATM   19  H   UNL     1      41.033 -15.385   5.078  1.00  0.00     0.163 HD
BRANCH  17  20
HETATM   20  C   UNL     1      43.217 -16.407   4.765  1.00  0.00     0.157 A 
HETATM   21  N   UNL     1      43.483 -16.349   6.090  1.00  0.00    -0.168 NA
HETATM   22  N   UNL     1      43.824 -17.612   6.402  1.00  0.00    -0.277 N 
HETATM   23  H   UNL     1      44.059 -17.823   7.365  1.00  0.00     0.189 HD
HETATM   24  C   UNL     1      43.811 -18.481   5.347  1.00  0.00     0.063 A 
HETATM   25  C   UNL     1      43.422 -17.721   4.251  1.00  0.00     0.029 A 
HETATM   26  C   UNL     1      44.100 -19.846   5.265  1.00  0.00     0.032 A 
HETATM   27  C   UNL     1      43.322 -18.346   2.993  1.00  0.00     0.023 A 
HETATM   28  C   UNL     1      43.616 -19.716   2.874  1.00  0.00    -0.061 A 
HETATM   29  C   UNL     1      43.997 -20.446   4.005  1.00  0.00     0.009 A 
HETATM   30  C   UNL     1      43.527 -20.374   1.527  1.00  0.00     0.048 C 
ENDBRANCH  17  20
ENDBRANCH   1  16
TORSDOF 6
ENDMDL
MODEL 8
REMARK VINA RESULT:      -8.0      2.149      9.394
REMARK  6 active torsions:
REMARK  status: ('A' for Active; 'I' for Inactive)
REMARK    1  A    between atoms: C_2  and  C_3 
REMARK    2  A    between atoms: C_3  and  N_4 
REMARK       I    between atoms: N_4  and  C_5 
REMARK    3  A    between atoms: C_5  and  C_6 
REMARK    4  A    between atoms: C_8  and  C_9 
REMARK    5  A    between atoms: C_9  and  N_10 
REMARK       I    between atoms: N_10  and  C_11 
REMARK    6  A    between atoms: C_11  and  C_12 
ROOT
HETATM    1  C   UNL     1      43.982 -11.434   6.857  1.00  0.00     0.161 C 
ENDROOT
BRANCH   1   2
HETATM    2  C   UNL     1      42.852 -12.042   6.068  1.00  0.00    -0.040 A 
HETATM    3  C   UNL     1      42.848 -13.420   5.800  1.00  0.00     0.026 A 
HETATM    4  C   UNL     1      41.816 -14.000   5.054  1.00  0.00     0.032 A 
HETATM    5  C   UNL     1      40.759 -13.207   4.598  1.00  0.00     0.017 A 
HETATM    6  C   UNL     1      40.759 -11.834   4.851  1.00  0.00     0.002 A 
HETATM    7  C   UNL     1      41.805 -11.253   5.573  1.00  0.00     0.009 A 
BRANCH   4   8
HETATM    8  C   UNL     1      41.808 -15.456   4.748  1.00  0.00     0.252 C 
HETATM    9  N   UNL     1      42.998 -15.973   4.275  1.00  0.00    -0.353 N 
HETATM   10  H   UNL     1      43.725 -15.326   3.995  1.00  0.00     0.163 HD
HETATM   11  O   UNL     1      40.782 -16.110   4.887  1.00  0.00    -0.268 OA
BRANCH   9  12
HETATM   12  C   UNL     1      43.125 -17.361   3.852  1.00  0.00     0.080 C 
HETATM   13  C   UNL     1      44.275 -18.029   4.602  1.00  0.00     0.032 C 
BRANCH  12  14
HETATM   14  C   UNL     1      43.264 -17.489   2.325  1.00  0.00     0.020 C 
HETATM   15  C   UNL     1      43.295 -16.164   1.574  1.00  0.00     0.007 C 
ENDBRANCH  12  14
ENDBRANCH   9  12
ENDBRANCH   4   8
ENDBRANCH   1   2
BRANCH   1  16
HETATM   16  N   UNL     1      43.620 -11.191   8.227  1.00  0.00    -0.351 N 
HETATM   17  C   UNL     1      44.373 -10.423   9.088  1.00  0.00     0.273 C 
HETATM   18  O   UNL     1      45.381  -9.810   8.748  1.00  0.00    -0.266 OA
HETATM   19  H   UNL     1      42.806 -11.638   8.637  1.00  0.00     0.163 HD
BRANCH  17  20
HETATM   20  C   UNL     1      43.853 -10.424  10.466  1.00  0.00     0.157 A 
HETATM   21  N   UNL     1      43.856 -11.549  11.216  1.00  0.00    -0.168 NA
HETATM   22  N   UNL     1      43.350 -11.146  12.396  1.00  0.00    -0.277 N 
HETATM   23  H   UNL     1      43.265 -11.828  13.141  1.00  0.00     0.189 HD
HETATM   24  C   UNL     1      43.002  -9.825  12.443  1.00  0.00     0.063 A 
HETATM   25  C   UNL     1      43.313  -9.319  11.188  1.00  0.00     0.029 A 
HETATM   26  C   UNL     1      42.453  -9.047  13.466  1.00  0.00     0.032 A 
HETATM   27  C   UNL     1      43.056  -7.960  10.921  1.00  0.00     0.023 A 
HETATM   28  C   UNL     1      42.494  -7.151  11.925  1.00  0.00    -0.061 A 
HETATM   29  C   UNL     1      42.203  -7.699  13.179  1.00  0.00     0.009 A 
HETATM   30  C   UNL     1      42.205  -5.707  11.631  1.00  0.00     0.048 C 
ENDBRANCH  17  20
ENDBRANCH   1  16
TORSDOF 6
ENDMDL
MODEL 9
REMARK VINA RESULT:      -7.9      4.448     10.018
REMARK  6 active torsions:
REMARK  status: ('A' for Active; 'I' for Inactive)
REMARK    1  A    between atoms: C_2  and  C_3 
REMARK    2  A    between atoms: C_3  and  N_4 
REMARK       I    between atoms: N_4  and  C_5 
REMARK    3  A    between atoms: C_5  and  C_6 
REMARK    4  A    between atoms: C_8  and  C_9 
REMARK    5  A    between atoms: C_9  and  N_10 
REMARK       I    between atoms: N_10  and  C_11 
REMARK    6  A    between atoms: C_11  and  C_12 
ROOT
HETATM    1  C   UNL     1      40.792 -13.792   5.877  1.00  0.00     0.161 C 
ENDROOT
BRANCH   1   2
HETATM    2  C   UNL     1      40.820 -14.454   4.524  1.00  0.00    -0.040 A 
HETATM    3  C   UNL     1      40.654 -13.683   3.364  1.00  0.00     0.026 A 
HETATM    4  C   UNL     1      40.661 -14.282   2.100  1.00  0.00     0.032 A 
HETATM    5  C   UNL     1      40.869 -15.660   1.987  1.00  0.00     0.017 A 
HETATM    6  C   UNL     1      41.027 -16.437   3.135  1.00  0.00     0.002 A 
HETATM    7  C   UNL     1      40.992 -15.840   4.398  1.00  0.00     0.009 A 
BRANCH   4   8
HETATM    8  C   UNL     1      40.467 -13.479   0.862  1.00  0.00     0.252 C 
HETATM    9  N   UNL     1      39.567 -13.994  -0.049  1.00  0.00    -0.353 N 
HETATM   10  H   UNL     1      39.243 -14.944   0.081  1.00  0.00     0.163 HD
HETATM   11  O   UNL     1      41.110 -12.451   0.688  1.00  0.00    -0.268 OA
BRANCH   9  12
HETATM   12  C   UNL     1      39.332 -13.367  -1.342  1.00  0.00     0.080 C 
HETATM   13  C   UNL     1      37.921 -12.785  -1.389  1.00  0.00     0.032 C 
BRANCH  12  14
HETATM   14  C   UNL     1      39.610 -14.330  -2.511  1.00  0.00     0.020 C 
HETATM   15  C   UNL     1      38.365 -14.862  -3.209  1.00  0.00     0.007 C 
ENDBRANCH  12  14
ENDBRANCH   9  12
ENDBRANCH   4   8
ENDBRANCH   1   2
BRANCH   1  16
HETATM   16  N   UNL     1      42.036 -13.145   6.194  1.00  0.00    -0.351 N 
HETATM   17  C   UNL     1      42.223 -11.782   6.127  1.00  0.00     0.273 C 
HETATM   18  O   UNL     1      41.325 -10.984   5.866  1.00  0.00    -0.266 OA
HETATM   19  H   UNL     1      42.861 -13.689   6.427  1.00  0.00     0.163 HD
BRANCH  17  20
HETATM   20  C   UNL     1      43.615 -11.378   6.385  1.00  0.00     0.157 A 
HETATM   21  N   UNL     1      44.598 -11.636   5.493  1.00  0.00    -0.168 NA
HETATM   22  N   UNL     1      45.691 -11.092   6.057  1.00  0.00    -0.277 N 
HETATM   23  H   UNL     1      46.570 -11.150   5.556  1.00  0.00     0.189 HD
HETATM   24  C   UNL     1      45.473 -10.512   7.275  1.00  0.00     0.063 A 
HETATM   25  C   UNL     1      44.117 -10.686   7.526  1.00  0.00     0.029 A 
HETATM   26  C   UNL     1      46.335  -9.859   8.160  1.00  0.00     0.032 A 
HETATM   27  C   UNL     1      43.582 -10.193   8.732  1.00  0.00     0.023 A 
HETATM   28  C   UNL     1      44.425  -9.540   9.649  1.00  0.00    -0.061 A 
HETATM   29  C   UNL     1      45.783  -9.378   9.353  1.00  0.00     0.009 A 
HETATM   30  C   UNL     1      43.853  -9.032  10.942  1.00  0.00     0.048 C 
ENDBRANCH  17  20
ENDBRANCH   1  16
TORSDOF 6
ENDMDL
MODEL 10
REMARK VINA RESULT:      -7.5     17.593     20.512
REMARK  6 active torsions:
REMARK  status: ('A' for Active; 'I' for Inactive)
REMARK    1  A    between atoms: C_2  and  C_3 
REMARK    2  A    between atoms: C_3  and  N_4 
REMARK       I    between atoms: N_4  and  C_5 
REMARK    3  A    between atoms: C_5  and  C_6 
REMARK    4  A    between atoms: C_8  and  C_9 
REMARK    5  A    between atoms: C_9  and  N_10 
REMARK       I    between atoms: N_10  and  C_11 
REMARK    6  A    between atoms: C_11  and  C_12 
ROOT
HETATM    1  C   UNL     1      46.510 -28.426   1.996  1.00  0.00     0.161 C 
ENDROOT
BRANCH   1   2
HETATM    2  C   UNL     1      47.873 -28.993   2.295  1.00  0.00    -0.040 A 
HETATM    3  C   UNL     1      48.560 -29.719   1.310  1.00  0.00     0.026 A 
HETATM    4  C   UNL     1      49.820 -30.268   1.575  1.00  0.00     0.032 A 
HETATM    5  C   UNL     1      50.417 -30.063   2.822  1.00  0.00     0.017 A 
HETATM    6  C   UNL     1      49.738 -29.350   3.812  1.00  0.00     0.002 A 
HETATM    7  C   UNL     1      48.468 -28.827   3.553  1.00  0.00     0.009 A 
BRANCH   4   8
HETATM    8  C   UNL     1      50.552 -31.055   0.546  1.00  0.00     0.252 C 
HETATM    9  N   UNL     1      50.208 -30.791  -0.764  1.00  0.00    -0.353 N 
HETATM   10  H   UNL     1      49.379 -30.237  -0.940  1.00  0.00     0.163 HD
HETATM   11  O   UNL     1      51.374 -31.898   0.885  1.00  0.00    -0.268 OA
BRANCH   9  12
HETATM   12  C   UNL     1      50.774 -31.538  -1.878  1.00  0.00     0.080 C 
HETATM   13  C   UNL     1      51.982 -30.794  -2.442  1.00  0.00     0.032 C 
BRANCH  12  14
HETATM   14  C   UNL     1      49.722 -31.856  -2.956  1.00  0.00     0.020 C 
HETATM   15  C   UNL     1      48.296 -31.986  -2.436  1.00  0.00     0.007 C 
ENDBRANCH  12  14
ENDBRANCH   9  12
ENDBRANCH   4   8
ENDBRANCH   1   2
BRANCH   1  16
HETATM   16  N   UNL     1      46.242 -28.366   0.585  1.00  0.00    -0.351 N 
HETATM   17  C   UNL     1      45.113 -28.898   0.002  1.00  0.00     0.273 C 
HETATM   18  O   UNL     1      44.192 -29.403   0.639  1.00  0.00    -0.266 OA
HETATM   19  H   UNL     1      46.923 -27.972  -0.057  1.00  0.00     0.163 HD
BRANCH  17  20
HETATM   20  C   UNL     1      45.129 -28.811  -1.468  1.00  0.00     0.157 A 
HETATM   21  N   UNL     1      45.463 -27.663  -2.100  1.00  0.00    -0.168 NA
HETATM   22  N   UNL     1      45.398 -27.988  -3.404  1.00  0.00    -0.277 N 
HETATM   23  H   UNL     1      45.625 -27.276  -4.089  1.00  0.00     0.189 HD
HETATM   24  C   UNL     1      45.022 -29.279  -3.651  1.00  0.00     0.063 A 
HETATM   25  C   UNL     1      44.830 -29.850  -2.399  1.00  0.00     0.029 A 
HETATM   26  C   UNL     1      44.840 -29.980  -4.846  1.00  0.00     0.032 A 
HETATM   27  C   UNL     1      44.423 -31.196  -2.323  1.00  0.00     0.023 A 
HETATM   28  C   UNL     1      44.221 -31.928  -3.506  1.00  0.00    -0.061 A 
HETATM   29  C   UNL     1      44.433 -31.316  -4.747  1.00  0.00     0.009 A 
HETATM   30  C   UNL     1      43.768 -33.357  -3.421  1.00  0.00     0.048 C 
ENDBRANCH  17  20
ENDBRANCH   1  16
TORSDOF 6
ENDMDL
