MODEL 1
REMARK VINA RESULT:      -9.0      0.000      0.000
REMARK  5 active torsions:
REMARK  status: ('A' for Active; 'I' for Inactive)
REMARK    1  A    between atoms: O_2  and  C_3 
REMARK    2  A    between atoms: C_3  and  C_4 
REMARK    3  A    between atoms: C_6  and  C_7 
REMARK       I    between atoms: C_7  and  N_8 
REMARK    4  A    between atoms: N_8  and  C_9 
REMARK    5  A    between atoms: C_10  and  O_11 
ROOT
HETATM    1  C   UNL     1      43.497 -13.947   6.310  1.00  0.00     0.071 A 
HETATM    2  C   UNL     1      42.947 -13.691   5.038  1.00  0.00     0.096 A 
HETATM    3  C   UNL     1      42.788 -14.701   4.076  1.00  0.00     0.054 A 
HETATM    4  C   UNL     1      43.245 -15.994   4.391  1.00  0.00     0.014 A 
HETATM    5  C   UNL     1      43.793 -16.214   5.650  1.00  0.00     0.089 A 
HETATM    6  O   UNL     1      44.181 -17.512   5.781  1.00  0.00    -0.309 OA
HETATM    7  C   UNL     1      43.895 -18.135   4.606  1.00  0.00     0.087 A 
HETATM    8  C   UNL     1      43.309 -17.246   3.712  1.00  0.00     0.011 A 
HETATM    9  C   UNL     1      44.153 -19.474   4.324  1.00  0.00     0.038 A 
HETATM   10  C   UNL     1      43.790 -19.926   3.052  1.00  0.00     0.003 A 
HETATM   11  C   UNL     1      43.197 -19.066   2.123  1.00  0.00     0.001 A 
HETATM   12  C   UNL     1      42.948 -17.722   2.437  1.00  0.00     0.015 A 
HETATM   13  C   UNL     1      43.929 -15.234   6.636  1.00  0.00     0.070 A 
ENDROOT
BRANCH   1  14
HETATM   14  N   UNL     1      43.607 -12.840   7.183  1.00  0.00    -0.320 N 
HETATM   15  C   UNL     1      44.597 -11.879   7.202  1.00  0.00     0.256 C 
HETATM   16  O   UNL     1      45.584 -11.835   6.478  1.00  0.00    -0.267 OA
HETATM   17  H   UNL     1      42.799 -12.714   7.781  1.00  0.00     0.169 HD
BRANCH  15  18
HETATM   18  C   UNL     1      44.367 -10.759   8.158  1.00  0.00     0.033 A 
HETATM   19  C   UNL     1      43.131 -10.099   8.103  1.00  0.00     0.026 A 
HETATM   20  C   UNL     1      42.834  -9.058   8.991  1.00  0.00    -0.034 A 
HETATM   21  C   UNL     1      43.800  -8.678   9.933  1.00  0.00     0.009 A 
HETATM   22  C   UNL     1      45.040  -9.319   9.980  1.00  0.00     0.002 A 
HETATM   23  C   UNL     1      45.328 -10.358   9.093  1.00  0.00     0.017 A 
BRANCH  20  24
HETATM   24  C   UNL     1      41.495  -8.368   8.939  1.00  0.00     0.205 C 
BRANCH  24  25
HETATM   25  O   UNL     1      40.470  -9.323   9.197  1.00  0.00    -0.391 OA
HETATM   26  C   UNL     1      40.162  -9.394  10.581  1.00  0.00     0.201 C 
ENDBRANCH  24  25
ENDBRANCH  20  24
ENDBRANCH  15  18
ENDBRANCH   1  14
BRANCH   2  27
HETATM   27  O   UNL     1      42.521 -12.408   4.766  1.00  0.00    -0.354 OA
HETATM   28  C   UNL     1      43.269 -11.843   3.688  1.00  0.00     0.210 C 
ENDBRANCH   2  27
TORSDOF 5
ENDMDL
MODEL 2
REMARK VINA RESULT:      -9.0      1.051      1.324
REMARK  5 active torsions:
REMARK  status: ('A' for Active; 'I' for Inactive)
REMARK    1  A    between atoms: O_2  and  C_3 
REMARK    2  A    between atoms: C_3  and  C_4 
REMARK    3  A    between atoms: C_6  and  C_7 
REMARK       I    between atoms: C_7  and  N_8 
REMARK    4  A    between atoms: N_8  and  C_9 
REMARK    5  A    between atoms: C_10  and  O_11 
ROOT
HETATM    1  C   UNL     1      43.519 -13.811   6.302  1.00  0.00     0.071 A 
HETATM    2  C   UNL     1      42.968 -13.574   5.026  1.00  0.00     0.096 A 
HETATM    3  C   UNL     1      42.806 -14.598   4.081  1.00  0.00     0.054 A 
HETATM    4  C   UNL     1      43.258 -15.887   4.416  1.00  0.00     0.014 A 
HETATM    5  C   UNL     1      43.806 -16.089   5.678  1.00  0.00     0.089 A 
HETATM    6  O   UNL     1      44.190 -17.386   5.829  1.00  0.00    -0.309 OA
HETATM    7  C   UNL     1      43.901 -18.026   4.665  1.00  0.00     0.087 A 
HETATM    8  C   UNL     1      43.317 -17.149   3.756  1.00  0.00     0.011 A 
HETATM    9  C   UNL     1      44.153 -19.371   4.403  1.00  0.00     0.038 A 
HETATM   10  C   UNL     1      43.788 -19.841   3.139  1.00  0.00     0.003 A 
HETATM   11  C   UNL     1      43.197 -18.994   2.197  1.00  0.00     0.001 A 
HETATM   12  C   UNL     1      42.953 -17.645   2.490  1.00  0.00     0.015 A 
HETATM   13  C   UNL     1      43.946 -15.094   6.648  1.00  0.00     0.070 A 
ENDROOT
BRANCH   1  14
HETATM   14  N   UNL     1      43.633 -12.690   7.158  1.00  0.00    -0.320 N 
HETATM   15  C   UNL     1      44.653 -11.763   7.196  1.00  0.00     0.256 C 
HETATM   16  O   UNL     1      45.667 -11.766   6.510  1.00  0.00    -0.267 OA
HETATM   17  H   UNL     1      42.808 -12.526   7.722  1.00  0.00     0.169 HD
BRANCH  15  18
HETATM   18  C   UNL     1      44.426 -10.616   8.121  1.00  0.00     0.033 A 
HETATM   19  C   UNL     1      43.433  -9.688   7.775  1.00  0.00     0.026 A 
HETATM   20  C   UNL     1      43.144  -8.603   8.613  1.00  0.00    -0.034 A 
HETATM   21  C   UNL     1      43.873  -8.455   9.801  1.00  0.00     0.009 A 
HETATM   22  C   UNL     1      44.875  -9.366  10.141  1.00  0.00     0.002 A 
HETATM   23  C   UNL     1      45.156 -10.446   9.302  1.00  0.00     0.017 A 
BRANCH  20  24
HETATM   24  C   UNL     1      42.061  -7.622   8.244  1.00  0.00     0.205 C 
BRANCH  24  25
HETATM   25  O   UNL     1      42.566  -6.720   7.264  1.00  0.00    -0.391 OA
HETATM   26  C   UNL     1      41.730  -6.679   6.116  1.00  0.00     0.201 C 
ENDBRANCH  24  25
ENDBRANCH  20  24
ENDBRANCH  15  18
ENDBRANCH   1  14
BRANCH   2  27
HETATM   27  O   UNL     1      42.547 -12.293   4.735  1.00  0.00    -0.354 OA
HETATM   28  C   UNL     1      43.297 -11.747   3.648  1.00  0.00     0.210 C 
ENDBRANCH   2  27
TORSDOF 5
ENDMDL
MODEL 3
REMARK VINA RESULT:      -8.8      1.386      1.590
REMARK  5 active torsions:
REMARK  status: ('A' for Active; 'I' for Inactive)
REMARK    1  A    between atoms: O_2  and  C_3 
REMARK    2  A    between atoms: C_3  and  C_4 
REMARK    3  A    between atoms: C_6  and  C_7 
REMARK       I    between atoms: C_7  and  N_8 
REMARK    4  A    between atoms: N_8  and  C_9 
REMARK    5  A    between atoms: C_10  and  O_11 
ROOT
HETATM    1  C   UNL     1      43.447 -13.767   6.475  1.00  0.00     0.071 A 
HETATM    2  C   UNL     1      42.728 -13.524   5.287  1.00  0.00     0.096 A 
HETATM    3  C   UNL     1      42.539 -14.515   4.312  1.00  0.00     0.054 A 
HETATM    4  C   UNL     1      43.136 -15.772   4.520  1.00  0.00     0.014 A 
HETATM    5  C   UNL     1      43.848 -15.979   5.697  1.00  0.00     0.089 A 
HETATM    6  O   UNL     1      44.356 -17.242   5.729  1.00  0.00    -0.309 OA
HETATM    7  C   UNL     1      43.984 -17.853   4.573  1.00  0.00     0.087 A 
HETATM    8  C   UNL     1      43.222 -16.992   3.789  1.00  0.00     0.011 A 
HETATM    9  C   UNL     1      44.315 -19.156   4.210  1.00  0.00     0.038 A 
HETATM   10  C   UNL     1      43.841 -19.600   2.972  1.00  0.00     0.003 A 
HETATM   11  C   UNL     1      43.070 -18.769   2.154  1.00  0.00     0.001 A 
HETATM   12  C   UNL     1      42.750 -17.462   2.548  1.00  0.00     0.015 A 
HETATM   13  C   UNL     1      44.021 -15.021   6.697  1.00  0.00     0.070 A 
ENDROOT
BRANCH   1  14
HETATM   14  N   UNL     1      43.569 -12.680   7.372  1.00  0.00    -0.320 N 
HETATM   15  C   UNL     1      44.568 -11.730   7.410  1.00  0.00     0.256 C 
HETATM   16  O   UNL     1      45.553 -11.678   6.685  1.00  0.00    -0.267 OA
HETATM   17  H   UNL     1      42.763 -12.561   7.975  1.00  0.00     0.169 HD
BRANCH  15  18
HETATM   18  C   UNL     1      44.350 -10.629   8.390  1.00  0.00     0.033 A 
HETATM   19  C   UNL     1      43.910 -10.978   9.675  1.00  0.00     0.026 A 
HETATM   20  C   UNL     1      43.714  -9.998  10.657  1.00  0.00    -0.034 A 
HETATM   21  C   UNL     1      43.957  -8.657  10.330  1.00  0.00     0.009 A 
HETATM   22  C   UNL     1      44.378  -8.302   9.046  1.00  0.00     0.002 A 
HETATM   23  C   UNL     1      44.573  -9.284   8.074  1.00  0.00     0.017 A 
BRANCH  20  24
HETATM   24  C   UNL     1      43.261 -10.385  12.041  1.00  0.00     0.205 C 
BRANCH  24  25
HETATM   25  O   UNL     1      42.123  -9.603  12.393  1.00  0.00    -0.391 OA
HETATM   26  C   UNL     1      42.234  -9.089  13.713  1.00  0.00     0.201 C 
ENDBRANCH  24  25
ENDBRANCH  20  24
ENDBRANCH  15  18
ENDBRANCH   1  14
BRANCH   2  27
HETATM   27  O   UNL     1      42.168 -12.275   5.119  1.00  0.00    -0.354 OA
HETATM   28  C   UNL     1      40.741 -12.349   5.158  1.00  0.00     0.210 C 
ENDBRANCH   2  27
TORSDOF 5
ENDMDL
MODEL 4
REMARK VINA RESULT:      -8.4      4.949      7.422
REMARK  5 active torsions:
REMARK  status: ('A' for Active; 'I' for Inactive)
REMARK    1  A    between atoms: O_2  and  C_3 
REMARK    2  A    between atoms: C_3  and  C_4 
REMARK    3  A    between atoms: C_6  and  C_7 
REMARK       I    between atoms: C_7  and  N_8 
REMARK    4  A    between atoms: N_8  and  C_9 
REMARK    5  A    between atoms: C_10  and  O_11 
ROOT
HETATM    1  C   UNL     1      42.374 -15.034   1.737  1.00  0.00     0.071 A 
HETATM    2  C   UNL     1      42.127 -14.664   3.074  1.00  0.00     0.096 A 
HETATM    3  C   UNL     1      42.409 -15.520   4.150  1.00  0.00     0.054 A 
HETATM    4  C   UNL     1      42.908 -16.803   3.862  1.00  0.00     0.014 A 
HETATM    5  C   UNL     1      43.133 -17.144   2.533  1.00  0.00     0.089 A 
HETATM    6  O   UNL     1      43.610 -18.415   2.441  1.00  0.00    -0.309 OA
HETATM    7  C   UNL     1      43.689 -18.906   3.707  1.00  0.00     0.087 A 
HETATM    8  C   UNL     1      43.272 -17.950   4.628  1.00  0.00     0.011 A 
HETATM    9  C   UNL     1      44.119 -20.186   4.047  1.00  0.00     0.038 A 
HETATM   10  C   UNL     1      44.121 -20.504   5.408  1.00  0.00     0.003 A 
HETATM   11  C   UNL     1      43.712 -19.572   6.367  1.00  0.00     0.001 A 
HETATM   12  C   UNL     1      43.286 -18.289   5.994  1.00  0.00     0.015 A 
HETATM   13  C   UNL     1      42.893 -16.298   1.448  1.00  0.00     0.070 A 
ENDROOT
BRANCH   1  14
HETATM   14  N   UNL     1      42.039 -14.081   0.747  1.00  0.00    -0.320 N 
HETATM   15  C   UNL     1      40.823 -13.916   0.117  1.00  0.00     0.256 C 
HETATM   16  O   UNL     1      39.818 -14.595   0.282  1.00  0.00    -0.267 OA
HETATM   17  H   UNL     1      42.768 -13.397   0.580  1.00  0.00     0.169 HD
BRANCH  15  18
HETATM   18  C   UNL     1      40.741 -12.735  -0.789  1.00  0.00     0.033 A 
HETATM   19  C   UNL     1      41.137 -11.492  -0.277  1.00  0.00     0.026 A 
HETATM   20  C   UNL     1      41.115 -10.345  -1.081  1.00  0.00    -0.034 A 
HETATM   21  C   UNL     1      40.679 -10.460  -2.408  1.00  0.00     0.009 A 
HETATM   22  C   UNL     1      40.265 -11.693  -2.918  1.00  0.00     0.002 A 
HETATM   23  C   UNL     1      40.293 -12.831  -2.111  1.00  0.00     0.017 A 
BRANCH  20  24
HETATM   24  C   UNL     1      41.562  -9.017  -0.528  1.00  0.00     0.205 C 
BRANCH  24  25
HETATM   25  O   UNL     1      42.950  -8.844  -0.798  1.00  0.00    -0.391 OA
HETATM   26  C   UNL     1      43.176  -7.756  -1.683  1.00  0.00     0.201 C 
ENDBRANCH  24  25
ENDBRANCH  20  24
ENDBRANCH  15  18
ENDBRANCH   1  14
BRANCH   2  27
HETATM   27  O   UNL     1      41.628 -13.401   3.311  1.00  0.00    -0.354 OA
HETATM   28  C   UNL     1      40.344 -13.470   3.934  1.00  0.00     0.210 C 
ENDBRANCH   2  27
TORSDOF 5
ENDMDL
MODEL 5
REMARK VINA RESULT:      -8.2      4.685      8.505
REMARK  5 active torsions:
REMARK  status: ('A' for Active; 'I' for Inactive)
REMARK    1  A    between atoms: O_2  and  C_3 
REMARK    2  A    between atoms: C_3  and  C_4 
REMARK    3  A    between atoms: C_6  and  C_7 
REMARK       I    between atoms: C_7  and  N_8 
REMARK    4  A    between atoms: N_8  and  C_9 
REMARK    5  A    between atoms: C_10  and  O_11 
ROOT
HETATM    1  C   UNL     1      40.673 -14.922   1.706  1.00  0.00     0.071 A 
HETATM    2  C   UNL     1      40.555 -13.691   2.381  1.00  0.00     0.096 A 
HETATM    3  C   UNL     1      39.894 -12.589   1.817  1.00  0.00     0.054 A 
HETATM    4  C   UNL     1      39.383 -12.720   0.512  1.00  0.00     0.014 A 
HETATM    5  C   UNL     1      39.524 -13.944  -0.134  1.00  0.00     0.089 A 
HETATM    6  O   UNL     1      38.978 -13.890  -1.379  1.00  0.00    -0.309 OA
HETATM    7  C   UNL     1      38.490 -12.632  -1.548  1.00  0.00     0.087 A 
HETATM    8  C   UNL     1      38.708 -11.866  -0.408  1.00  0.00     0.011 A 
HETATM    9  C   UNL     1      37.862 -12.161  -2.699  1.00  0.00     0.038 A 
HETATM   10  C   UNL     1      37.436 -10.830  -2.679  1.00  0.00     0.003 A 
HETATM   11  C   UNL     1      37.633 -10.026  -1.553  1.00  0.00     0.001 A 
HETATM   12  C   UNL     1      38.266 -10.529  -0.407  1.00  0.00     0.015 A 
HETATM   13  C   UNL     1      40.146 -15.065   0.420  1.00  0.00     0.070 A 
ENDROOT
BRANCH   1  14
HETATM   14  N   UNL     1      41.369 -15.950   2.384  1.00  0.00    -0.320 N 
HETATM   15  C   UNL     1      42.662 -16.376   2.166  1.00  0.00     0.256 C 
HETATM   16  O   UNL     1      43.434 -15.955   1.313  1.00  0.00    -0.267 OA
HETATM   17  H   UNL     1      40.863 -16.324   3.179  1.00  0.00     0.169 HD
BRANCH  15  18
HETATM   18  C   UNL     1      43.160 -17.394   3.133  1.00  0.00     0.033 A 
HETATM   19  C   UNL     1      43.123 -17.069   4.497  1.00  0.00     0.026 A 
HETATM   20  C   UNL     1      43.546 -17.989   5.465  1.00  0.00    -0.034 A 
HETATM   21  C   UNL     1      44.019 -19.240   5.045  1.00  0.00     0.009 A 
HETATM   22  C   UNL     1      44.076 -19.562   3.687  1.00  0.00     0.002 A 
HETATM   23  C   UNL     1      43.650 -18.640   2.729  1.00  0.00     0.017 A 
BRANCH  20  24
HETATM   24  C   UNL     1      43.483 -17.640   6.929  1.00  0.00     0.205 C 
BRANCH  24  25
HETATM   25  O   UNL     1      42.476 -16.652   7.128  1.00  0.00    -0.391 OA
HETATM   26  C   UNL     1      42.960 -15.566   7.905  1.00  0.00     0.201 C 
ENDBRANCH  24  25
ENDBRANCH  20  24
ENDBRANCH  15  18
ENDBRANCH   1  14
BRANCH   2  27
HETATM   27  O   UNL     1      41.078 -13.603   3.654  1.00  0.00    -0.354 OA
HETATM   28  C   UNL     1      40.105 -13.098   4.570  1.00  0.00     0.210 C 
ENDBRANCH   2  27
TORSDOF 5
ENDMDL
MODEL 6
REMARK VINA RESULT:      -8.1      4.170      7.188
REMARK  5 active torsions:
REMARK  status: ('A' for Active; 'I' for Inactive)
REMARK    1  A    between atoms: O_2  and  C_3 
REMARK    2  A    between atoms: C_3  and  C_4 
REMARK    3  A    between atoms: C_6  and  C_7 
REMARK       I    between atoms: C_7  and  N_8 
REMARK    4  A    between atoms: N_8  and  C_9 
REMARK    5  A    between atoms: C_10  and  O_11 
ROOT
HETATM    1  C   UNL     1      42.773 -14.867   2.059  1.00  0.00     0.071 A 
HETATM    2  C   UNL     1      42.920 -14.724   3.453  1.00  0.00     0.096 A 
HETATM    3  C   UNL     1      43.234 -15.808   4.287  1.00  0.00     0.054 A 
HETATM    4  C   UNL     1      43.353 -17.082   3.701  1.00  0.00     0.014 A 
HETATM    5  C   UNL     1      43.192 -17.194   2.324  1.00  0.00     0.089 A 
HETATM    6  O   UNL     1      43.338 -18.490   1.932  1.00  0.00    -0.309 OA
HETATM    7  C   UNL     1      43.583 -19.221   3.052  1.00  0.00     0.087 A 
HETATM    8  C   UNL     1      43.609 -18.402   4.175  1.00  0.00     0.011 A 
HETATM    9  C   UNL     1      43.778 -20.600   3.084  1.00  0.00     0.038 A 
HETATM   10  C   UNL     1      44.010 -21.170   4.339  1.00  0.00     0.003 A 
HETATM   11  C   UNL     1      44.047 -20.382   5.493  1.00  0.00     0.001 A 
HETATM   12  C   UNL     1      43.850 -18.995   5.429  1.00  0.00     0.015 A 
HETATM   13  C   UNL     1      42.915 -16.125   1.469  1.00  0.00     0.070 A 
ENDROOT
BRANCH   1  14
HETATM   14  N   UNL     1      42.450 -13.696   1.335  1.00  0.00    -0.320 N 
HETATM   15  C   UNL     1      41.202 -13.281   0.921  1.00  0.00     0.256 C 
HETATM   16  O   UNL     1      40.145 -13.879   1.080  1.00  0.00    -0.267 OA
HETATM   17  H   UNL     1      43.235 -13.066   1.213  1.00  0.00     0.169 HD
BRANCH  15  18
HETATM   18  C   UNL     1      41.165 -11.932   0.290  1.00  0.00     0.033 A 
HETATM   19  C   UNL     1      40.820 -11.856  -1.067  1.00  0.00     0.026 A 
HETATM   20  C   UNL     1      40.735 -10.618  -1.717  1.00  0.00    -0.034 A 
HETATM   21  C   UNL     1      41.012  -9.453  -0.988  1.00  0.00     0.009 A 
HETATM   22  C   UNL     1      41.375  -9.524   0.358  1.00  0.00     0.002 A 
HETATM   23  C   UNL     1      41.455 -10.761   1.000  1.00  0.00     0.017 A 
BRANCH  20  24
HETATM   24  C   UNL     1      40.343 -10.544  -3.170  1.00  0.00     0.205 C 
BRANCH  24  25
HETATM   25  O   UNL     1      39.018 -11.047  -3.320  1.00  0.00    -0.391 OA
HETATM   26  C   UNL     1      38.065  -9.994  -3.367  1.00  0.00     0.201 C 
ENDBRANCH  24  25
ENDBRANCH  20  24
ENDBRANCH  15  18
ENDBRANCH   1  14
BRANCH   2  27
HETATM   27  O   UNL     1      42.785 -13.460   3.988  1.00  0.00    -0.354 OA
HETATM   28  C   UNL     1      43.195 -13.441   5.357  1.00  0.00     0.210 C 
ENDBRANCH   2  27
TORSDOF 5
ENDMDL
MODEL 7
REMARK VINA RESULT:      -8.0      1.683      8.863
REMARK  5 active torsions:
REMARK  status: ('A' for Active; 'I' for Inactive)
REMARK    1  A    between atoms: O_2  and  C_3 
REMARK    2  A    between atoms: C_3  and  C_4 
REMARK    3  A    between atoms: C_6  and  C_7 
REMARK       I    between atoms: C_7  and  N_8 
REMARK    4  A    between atoms: N_8  and  C_9 
REMARK    5  A    between atoms: C_10  and  O_11 
ROOT
HETATM    1  C   UNL     1      43.232 -12.344   6.095  1.00  0.00     0.071 A 
HETATM    2  C   UNL     1      42.285 -11.346   5.790  1.00  0.00     0.096 A 
HETATM    3  C   UNL     1      42.061 -10.246   6.632  1.00  0.00     0.054 A 
HETATM    4  C   UNL     1      42.778 -10.180   7.841  1.00  0.00     0.014 A 
HETATM    5  C   UNL     1      43.698 -11.185   8.120  1.00  0.00     0.089 A 
HETATM    6  O   UNL     1      44.293 -10.964   9.324  1.00  0.00    -0.309 OA
HETATM    7  C   UNL     1      43.756  -9.822   9.832  1.00  0.00     0.087 A 
HETATM    8  C   UNL     1      42.817  -9.291   8.955  1.00  0.00     0.011 A 
HETATM    9  C   UNL     1      44.088  -9.256  11.061  1.00  0.00     0.038 A 
HETATM   10  C   UNL     1      43.417  -8.080  11.409  1.00  0.00     0.003 A 
HETATM   11  C   UNL     1      42.468  -7.511  10.555  1.00  0.00     0.001 A 
HETATM   12  C   UNL     1      42.156  -8.103   9.323  1.00  0.00     0.015 A 
HETATM   13  C   UNL     1      43.964 -12.270   7.282  1.00  0.00     0.070 A 
ENDROOT
BRANCH   1  14
HETATM   14  N   UNL     1      43.356 -13.402   5.165  1.00  0.00    -0.320 N 
HETATM   15  C   UNL     1      42.960 -14.714   5.326  1.00  0.00     0.256 C 
HETATM   16  O   UNL     1      42.456 -15.205   6.328  1.00  0.00    -0.267 OA
HETATM   17  H   UNL     1      43.683 -13.103   4.254  1.00  0.00     0.169 HD
BRANCH  15  18
HETATM   18  C   UNL     1      43.103 -15.567   4.113  1.00  0.00     0.033 A 
HETATM   19  C   UNL     1      43.457 -16.911   4.299  1.00  0.00     0.026 A 
HETATM   20  C   UNL     1      43.579 -17.778   3.206  1.00  0.00    -0.034 A 
HETATM   21  C   UNL     1      43.351 -17.276   1.917  1.00  0.00     0.009 A 
HETATM   22  C   UNL     1      43.017 -15.934   1.724  1.00  0.00     0.002 A 
HETATM   23  C   UNL     1      42.894 -15.076   2.819  1.00  0.00     0.017 A 
BRANCH  20  24
HETATM   24  C   UNL     1      43.940 -19.226   3.418  1.00  0.00     0.205 C 
BRANCH  24  25
HETATM   25  O   UNL     1      44.349 -19.411   4.770  1.00  0.00    -0.391 OA
HETATM   26  C   UNL     1      44.075 -20.730   5.220  1.00  0.00     0.201 C 
ENDBRANCH  24  25
ENDBRANCH  20  24
ENDBRANCH  15  18
ENDBRANCH   1  14
BRANCH   2  27
HETATM   27  O   UNL     1      41.597 -11.454   4.600  1.00  0.00    -0.354 OA
HETATM   28  C   UNL     1      40.207 -11.685   4.836  1.00  0.00     0.210 C 
ENDBRANCH   2  27
TORSDOF 5
ENDMDL
MODEL 8
REMARK VINA RESULT:      -8.0      3.841      6.254
REMARK  5 active torsions:
REMARK  status: ('A' for Active; 'I' for Inactive)
REMARK    1  A    between atoms: O_2  and  C_3 
REMARK    2  A    between atoms: C_3  and  C_4 
REMARK    3  A    between atoms: C_6  and  C_7 
REMARK       I    between atoms: C_7  and  N_8 
REMARK    4  A    between atoms: N_8  and  C_9 
REMARK    5  A    between atoms: C_10  and  O_11 
ROOT
HETATM    1  C   UNL     1      42.613 -14.412   2.671  1.00  0.00     0.071 A 
HETATM    2  C   UNL     1      42.928 -14.516   4.040  1.00  0.00     0.096 A 
HETATM    3  C   UNL     1      43.318 -15.730   4.627  1.00  0.00     0.054 A 
HETATM    4  C   UNL     1      43.342 -16.880   3.816  1.00  0.00     0.014 A 
HETATM    5  C   UNL     1      43.015 -16.748   2.471  1.00  0.00     0.089 A 
HETATM    6  O   UNL     1      43.087 -17.954   1.844  1.00  0.00    -0.309 OA
HETATM    7  C   UNL     1      43.451 -18.871   2.780  1.00  0.00     0.087 A 
HETATM    8  C   UNL     1      43.628 -18.262   4.018  1.00  0.00     0.011 A 
HETATM    9  C   UNL     1      43.621 -20.234   2.546  1.00  0.00     0.038 A 
HETATM   10  C   UNL     1      43.992 -21.015   3.644  1.00  0.00     0.003 A 
HETATM   11  C   UNL     1      44.182 -20.443   4.905  1.00  0.00     0.001 A 
HETATM   12  C   UNL     1      44.005 -19.067   5.110  1.00  0.00     0.015 A 
HETATM   13  C   UNL     1      42.658 -15.546   1.857  1.00  0.00     0.070 A 
ENDROOT
BRANCH   1  14
HETATM   14  N   UNL     1      42.228 -13.132   2.207  1.00  0.00    -0.320 N 
HETATM   15  C   UNL     1      40.957 -12.596   2.177  1.00  0.00     0.256 C 
HETATM   16  O   UNL     1      39.922 -13.154   2.520  1.00  0.00    -0.267 OA
HETATM   17  H   UNL     1      43.012 -12.534   1.973  1.00  0.00     0.169 HD
BRANCH  15  18
HETATM   18  C   UNL     1      40.888 -11.169   1.754  1.00  0.00     0.033 A 
HETATM   19  C   UNL     1      41.418 -10.834   0.500  1.00  0.00     0.026 A 
HETATM   20  C   UNL     1      41.359  -9.518   0.025  1.00  0.00    -0.034 A 
HETATM   21  C   UNL     1      40.768  -8.535   0.831  1.00  0.00     0.009 A 
HETATM   22  C   UNL     1      40.255  -8.859   2.089  1.00  0.00     0.002 A 
HETATM   23  C   UNL     1      40.315 -10.174   2.554  1.00  0.00     0.017 A 
BRANCH  20  24
HETATM   24  C   UNL     1      41.913  -9.172  -1.333  1.00  0.00     0.205 C 
BRANCH  24  25
HETATM   25  O   UNL     1      43.243  -8.685  -1.183  1.00  0.00    -0.391 OA
HETATM   26  C   UNL     1      43.354  -7.335  -1.608  1.00  0.00     0.201 C 
ENDBRANCH  24  25
ENDBRANCH  20  24
ENDBRANCH  15  18
ENDBRANCH   1  14
BRANCH   2  27
HETATM   27  O   UNL     1      42.883 -13.367   4.800  1.00  0.00    -0.354 OA
HETATM   28  C   UNL     1      41.883 -13.468   5.816  1.00  0.00     0.210 C 
ENDBRANCH   2  27
TORSDOF 5
ENDMDL
MODEL 9
REMARK VINA RESULT:      -7.8      2.098      3.500
REMARK  5 active torsions:
REMARK  status: ('A' for Active; 'I' for Inactive)
REMARK    1  A    between atoms: O_2  and  C_3 
REMARK    2  A    between atoms: C_3  and  C_4 
REMARK    3  A    between atoms: C_6  and  C_7 
REMARK       I    between atoms: C_7  and  N_8 
REMARK    4  A    between atoms: N_8  and  C_9 
REMARK    5  A    between atoms: C_10  and  O_11 
ROOT
HETATM    1  C   UNL     1      42.922 -14.432   4.784  1.00  0.00     0.071 A 
HETATM    2  C   UNL     1      43.283 -15.187   5.918  1.00  0.00     0.096 A 
HETATM    3  C   UNL     1      43.596 -16.552   5.838  1.00  0.00     0.054 A 
HETATM    4  C   UNL     1      43.494 -17.183   4.584  1.00  0.00     0.014 A 
HETATM    5  C   UNL     1      43.125 -16.415   3.485  1.00  0.00     0.089 A 
HETATM    6  O   UNL     1      43.074 -17.184   2.363  1.00  0.00    -0.309 OA
HETATM    7  C   UNL     1      43.399 -18.452   2.731  1.00  0.00     0.087 A 
HETATM    8  C   UNL     1      43.674 -18.510   4.094  1.00  0.00     0.011 A 
HETATM    9  C   UNL     1      43.449 -19.550   1.876  1.00  0.00     0.038 A 
HETATM   10  C   UNL     1      43.798 -20.775   2.450  1.00  0.00     0.003 A 
HETATM   11  C   UNL     1      44.085 -20.877   3.814  1.00  0.00     0.001 A 
HETATM   12  C   UNL     1      44.029 -19.753   4.651  1.00  0.00     0.015 A 
HETATM   13  C   UNL     1      42.842 -15.049   3.533  1.00  0.00     0.070 A 
ENDROOT
BRANCH   1  14
HETATM   14  N   UNL     1      42.624 -13.067   5.003  1.00  0.00    -0.320 N 
HETATM   15  C   UNL     1      41.384 -12.501   5.218  1.00  0.00     0.256 C 
HETATM   16  O   UNL     1      40.308 -13.084   5.224  1.00  0.00    -0.267 OA
HETATM   17  H   UNL     1      43.447 -12.485   5.107  1.00  0.00     0.169 HD
BRANCH  15  18
HETATM   18  C   UNL     1      41.406 -11.048   5.550  1.00  0.00     0.033 A 
HETATM   19  C   UNL     1      42.255 -10.629   6.585  1.00  0.00     0.026 A 
HETATM   20  C   UNL     1      42.350  -9.275   6.930  1.00  0.00    -0.034 A 
HETATM   21  C   UNL     1      41.571  -8.344   6.229  1.00  0.00     0.009 A 
HETATM   22  C   UNL     1      40.710  -8.758   5.211  1.00  0.00     0.002 A 
HETATM   23  C   UNL     1      40.623 -10.109   4.870  1.00  0.00     0.017 A 
BRANCH  20  24
HETATM   24  C   UNL     1      43.281  -8.831   8.029  1.00  0.00     0.205 C 
BRANCH  24  25
HETATM   25  O   UNL     1      43.428  -7.416   7.969  1.00  0.00    -0.391 OA
HETATM   26  C   UNL     1      43.386  -6.834   9.265  1.00  0.00     0.201 C 
ENDBRANCH  24  25
ENDBRANCH  20  24
ENDBRANCH  15  18
ENDBRANCH   1  14
BRANCH   2  27
HETATM   27  O   UNL     1      43.362 -14.531   7.128  1.00  0.00    -0.354 OA
HETATM   28  C   UNL     1      43.136 -15.436   8.211  1.00  0.00     0.210 C 
ENDBRANCH   2  27
TORSDOF 5
ENDMDL
MODEL 10
REMARK VINA RESULT:      -7.7      1.986      2.552
REMARK  5 active torsions:
REMARK  status: ('A' for Active; 'I' for Inactive)
REMARK    1  A    between atoms: O_2  and  C_3 
REMARK    2  A    between atoms: C_3  and  C_4 
REMARK    3  A    between atoms: C_6  and  C_7 
REMARK       I    between atoms: C_7  and  N_8 
REMARK    4  A    between atoms: N_8  and  C_9 
REMARK    5  A    between atoms: C_10  and  O_11 
ROOT
HETATM    1  C   UNL     1      43.196 -14.298   4.849  1.00  0.00     0.071 A 
HETATM    2  C   UNL     1      42.903 -14.435   3.477  1.00  0.00     0.096 A 
HETATM    3  C   UNL     1      42.909 -15.682   2.833  1.00  0.00     0.054 A 
HETATM    4  C   UNL     1      43.269 -16.815   3.585  1.00  0.00     0.014 A 
HETATM    5  C   UNL     1      43.563 -16.647   4.934  1.00  0.00     0.089 A 
HETATM    6  O   UNL     1      43.892 -17.840   5.501  1.00  0.00    -0.309 OA
HETATM    7  C   UNL     1      43.821 -18.782   4.523  1.00  0.00     0.087 A 
HETATM    8  C   UNL     1      43.435 -18.205   3.317  1.00  0.00     0.011 A 
HETATM    9  C   UNL     1      44.098 -20.136   4.689  1.00  0.00     0.038 A 
HETATM   10  C   UNL     1      43.975 -20.944   3.555  1.00  0.00     0.003 A 
HETATM   11  C   UNL     1      43.587 -20.406   2.325  1.00  0.00     0.001 A 
HETATM   12  C   UNL     1      43.312 -19.038   2.188  1.00  0.00     0.015 A 
HETATM   13  C   UNL     1      43.530 -15.423   5.605  1.00  0.00     0.070 A 
ENDROOT
BRANCH   1  14
HETATM   14  N   UNL     1      43.162 -12.985   5.373  1.00  0.00    -0.320 N 
HETATM   15  C   UNL     1      42.081 -12.327   5.922  1.00  0.00     0.256 C 
HETATM   16  O   UNL     1      40.939 -12.758   6.023  1.00  0.00    -0.267 OA
HETATM   17  H   UNL     1      44.074 -12.547   5.427  1.00  0.00     0.169 HD
BRANCH  15  18
HETATM   18  C   UNL     1      42.391 -10.993   6.512  1.00  0.00     0.033 A 
HETATM   19  C   UNL     1      41.589  -9.909   6.128  1.00  0.00     0.026 A 
HETATM   20  C   UNL     1      41.803  -8.634   6.665  1.00  0.00    -0.034 A 
HETATM   21  C   UNL     1      42.842  -8.456   7.589  1.00  0.00     0.009 A 
HETATM   22  C   UNL     1      43.656  -9.529   7.961  1.00  0.00     0.002 A 
HETATM   23  C   UNL     1      43.434 -10.798   7.423  1.00  0.00     0.017 A 
BRANCH  20  24
HETATM   24  C   UNL     1      40.922  -7.479   6.263  1.00  0.00     0.205 C 
BRANCH  24  25
HETATM   25  O   UNL     1      41.572  -6.258   6.605  1.00  0.00    -0.391 OA
HETATM   26  C   UNL     1      41.805  -5.454   5.458  1.00  0.00     0.201 C 
ENDBRANCH  24  25
ENDBRANCH  20  24
ENDBRANCH  15  18
ENDBRANCH   1  14
BRANCH   2  27
HETATM   27  O   UNL     1      42.564 -13.298   2.775  1.00  0.00    -0.354 OA
HETATM   28  C   UNL     1      41.391 -13.517   1.989  1.00  0.00     0.210 C 
ENDBRANCH   2  27
TORSDOF 5
ENDMDL
