MODEL 1
REMARK VINA RESULT:      -7.5      0.000      0.000
REMARK  9 active torsions:
REMARK  status: ('A' for Active; 'I' for Inactive)
REMARK    1  A    between atoms: C_2  and  O_3 
REMARK    2  A    between atoms: O_3  and  C_4 
REMARK    3  A    between atoms: C_4  and  C_5 
REMARK    4  A    between atoms: C_7  and  C_8 
REMARK       I    between atoms: C_8  and  N_9 
REMARK    5  A    between atoms: N_9  and  N_10 
REMARK    6  A    between atoms: N_10  and  C_11 
REMARK    7  A    between atoms: C_11  and  N_12 
REMARK    8  A    between atoms: N_12  and  C_13 
REMARK    9  A    between atoms: C_13  and  C_14 
ROOT
HETATM    1  C   UNL     1      45.049 -11.404   6.316  1.00  0.00     0.293 C 
HETATM    2  N   UNL     1      44.109 -12.415   6.172  1.00  0.00    -0.262 N 
HETATM    3  O   UNL     1      45.793 -11.206   5.353  1.00  0.00    -0.264 OA
HETATM    4  H   UNL     1      44.093 -12.752   5.209  1.00  0.00     0.190 HD
ENDROOT
BRANCH   1   5
HETATM    5  C   UNL     1      45.180 -10.687   7.571  1.00  0.00     0.145 A 
HETATM    6  O   UNL     1      44.528 -11.227   8.655  1.00  0.00    -0.307 OA
HETATM    7  C   UNL     1      44.688 -10.388   9.714  1.00  0.00     0.078 A 
HETATM    8  C   UNL     1      45.463  -9.313   9.342  1.00  0.00     0.038 A 
HETATM    9  C   UNL     1      45.776  -9.504   7.971  1.00  0.00     0.045 A 
BRANCH   7  10
HETATM   10  C   UNL     1      44.020 -10.784  10.981  1.00  0.00     0.240 C 
BRANCH  10  11
HETATM   11  O   UNL     1      42.796 -10.050  11.041  1.00  0.00    -0.345 OA
BRANCH  11  12
HETATM   12  C   UNL     1      42.530  -9.379  12.201  1.00  0.00     0.069 A 
HETATM   13  C   UNL     1      41.547  -9.710  13.135  1.00  0.00     0.038 A 
HETATM   14  C   UNL     1      41.390  -8.940  14.294  1.00  0.00     0.022 A 
HETATM   15  C   UNL     1      42.217  -7.840  14.516  1.00  0.00     0.011 A 
HETATM   16  C   UNL     1      43.201  -7.502  13.592  1.00  0.00     0.022 A 
HETATM   17 BR   UNL     1      42.003  -6.805  16.083  1.00  0.00    -0.051 Br
HETATM   18  C   UNL     1      43.355  -8.275  12.437  1.00  0.00     0.038 A 
ENDBRANCH  11  12
ENDBRANCH  10  11
ENDBRANCH   7  10
ENDBRANCH   1   5
BRANCH   2  19
HETATM   19  N   UNL     1      42.828 -12.389   6.785  1.00  0.00    -0.274 N 
HETATM   20  H   UNL     1      42.667 -13.144   7.454  1.00  0.00     0.189 HD
BRANCH  19  21
HETATM   21  C   UNL     1      41.756 -12.006   6.015  1.00  0.00     0.186 C 
HETATM   22  S   UNL     1      41.663 -10.584   5.134  1.00  0.00    -0.040 SA
BRANCH  21  23
HETATM   23  N   UNL     1      40.684 -12.838   5.957  1.00  0.00    -0.364 N 
HETATM   24  H   UNL     1      39.833 -12.398   6.294  1.00  0.00     0.162 HD
BRANCH  23  25
HETATM   25  C   UNL     1      40.600 -14.269   5.678  1.00  0.00     0.154 C 
BRANCH  25  26
HETATM   26  C   UNL     1      41.434 -14.725   4.473  1.00  0.00     0.139 C 
HETATM   27  O   UNL     1      42.813 -14.882   4.888  1.00  0.00    -0.384 OA
HETATM   28  C   UNL     1      43.202 -16.241   4.640  1.00  0.00     0.168 C 
HETATM   29  C   UNL     1      42.291 -16.730   3.541  1.00  0.00     0.029 C 
HETATM   30  C   UNL     1      40.987 -16.074   3.920  1.00  0.00     0.035 C 
ENDBRANCH  25  26
ENDBRANCH  23  25
ENDBRANCH  21  23
ENDBRANCH  19  21
ENDBRANCH   2  19
TORSDOF 9
ENDMDL
MODEL 2
REMARK VINA RESULT:      -7.4      1.784      2.169
REMARK  9 active torsions:
REMARK  status: ('A' for Active; 'I' for Inactive)
REMARK    1  A    between atoms: C_2  and  O_3 
REMARK    2  A    between atoms: O_3  and  C_4 
REMARK    3  A    between atoms: C_4  and  C_5 
REMARK    4  A    between atoms: C_7  and  C_8 
REMARK       I    between atoms: C_8  and  N_9 
REMARK    5  A    between atoms: N_9  and  N_10 
REMARK    6  A    between atoms: N_10  and  C_11 
REMARK    7  A    between atoms: C_11  and  N_12 
REMARK    8  A    between atoms: N_12  and  C_13 
REMARK    9  A    between atoms: C_13  and  C_14 
ROOT
HETATM    1  C   UNL     1      44.974 -11.433   6.636  1.00  0.00     0.293 C 
HETATM    2  N   UNL     1      44.475 -12.716   6.454  1.00  0.00    -0.262 N 
HETATM    3  O   UNL     1      45.535 -10.920   5.665  1.00  0.00    -0.264 OA
HETATM    4  H   UNL     1      44.534 -12.985   5.471  1.00  0.00     0.190 HD
ENDROOT
BRANCH   1   5
HETATM    5  C   UNL     1      44.896 -10.784   7.931  1.00  0.00     0.145 A 
HETATM    6  O   UNL     1      43.633 -10.586   8.441  1.00  0.00    -0.307 OA
HETATM    7  C   UNL     1      43.745  -9.898   9.609  1.00  0.00     0.078 A 
HETATM    8  C   UNL     1      45.073  -9.666   9.886  1.00  0.00     0.038 A 
HETATM    9  C   UNL     1      45.808 -10.232   8.813  1.00  0.00     0.045 A 
BRANCH   7  10
HETATM   10  C   UNL     1      42.475  -9.552  10.299  1.00  0.00     0.240 C 
BRANCH  10  11
HETATM   11  O   UNL     1      42.565 -10.106  11.613  1.00  0.00    -0.345 OA
BRANCH  11  12
HETATM   12  C   UNL     1      42.500  -9.232  12.661  1.00  0.00     0.069 A 
HETATM   13  C   UNL     1      43.331  -8.129  12.864  1.00  0.00     0.038 A 
HETATM   14  C   UNL     1      43.145  -7.305  13.981  1.00  0.00     0.022 A 
HETATM   15  C   UNL     1      42.128  -7.585  14.892  1.00  0.00     0.011 A 
HETATM   16  C   UNL     1      41.294  -8.682  14.698  1.00  0.00     0.022 A 
HETATM   17 BR   UNL     1      41.880  -6.469  16.396  1.00  0.00    -0.051 Br
HETATM   18  C   UNL     1      41.482  -9.501  13.581  1.00  0.00     0.038 A 
ENDBRANCH  11  12
ENDBRANCH  10  11
ENDBRANCH   7  10
ENDBRANCH   1   5
BRANCH   2  19
HETATM   19  N   UNL     1      43.314 -13.206   7.108  1.00  0.00    -0.274 N 
HETATM   20  H   UNL     1      43.191 -12.859   8.061  1.00  0.00     0.189 HD
BRANCH  19  21
HETATM   21  C   UNL     1      42.947 -14.509   6.871  1.00  0.00     0.186 C 
HETATM   22  S   UNL     1      43.021 -15.748   7.996  1.00  0.00    -0.040 SA
BRANCH  21  23
HETATM   23  N   UNL     1      42.487 -14.828   5.634  1.00  0.00    -0.364 N 
HETATM   24  H   UNL     1      42.209 -14.009   5.101  1.00  0.00     0.162 HD
BRANCH  23  25
HETATM   25  C   UNL     1      42.162 -16.121   5.040  1.00  0.00     0.154 C 
BRANCH  25  26
HETATM   26  C   UNL     1      43.112 -16.555   3.915  1.00  0.00     0.139 C 
HETATM   27  O   UNL     1      44.041 -17.536   4.438  1.00  0.00    -0.384 OA
HETATM   28  C   UNL     1      43.895 -18.742   3.673  1.00  0.00     0.168 C 
HETATM   29  C   UNL     1      43.340 -18.311   2.337  1.00  0.00     0.029 C 
HETATM   30  C   UNL     1      42.387 -17.218   2.749  1.00  0.00     0.035 C 
ENDBRANCH  25  26
ENDBRANCH  23  25
ENDBRANCH  21  23
ENDBRANCH  19  21
ENDBRANCH   2  19
TORSDOF 9
ENDMDL
MODEL 3
REMARK VINA RESULT:      -7.4      4.745      9.162
REMARK  9 active torsions:
REMARK  status: ('A' for Active; 'I' for Inactive)
REMARK    1  A    between atoms: C_2  and  O_3 
REMARK    2  A    between atoms: O_3  and  C_4 
REMARK    3  A    between atoms: C_4  and  C_5 
REMARK    4  A    between atoms: C_7  and  C_8 
REMARK       I    between atoms: C_8  and  N_9 
REMARK    5  A    between atoms: N_9  and  N_10 
REMARK    6  A    between atoms: N_10  and  C_11 
REMARK    7  A    between atoms: C_11  and  N_12 
REMARK    8  A    between atoms: N_12  and  C_13 
REMARK    9  A    between atoms: C_13  and  C_14 
ROOT
HETATM    1  C   UNL     1      39.462 -11.209   6.798  1.00  0.00     0.293 C 
HETATM    2  N   UNL     1      40.357 -10.367   7.445  1.00  0.00    -0.262 N 
HETATM    3  O   UNL     1      38.271 -11.062   7.079  1.00  0.00    -0.264 OA
HETATM    4  H   UNL     1      39.856  -9.645   7.964  1.00  0.00     0.190 HD
ENDROOT
BRANCH   1   5
HETATM    5  C   UNL     1      39.937 -12.248   5.904  1.00  0.00     0.145 A 
HETATM    6  O   UNL     1      40.982 -13.018   6.360  1.00  0.00    -0.307 OA
HETATM    7  C   UNL     1      41.348 -13.875   5.370  1.00  0.00     0.078 A 
HETATM    8  C   UNL     1      40.533 -13.695   4.275  1.00  0.00     0.038 A 
HETATM    9  C   UNL     1      39.632 -12.655   4.617  1.00  0.00     0.045 A 
BRANCH   7  10
HETATM   10  C   UNL     1      42.495 -14.773   5.660  1.00  0.00     0.240 C 
BRANCH  10  11
HETATM   11  O   UNL     1      43.245 -14.877   4.449  1.00  0.00    -0.345 OA
BRANCH  11  12
HETATM   12  C   UNL     1      43.288 -16.103   3.848  1.00  0.00     0.069 A 
HETATM   13  C   UNL     1      42.815 -16.409   2.571  1.00  0.00     0.038 A 
HETATM   14  C   UNL     1      42.934 -17.711   2.070  1.00  0.00     0.022 A 
HETATM   15  C   UNL     1      43.528 -18.705   2.848  1.00  0.00     0.011 A 
HETATM   16  C   UNL     1      44.003 -18.410   4.122  1.00  0.00     0.022 A 
HETATM   17 BR   UNL     1      43.688 -20.460   2.167  1.00  0.00    -0.051 Br
HETATM   18  C   UNL     1      43.883 -17.108   4.617  1.00  0.00     0.038 A 
ENDBRANCH  11  12
ENDBRANCH  10  11
ENDBRANCH   7  10
ENDBRANCH   1   5
BRANCH   2  19
HETATM   19  N   UNL     1      41.565  -9.907   6.858  1.00  0.00    -0.274 N 
HETATM   20  H   UNL     1      42.252 -10.642   6.679  1.00  0.00     0.189 HD
BRANCH  19  21
HETATM   21  C   UNL     1      42.055  -8.690   7.268  1.00  0.00     0.186 C 
HETATM   22  S   UNL     1      41.386  -7.204   6.881  1.00  0.00    -0.040 SA
BRANCH  21  23
HETATM   23  N   UNL     1      43.168  -8.681   8.047  1.00  0.00    -0.364 N 
HETATM   24  H   UNL     1      43.874  -8.034   7.708  1.00  0.00     0.162 HD
BRANCH  23  25
HETATM   25  C   UNL     1      43.573  -9.558   9.142  1.00  0.00     0.154 C 
BRANCH  25  26
HETATM   26  C   UNL     1      44.637 -10.595   8.757  1.00  0.00     0.139 C 
HETATM   27  O   UNL     1      43.993 -11.695   8.068  1.00  0.00    -0.384 OA
HETATM   28  C   UNL     1      44.577 -11.808   6.762  1.00  0.00     0.168 C 
HETATM   29  C   UNL     1      45.954 -11.200   6.879  1.00  0.00     0.029 C 
HETATM   30  C   UNL     1      45.689 -10.038   7.803  1.00  0.00     0.035 C 
ENDBRANCH  25  26
ENDBRANCH  23  25
ENDBRANCH  21  23
ENDBRANCH  19  21
ENDBRANCH   2  19
TORSDOF 9
ENDMDL
MODEL 4
REMARK VINA RESULT:      -7.2      6.554      8.789
REMARK  9 active torsions:
REMARK  status: ('A' for Active; 'I' for Inactive)
REMARK    1  A    between atoms: C_2  and  O_3 
REMARK    2  A    between atoms: O_3  and  C_4 
REMARK    3  A    between atoms: C_4  and  C_5 
REMARK    4  A    between atoms: C_7  and  C_8 
REMARK       I    between atoms: C_8  and  N_9 
REMARK    5  A    between atoms: N_9  and  N_10 
REMARK    6  A    between atoms: N_10  and  C_11 
REMARK    7  A    between atoms: C_11  and  N_12 
REMARK    8  A    between atoms: N_12  and  C_13 
REMARK    9  A    between atoms: C_13  and  C_14 
ROOT
HETATM    1  C   UNL     1      40.116 -12.821   6.139  1.00  0.00     0.293 C 
HETATM    2  N   UNL     1      40.946 -11.708   6.102  1.00  0.00    -0.262 N 
HETATM    3  O   UNL     1      38.908 -12.609   6.020  1.00  0.00    -0.264 OA
HETATM    4  H   UNL     1      40.415 -10.878   5.836  1.00  0.00     0.190 HD
ENDROOT
BRANCH   1   5
HETATM    5  C   UNL     1      40.662 -14.143   6.384  1.00  0.00     0.145 A 
HETATM    6  O   UNL     1      42.033 -14.257   6.340  1.00  0.00    -0.307 OA
HETATM    7  C   UNL     1      42.360 -15.567   6.506  1.00  0.00     0.078 A 
HETATM    8  C   UNL     1      41.216 -16.312   6.686  1.00  0.00     0.038 A 
HETATM    9  C   UNL     1      40.131 -15.402   6.607  1.00  0.00     0.045 A 
BRANCH   7  10
HETATM   10  C   UNL     1      43.806 -15.902   6.452  1.00  0.00     0.240 C 
BRANCH  10  11
HETATM   11  O   UNL     1      43.908 -17.304   6.704  1.00  0.00    -0.345 OA
BRANCH  11  12
HETATM   12  C   UNL     1      43.889 -18.134   5.618  1.00  0.00     0.069 A 
HETATM   13  C   UNL     1      43.884 -19.529   5.650  1.00  0.00     0.038 A 
HETATM   14  C   UNL     1      43.851 -20.259   4.456  1.00  0.00     0.022 A 
HETATM   15  C   UNL     1      43.824 -19.592   3.232  1.00  0.00     0.011 A 
HETATM   16  C   UNL     1      43.830 -18.202   3.190  1.00  0.00     0.022 A 
HETATM   17 BR   UNL     1      43.778 -20.582   1.624  1.00  0.00    -0.051 Br
HETATM   18  C   UNL     1      43.860 -17.476   4.384  1.00  0.00     0.038 A 
ENDBRANCH  11  12
ENDBRANCH  10  11
ENDBRANCH   7  10
ENDBRANCH   1   5
BRANCH   2  19
HETATM   19  N   UNL     1      42.265 -11.730   5.578  1.00  0.00    -0.274 N 
HETATM   20  H   UNL     1      42.952 -11.235   6.150  1.00  0.00     0.189 HD
BRANCH  19  21
HETATM   21  C   UNL     1      42.416 -11.641   4.215  1.00  0.00     0.186 C 
HETATM   22  S   UNL     1      41.743 -10.449   3.248  1.00  0.00    -0.040 SA
BRANCH  21  23
HETATM   23  N   UNL     1      43.166 -12.587   3.594  1.00  0.00    -0.364 N 
HETATM   24  H   UNL     1      44.049 -12.219   3.252  1.00  0.00     0.162 HD
BRANCH  23  25
HETATM   25  C   UNL     1      42.837 -13.950   3.186  1.00  0.00     0.154 C 
BRANCH  25  26
HETATM   26  C   UNL     1      41.366 -14.153   2.799  1.00  0.00     0.139 C 
HETATM   27  O   UNL     1      41.183 -13.750   1.419  1.00  0.00    -0.384 OA
HETATM   28  C   UNL     1      40.687 -14.879   0.685  1.00  0.00     0.168 C 
HETATM   29  C   UNL     1      40.004 -15.757   1.705  1.00  0.00     0.029 C 
HETATM   30  C   UNL     1      40.924 -15.610   2.890  1.00  0.00     0.035 C 
ENDBRANCH  25  26
ENDBRANCH  23  25
ENDBRANCH  21  23
ENDBRANCH  19  21
ENDBRANCH   2  19
TORSDOF 9
ENDMDL
MODEL 5
REMARK VINA RESULT:      -7.2      6.217      9.028
REMARK  9 active torsions:
REMARK  status: ('A' for Active; 'I' for Inactive)
REMARK    1  A    between atoms: C_2  and  O_3 
REMARK    2  A    between atoms: O_3  and  C_4 
REMARK    3  A    between atoms: C_4  and  C_5 
REMARK    4  A    between atoms: C_7  and  C_8 
REMARK       I    between atoms: C_8  and  N_9 
REMARK    5  A    between atoms: N_9  and  N_10 
REMARK    6  A    between atoms: N_10  and  C_11 
REMARK    7  A    between atoms: C_11  and  N_12 
REMARK    8  A    between atoms: N_12  and  C_13 
REMARK    9  A    between atoms: C_13  and  C_14 
ROOT
HETATM    1  C   UNL     1      40.037 -12.782   5.699  1.00  0.00     0.293 C 
HETATM    2  N   UNL     1      39.486 -13.179   4.488  1.00  0.00    -0.262 N 
HETATM    3  O   UNL     1      39.262 -12.279   6.515  1.00  0.00    -0.264 OA
HETATM    4  H   UNL     1      38.468 -13.114   4.521  1.00  0.00     0.190 HD
ENDROOT
BRANCH   1   5
HETATM    5  C   UNL     1      41.464 -12.893   5.935  1.00  0.00     0.145 A 
HETATM    6  O   UNL     1      41.978 -14.168   5.989  1.00  0.00    -0.307 OA
HETATM    7  C   UNL     1      43.300 -14.085   6.299  1.00  0.00     0.078 A 
HETATM    8  C   UNL     1      43.666 -12.764   6.423  1.00  0.00     0.038 A 
HETATM    9  C   UNL     1      42.492 -12.002   6.191  1.00  0.00     0.045 A 
BRANCH   7  10
HETATM   10  C   UNL     1      44.031 -15.371   6.440  1.00  0.00     0.240 C 
BRANCH  10  11
HETATM   11  O   UNL     1      43.055 -16.407   6.317  1.00  0.00    -0.345 OA
BRANCH  11  12
HETATM   12  C   UNL     1      43.284 -17.366   5.370  1.00  0.00     0.069 A 
HETATM   13  C   UNL     1      43.836 -18.628   5.595  1.00  0.00     0.038 A 
HETATM   14  C   UNL     1      44.003 -19.522   4.530  1.00  0.00     0.022 A 
HETATM   15  C   UNL     1      43.617 -19.152   3.243  1.00  0.00     0.011 A 
HETATM   16  C   UNL     1      43.066 -17.896   3.009  1.00  0.00     0.022 A 
HETATM   17 BR   UNL     1      43.844 -20.362   1.810  1.00  0.00    -0.051 Br
HETATM   18  C   UNL     1      42.899 -17.008   4.075  1.00  0.00     0.038 A 
ENDBRANCH  11  12
ENDBRANCH  10  11
ENDBRANCH   7  10
ENDBRANCH   1   5
BRANCH   2  19
HETATM   19  N   UNL     1      39.959 -14.288   3.737  1.00  0.00    -0.274 N 
HETATM   20  H   UNL     1      40.461 -14.986   4.289  1.00  0.00     0.189 HD
BRANCH  19  21
HETATM   21  C   UNL     1      40.428 -14.050   2.467  1.00  0.00     0.186 C 
HETATM   22  S   UNL     1      42.046 -13.985   2.037  1.00  0.00    -0.040 SA
BRANCH  21  23
HETATM   23  N   UNL     1      39.519 -13.850   1.479  1.00  0.00    -0.364 N 
HETATM   24  H   UNL     1      38.835 -14.598   1.424  1.00  0.00     0.162 HD
BRANCH  23  25
HETATM   25  C   UNL     1      39.482 -12.866   0.400  1.00  0.00     0.154 C 
BRANCH  25  26
HETATM   26  C   UNL     1      40.103 -13.353  -0.916  1.00  0.00     0.139 C 
HETATM   27  O   UNL     1      39.040 -13.698  -1.838  1.00  0.00    -0.384 OA
HETATM   28  C   UNL     1      39.186 -12.886  -3.013  1.00  0.00     0.168 C 
HETATM   29  C   UNL     1      40.646 -12.505  -3.064  1.00  0.00     0.029 C 
HETATM   30  C   UNL     1      40.948 -12.284  -1.604  1.00  0.00     0.035 C 
ENDBRANCH  25  26
ENDBRANCH  23  25
ENDBRANCH  21  23
ENDBRANCH  19  21
ENDBRANCH   2  19
TORSDOF 9
ENDMDL
MODEL 6
REMARK VINA RESULT:      -7.1      4.793      9.136
REMARK  9 active torsions:
REMARK  status: ('A' for Active; 'I' for Inactive)
REMARK    1  A    between atoms: C_2  and  O_3 
REMARK    2  A    between atoms: O_3  and  C_4 
REMARK    3  A    between atoms: C_4  and  C_5 
REMARK    4  A    between atoms: C_7  and  C_8 
REMARK       I    between atoms: C_8  and  N_9 
REMARK    5  A    between atoms: N_9  and  N_10 
REMARK    6  A    between atoms: N_10  and  C_11 
REMARK    7  A    between atoms: C_11  and  N_12 
REMARK    8  A    between atoms: N_12  and  C_13 
REMARK    9  A    between atoms: C_13  and  C_14 
ROOT
HETATM    1  C   UNL     1      44.781 -10.751   8.490  1.00  0.00     0.293 C 
HETATM    2  N   UNL     1      44.274 -10.187   9.654  1.00  0.00    -0.262 N 
HETATM    3  O   UNL     1      45.977 -10.558   8.263  1.00  0.00    -0.264 OA
HETATM    4  H   UNL     1      45.031  -9.805  10.222  1.00  0.00     0.190 HD
ENDROOT
BRANCH   1   5
HETATM    5  C   UNL     1      43.910 -11.460   7.571  1.00  0.00     0.145 A 
HETATM    6  O   UNL     1      44.109 -12.817   7.462  1.00  0.00    -0.307 OA
HETATM    7  C   UNL     1      43.272 -13.298   6.505  1.00  0.00     0.078 A 
HETATM    8  C   UNL     1      42.503 -12.273   6.001  1.00  0.00     0.038 A 
HETATM    9  C   UNL     1      42.913 -11.098   6.682  1.00  0.00     0.045 A 
BRANCH   7  10
HETATM   10  C   UNL     1      43.363 -14.752   6.213  1.00  0.00     0.240 C 
BRANCH  10  11
HETATM   11  O   UNL     1      43.128 -14.900   4.812  1.00  0.00    -0.345 OA
BRANCH  11  12
HETATM   12  C   UNL     1      43.316 -16.144   4.279  1.00  0.00     0.069 A 
HETATM   13  C   UNL     1      44.008 -17.199   4.876  1.00  0.00     0.038 A 
HETATM   14  C   UNL     1      44.113 -18.432   4.220  1.00  0.00     0.022 A 
HETATM   15  C   UNL     1      43.525 -18.607   2.969  1.00  0.00     0.011 A 
HETATM   16  C   UNL     1      42.833 -17.562   2.365  1.00  0.00     0.022 A 
HETATM   17 BR   UNL     1      43.669 -20.273   2.089  1.00  0.00    -0.051 Br
HETATM   18  C   UNL     1      42.729 -16.334   3.024  1.00  0.00     0.038 A 
ENDBRANCH  11  12
ENDBRANCH  10  11
ENDBRANCH   7  10
ENDBRANCH   1   5
BRANCH   2  19
HETATM   19  N   UNL     1      43.229 -10.770  10.417  1.00  0.00    -0.274 N 
HETATM   20  H   UNL     1      42.683 -11.472   9.915  1.00  0.00     0.189 HD
BRANCH  19  21
HETATM   21  C   UNL     1      42.541  -9.958  11.288  1.00  0.00     0.186 C 
HETATM   22  S   UNL     1      43.213  -8.694  12.159  1.00  0.00    -0.040 SA
BRANCH  21  23
HETATM   23  N   UNL     1      41.215 -10.191  11.463  1.00  0.00    -0.364 N 
HETATM   24  H   UNL     1      40.961 -11.155  11.269  1.00  0.00     0.162 HD
BRANCH  23  25
HETATM   25  C   UNL     1      40.106  -9.269  11.691  1.00  0.00     0.154 C 
BRANCH  25  26
HETATM   26  C   UNL     1      39.461  -8.731  10.406  1.00  0.00     0.139 C 
HETATM   27  O   UNL     1      40.358  -7.770   9.797  1.00  0.00    -0.384 OA
HETATM   28  C   UNL     1      40.678  -8.231   8.476  1.00  0.00     0.168 C 
HETATM   29  C   UNL     1      39.529  -9.120   8.067  1.00  0.00     0.029 C 
HETATM   30  C   UNL     1      39.216  -9.819   9.365  1.00  0.00     0.035 C 
ENDBRANCH  25  26
ENDBRANCH  23  25
ENDBRANCH  21  23
ENDBRANCH  19  21
ENDBRANCH   2  19
TORSDOF 9
ENDMDL
MODEL 7
REMARK VINA RESULT:      -7.0      4.556     10.009
REMARK  9 active torsions:
REMARK  status: ('A' for Active; 'I' for Inactive)
REMARK    1  A    between atoms: C_2  and  O_3 
REMARK    2  A    between atoms: O_3  and  C_4 
REMARK    3  A    between atoms: C_4  and  C_5 
REMARK    4  A    between atoms: C_7  and  C_8 
REMARK       I    between atoms: C_8  and  N_9 
REMARK    5  A    between atoms: N_9  and  N_10 
REMARK    6  A    between atoms: N_10  and  C_11 
REMARK    7  A    between atoms: C_11  and  N_12 
REMARK    8  A    between atoms: N_12  and  C_13 
REMARK    9  A    between atoms: C_13  and  C_14 
ROOT
HETATM    1  C   UNL     1      39.381 -10.969   6.612  1.00  0.00     0.293 C 
HETATM    2  N   UNL     1      40.180 -10.439   7.617  1.00  0.00    -0.262 N 
HETATM    3  O   UNL     1      38.244 -10.502   6.512  1.00  0.00    -0.264 OA
HETATM    4  H   UNL     1      39.730  -9.625   8.037  1.00  0.00     0.190 HD
ENDROOT
BRANCH   1   5
HETATM    5  C   UNL     1      39.856 -12.066   5.790  1.00  0.00     0.145 A 
HETATM    6  O   UNL     1      40.826 -12.870   6.343  1.00  0.00    -0.307 OA
HETATM    7  C   UNL     1      41.208 -13.784   5.410  1.00  0.00     0.078 A 
HETATM    8  C   UNL     1      40.478 -13.605   4.257  1.00  0.00     0.038 A 
HETATM    9  C   UNL     1      39.614 -12.506   4.500  1.00  0.00     0.045 A 
BRANCH   7  10
HETATM   10  C   UNL     1      42.284 -14.728   5.809  1.00  0.00     0.240 C 
BRANCH  10  11
HETATM   11  O   UNL     1      43.148 -14.858   4.680  1.00  0.00    -0.345 OA
BRANCH  11  12
HETATM   12  C   UNL     1      43.317 -16.115   4.169  1.00  0.00     0.069 A 
HETATM   13  C   UNL     1      44.046 -17.149   4.756  1.00  0.00     0.038 A 
HETATM   14  C   UNL     1      44.127 -18.398   4.126  1.00  0.00     0.022 A 
HETATM   15  C   UNL     1      43.479 -18.608   2.910  1.00  0.00     0.011 A 
HETATM   16  C   UNL     1      42.749 -17.582   2.317  1.00  0.00     0.022 A 
HETATM   17 BR   UNL     1      43.589 -20.294   2.066  1.00  0.00    -0.051 Br
HETATM   18  C   UNL     1      42.670 -16.339   2.950  1.00  0.00     0.038 A 
ENDBRANCH  11  12
ENDBRANCH  10  11
ENDBRANCH   7  10
ENDBRANCH   1   5
BRANCH   2  19
HETATM   19  N   UNL     1      41.590 -10.317   7.515  1.00  0.00    -0.274 N 
HETATM   20  H   UNL     1      42.038 -11.058   6.972  1.00  0.00     0.189 HD
BRANCH  19  21
HETATM   21  C   UNL     1      42.276  -9.855   8.613  1.00  0.00     0.186 C 
HETATM   22  S   UNL     1      43.942  -9.868   8.782  1.00  0.00    -0.040 SA
BRANCH  21  23
HETATM   23  N   UNL     1      41.555  -9.349   9.647  1.00  0.00    -0.364 N 
HETATM   24  H   UNL     1      41.027  -8.522   9.383  1.00  0.00     0.162 HD
BRANCH  23  25
HETATM   25  C   UNL     1      41.569  -9.675  11.071  1.00  0.00     0.154 C 
BRANCH  25  26
HETATM   26  C   UNL     1      41.702  -8.457  11.994  1.00  0.00     0.139 C 
HETATM   27  O   UNL     1      41.158  -8.791  13.294  1.00  0.00    -0.384 OA
HETATM   28  C   UNL     1      42.197  -8.625  14.271  1.00  0.00     0.168 C 
HETATM   29  C   UNL     1      43.161  -7.630  13.672  1.00  0.00     0.029 C 
HETATM   30  C   UNL     1      43.153  -8.042  12.222  1.00  0.00     0.035 C 
ENDBRANCH  25  26
ENDBRANCH  23  25
ENDBRANCH  21  23
ENDBRANCH  19  21
ENDBRANCH   2  19
TORSDOF 9
ENDMDL
MODEL 8
REMARK VINA RESULT:      -6.9      2.867      4.563
REMARK  9 active torsions:
REMARK  status: ('A' for Active; 'I' for Inactive)
REMARK    1  A    between atoms: C_2  and  O_3 
REMARK    2  A    between atoms: O_3  and  C_4 
REMARK    3  A    between atoms: C_4  and  C_5 
REMARK    4  A    between atoms: C_7  and  C_8 
REMARK       I    between atoms: C_8  and  N_9 
REMARK    5  A    between atoms: N_9  and  N_10 
REMARK    6  A    between atoms: N_10  and  C_11 
REMARK    7  A    between atoms: C_11  and  N_12 
REMARK    8  A    between atoms: N_12  and  C_13 
REMARK    9  A    between atoms: C_13  and  C_14 
ROOT
HETATM    1  C   UNL     1      40.494 -12.783   5.336  1.00  0.00     0.293 C 
HETATM    2  N   UNL     1      40.023 -13.604   4.320  1.00  0.00    -0.262 N 
HETATM    3  O   UNL     1      39.817 -11.785   5.593  1.00  0.00    -0.264 OA
HETATM    4  H   UNL     1      39.089 -13.313   4.031  1.00  0.00     0.190 HD
ENDROOT
BRANCH   1   5
HETATM    5  C   UNL     1      41.757 -13.066   5.992  1.00  0.00     0.145 A 
HETATM    6  O   UNL     1      42.639 -12.015   6.100  1.00  0.00    -0.307 OA
HETATM    7  C   UNL     1      43.790 -12.478   6.658  1.00  0.00     0.078 A 
HETATM    8  C   UNL     1      43.662 -13.818   6.944  1.00  0.00     0.038 A 
HETATM    9  C   UNL     1      42.362 -14.194   6.518  1.00  0.00     0.045 A 
BRANCH   7  10
HETATM   10  C   UNL     1      44.889 -11.492   6.825  1.00  0.00     0.240 C 
BRANCH  10  11
HETATM   11  O   UNL     1      45.134 -11.392   8.228  1.00  0.00    -0.345 OA
BRANCH  11  12
HETATM   12  C   UNL     1      44.512 -10.375   8.897  1.00  0.00     0.069 A 
HETATM   13  C   UNL     1      43.883 -10.473  10.139  1.00  0.00     0.038 A 
HETATM   14  C   UNL     1      43.293  -9.343  10.719  1.00  0.00     0.022 A 
HETATM   15  C   UNL     1      43.334  -8.118  10.055  1.00  0.00     0.011 A 
HETATM   16  C   UNL     1      43.959  -8.011   8.817  1.00  0.00     0.022 A 
HETATM   17 BR   UNL     1      42.538  -6.596  10.843  1.00  0.00    -0.051 Br
HETATM   18  C   UNL     1      44.548  -9.140   8.243  1.00  0.00     0.038 A 
ENDBRANCH  11  12
ENDBRANCH  10  11
ENDBRANCH   7  10
ENDBRANCH   1   5
BRANCH   2  19
HETATM   19  N   UNL     1      40.211 -15.011   4.298  1.00  0.00    -0.274 N 
HETATM   20  H   UNL     1      40.431 -15.420   5.208  1.00  0.00     0.189 HD
BRANCH  19  21
HETATM   21  C   UNL     1      40.841 -15.557   3.205  1.00  0.00     0.186 C 
HETATM   22  S   UNL     1      40.139 -15.779   1.701  1.00  0.00    -0.040 SA
BRANCH  21  23
HETATM   23  N   UNL     1      42.133 -15.951   3.346  1.00  0.00    -0.364 N 
HETATM   24  H   UNL     1      42.758 -15.466   2.708  1.00  0.00     0.162 HD
BRANCH  23  25
HETATM   25  C   UNL     1      42.718 -17.054   4.103  1.00  0.00     0.154 C 
BRANCH  25  26
HETATM   26  C   UNL     1      43.659 -17.949   3.286  1.00  0.00     0.139 C 
HETATM   27  O   UNL     1      44.263 -18.925   4.169  1.00  0.00    -0.384 OA
HETATM   28  C   UNL     1      43.922 -20.235   3.689  1.00  0.00     0.168 C 
HETATM   29  C   UNL     1      43.641 -20.066   2.216  1.00  0.00     0.029 C 
HETATM   30  C   UNL     1      42.934 -18.734   2.198  1.00  0.00     0.035 C 
ENDBRANCH  25  26
ENDBRANCH  23  25
ENDBRANCH  21  23
ENDBRANCH  19  21
ENDBRANCH   2  19
TORSDOF 9
ENDMDL
MODEL 9
REMARK VINA RESULT:      -6.9      4.132      9.575
REMARK  9 active torsions:
REMARK  status: ('A' for Active; 'I' for Inactive)
REMARK    1  A    between atoms: C_2  and  O_3 
REMARK    2  A    between atoms: O_3  and  C_4 
REMARK    3  A    between atoms: C_4  and  C_5 
REMARK    4  A    between atoms: C_7  and  C_8 
REMARK       I    between atoms: C_8  and  N_9 
REMARK    5  A    between atoms: N_9  and  N_10 
REMARK    6  A    between atoms: N_10  and  C_11 
REMARK    7  A    between atoms: C_11  and  N_12 
REMARK    8  A    between atoms: N_12  and  C_13 
REMARK    9  A    between atoms: C_13  and  C_14 
ROOT
HETATM    1  C   UNL     1      39.809 -11.865   6.022  1.00  0.00     0.293 C 
HETATM    2  N   UNL     1      40.774 -11.302   6.847  1.00  0.00    -0.262 N 
HETATM    3  O   UNL     1      38.645 -11.810   6.423  1.00  0.00    -0.264 OA
HETATM    4  H   UNL     1      40.333 -10.794   7.615  1.00  0.00     0.190 HD
ENDROOT
BRANCH   1   5
HETATM    5  C   UNL     1      40.188 -12.544   4.797  1.00  0.00     0.145 A 
HETATM    6  O   UNL     1      41.493 -12.973   4.713  1.00  0.00    -0.307 OA
HETATM    7  C   UNL     1      41.690 -13.505   3.477  1.00  0.00     0.078 A 
HETATM    8  C   UNL     1      40.518 -13.456   2.757  1.00  0.00     0.038 A 
HETATM    9  C   UNL     1      39.558 -12.840   3.601  1.00  0.00     0.045 A 
BRANCH   7  10
HETATM   10  C   UNL     1      43.060 -13.996   3.177  1.00  0.00     0.240 C 
BRANCH  10  11
HETATM   11  O   UNL     1      42.905 -15.226   2.469  1.00  0.00    -0.345 OA
BRANCH  11  12
HETATM   12  C   UNL     1      43.243 -16.372   3.133  1.00  0.00     0.069 A 
HETATM   13  C   UNL     1      43.539 -16.477   4.492  1.00  0.00     0.038 A 
HETATM   14  C   UNL     1      43.859 -17.722   5.048  1.00  0.00     0.022 A 
HETATM   15  C   UNL     1      43.882 -18.859   4.242  1.00  0.00     0.011 A 
HETATM   16  C   UNL     1      43.588 -18.764   2.885  1.00  0.00     0.022 A 
HETATM   17 BR   UNL     1      44.312 -20.537   4.997  1.00  0.00    -0.051 Br
HETATM   18  C   UNL     1      43.267 -17.520   2.335  1.00  0.00     0.038 A 
ENDBRANCH  11  12
ENDBRANCH  10  11
ENDBRANCH   7  10
ENDBRANCH   1   5
BRANCH   2  19
HETATM   19  N   UNL     1      41.956 -10.683   6.364  1.00  0.00    -0.274 N 
HETATM   20  H   UNL     1      42.053 -10.700   5.346  1.00  0.00     0.189 HD
BRANCH  19  21
HETATM   21  C   UNL     1      43.108 -10.838   7.097  1.00  0.00     0.186 C 
HETATM   22  S   UNL     1      44.506 -11.581   6.548  1.00  0.00    -0.040 SA
BRANCH  21  23
HETATM   23  N   UNL     1      43.125 -10.355   8.366  1.00  0.00    -0.364 N 
HETATM   24  H   UNL     1      42.388 -10.752   8.942  1.00  0.00     0.162 HD
BRANCH  23  25
HETATM   25  C   UNL     1      43.883  -9.257   8.960  1.00  0.00     0.154 C 
BRANCH  25  26
HETATM   26  C   UNL     1      43.791  -9.184  10.490  1.00  0.00     0.139 C 
HETATM   27  O   UNL     1      42.493  -8.659  10.859  1.00  0.00    -0.384 OA
HETATM   28  C   UNL     1      41.831  -9.635  11.678  1.00  0.00     0.168 C 
HETATM   29  C   UNL     1      42.934 -10.458  12.298  1.00  0.00     0.029 C 
HETATM   30  C   UNL     1      43.915 -10.550  11.157  1.00  0.00     0.035 C 
ENDBRANCH  25  26
ENDBRANCH  23  25
ENDBRANCH  21  23
ENDBRANCH  19  21
ENDBRANCH   2  19
TORSDOF 9
ENDMDL
MODEL 10
REMARK VINA RESULT:      -6.9      4.086      9.240
REMARK  9 active torsions:
REMARK  status: ('A' for Active; 'I' for Inactive)
REMARK    1  A    between atoms: C_2  and  O_3 
REMARK    2  A    between atoms: O_3  and  C_4 
REMARK    3  A    between atoms: C_4  and  C_5 
REMARK    4  A    between atoms: C_7  and  C_8 
REMARK       I    between atoms: C_8  and  N_9 
REMARK    5  A    between atoms: N_9  and  N_10 
REMARK    6  A    between atoms: N_10  and  C_11 
REMARK    7  A    between atoms: C_11  and  N_12 
REMARK    8  A    between atoms: N_12  and  C_13 
REMARK    9  A    between atoms: C_13  and  C_14 
ROOT
HETATM    1  C   UNL     1      39.401 -10.980   6.442  1.00  0.00     0.293 C 
HETATM    2  N   UNL     1      40.643 -10.896   7.057  1.00  0.00    -0.262 N 
HETATM    3  O   UNL     1      38.417 -10.901   7.181  1.00  0.00    -0.264 OA
HETATM    4  H   UNL     1      40.538 -10.637   8.038  1.00  0.00     0.190 HD
ENDROOT
BRANCH   1   5
HETATM    5  C   UNL     1      39.295 -11.225   5.016  1.00  0.00     0.145 A 
HETATM    6  O   UNL     1      39.974 -12.319   4.531  1.00  0.00    -0.307 OA
HETATM    7  C   UNL     1      39.833 -12.346   3.178  1.00  0.00     0.078 A 
HETATM    8  C   UNL     1      39.045 -11.293   2.772  1.00  0.00     0.038 A 
HETATM    9  C   UNL     1      38.702 -10.576   3.947  1.00  0.00     0.045 A 
BRANCH   7  10
HETATM   10  C   UNL     1      40.531 -13.444   2.460  1.00  0.00     0.240 C 
BRANCH  10  11
HETATM   11  O   UNL     1      40.092 -14.663   3.059  1.00  0.00    -0.345 OA
BRANCH  11  12
HETATM   12  C   UNL     1      41.057 -15.558   3.427  1.00  0.00     0.069 A 
HETATM   13  C   UNL     1      41.465 -15.836   4.733  1.00  0.00     0.038 A 
HETATM   14  C   UNL     1      42.462 -16.790   4.969  1.00  0.00     0.022 A 
HETATM   15  C   UNL     1      43.049 -17.465   3.900  1.00  0.00     0.011 A 
HETATM   16  C   UNL     1      42.649 -17.195   2.595  1.00  0.00     0.022 A 
HETATM   17 BR   UNL     1      44.392 -18.753   4.225  1.00  0.00    -0.051 Br
HETATM   18  C   UNL     1      41.652 -16.243   2.363  1.00  0.00     0.038 A 
ENDBRANCH  11  12
ENDBRANCH  10  11
ENDBRANCH   7  10
ENDBRANCH   1   5
BRANCH   2  19
HETATM   19  N   UNL     1      41.787 -10.327   6.439  1.00  0.00    -0.274 N 
HETATM   20  H   UNL     1      41.576  -9.700   5.660  1.00  0.00     0.189 HD
BRANCH  19  21
HETATM   21  C   UNL     1      42.908 -11.113   6.314  1.00  0.00     0.186 C 
HETATM   22  S   UNL     1      43.587 -11.595   4.861  1.00  0.00    -0.040 SA
BRANCH  21  23
HETATM   23  N   UNL     1      43.519 -11.537   7.451  1.00  0.00    -0.364 N 
HETATM   24  H   UNL     1      43.023 -12.304   7.895  1.00  0.00     0.162 HD
BRANCH  23  25
HETATM   25  C   UNL     1      44.627 -10.963   8.210  1.00  0.00     0.154 C 
BRANCH  25  26
HETATM   26  C   UNL     1      44.248  -9.727   9.037  1.00  0.00     0.139 C 
HETATM   27  O   UNL     1      42.831  -9.775   9.332  1.00  0.00    -0.384 OA
HETATM   28  C   UNL     1      42.671  -9.773  10.759  1.00  0.00     0.168 C 
HETATM   29  C   UNL     1      43.917  -9.120  11.306  1.00  0.00     0.029 C 
HETATM   30  C   UNL     1      44.972  -9.667  10.378  1.00  0.00     0.035 C 
ENDBRANCH  25  26
ENDBRANCH  23  25
ENDBRANCH  21  23
ENDBRANCH  19  21
ENDBRANCH   2  19
TORSDOF 9
ENDMDL
