MODEL 1
REMARK VINA RESULT:      -7.7      0.000      0.000
REMARK  4 active torsions:
REMARK  status: ('A' for Active; 'I' for Inactive)
REMARK    1  A    between atoms: C_9  and  N_10 
REMARK    2  A    between atoms: N_10  and  C_12 
REMARK    3  A    between atoms: C_12  and  C_13 
REMARK    4  A    between atoms: C_14  and  C_15 
ROOT
HETATM    1  C   UNL     1      41.454 -13.497   3.386  1.00  0.00     0.016 A 
HETATM    2  C   UNL     1      42.167 -12.260   3.508  1.00  0.00     0.096 A 
HETATM    3  N   UNL     1      42.291 -11.660   2.319  1.00  0.00    -0.174 NA
HETATM    4  N   UNL     1      41.680 -12.468   1.451  1.00  0.00    -0.288 N 
HETATM    5  H   UNL     1      41.649 -12.188   0.472  1.00  0.00     0.188 HD
HETATM    6  C   UNL     1      41.145 -13.579   2.039  1.00  0.00     0.120 A 
ENDROOT
BRANCH   1   7
HETATM    7  C   UNL     1      41.064 -14.406   4.499  1.00  0.00     0.277 C 
BRANCH   7   8
HETATM    8  N   UNL     1      42.214 -14.901   5.356  1.00  0.00    -0.065 N 
HETATM    9  H   UNL     1      43.088 -14.568   4.934  1.00  0.00     0.280 HD
HETATM   10  C   UNL     1      42.105 -14.380   6.769  1.00  0.00     0.270 C 
BRANCH   8  11
HETATM   11  C   UNL     1      42.150 -16.403   5.426  1.00  0.00     0.205 C 
HETATM   12  C   UNL     1      43.534 -17.193   5.691  1.00  0.00     0.008 C 
HETATM   13  C   UNL     1      43.359 -18.576   6.334  1.00  0.00     0.020 C 
HETATM   14  C   UNL     1      44.714 -16.478   6.351  1.00  0.00     0.020 C 
HETATM   15  C   UNL     1      43.664 -17.173   4.163  1.00  0.00     0.137 C 
HETATM   16  C   UNL     1      42.116 -17.170   4.054  1.00  0.00     0.049 C 
HETATM   17  O   UNL     1      44.113 -18.224   3.308  1.00  0.00    -0.385 OA
HETATM   18  C   UNL     1      42.175 -17.100   2.530  1.00  0.00     0.035 C 
HETATM   19  C   UNL     1      43.192 -18.228   2.190  1.00  0.00     0.168 C 
ENDBRANCH   8  11
ENDBRANCH   7   8
ENDBRANCH   1   7
BRANCH   2  20
HETATM   20  C   UNL     1      42.673 -11.618   4.717  1.00  0.00    -0.002 A 
HETATM   21  C   UNL     1      44.013 -11.753   5.101  1.00  0.00     0.053 A 
HETATM   22  C   UNL     1      44.461 -11.176   6.290  1.00  0.00     0.103 A 
HETATM   23  C   UNL     1      43.577 -10.464   7.105  1.00  0.00     0.102 A 
HETATM   24  O   UNL     1      45.783 -11.366   6.601  1.00  0.00    -0.346 OA
HETATM   25  O   UNL     1      43.943  -9.904   8.300  1.00  0.00    -0.346 OA
HETATM   26  C   UNL     1      42.254 -10.287   6.708  1.00  0.00     0.040 A 
HETATM   27  C   UNL     1      45.206 -10.400   8.757  1.00  0.00     0.202 C 
HETATM   28  C   UNL     1      46.212 -10.448   7.618  1.00  0.00     0.202 C 
HETATM   29  C   UNL     1      41.803 -10.863   5.518  1.00  0.00     0.017 A 
ENDBRANCH   2  20
TORSDOF 4
ENDMDL
MODEL 2
REMARK VINA RESULT:      -7.7      3.041      5.979
REMARK  4 active torsions:
REMARK  status: ('A' for Active; 'I' for Inactive)
REMARK    1  A    between atoms: C_9  and  N_10 
REMARK    2  A    between atoms: N_10  and  C_12 
REMARK    3  A    between atoms: C_12  and  C_13 
REMARK    4  A    between atoms: C_14  and  C_15 
ROOT
HETATM    1  C   UNL     1      42.111 -12.714   3.625  1.00  0.00     0.016 A 
HETATM    2  C   UNL     1      41.834 -12.244   2.300  1.00  0.00     0.096 A 
HETATM    3  N   UNL     1      42.365 -11.033   2.101  1.00  0.00    -0.174 NA
HETATM    4  N   UNL     1      42.971 -10.721   3.248  1.00  0.00    -0.288 N 
HETATM    5  H   UNL     1      43.456  -9.828   3.308  1.00  0.00     0.188 HD
HETATM    6  C   UNL     1      42.864 -11.701   4.194  1.00  0.00     0.120 A 
ENDROOT
BRANCH   1   7
HETATM    7  C   UNL     1      41.743 -14.044   4.186  1.00  0.00     0.277 C 
BRANCH   7   8
HETATM    8  N   UNL     1      42.736 -14.616   5.181  1.00  0.00    -0.065 N 
HETATM    9  H   UNL     1      43.680 -14.456   4.812  1.00  0.00     0.280 HD
HETATM   10  C   UNL     1      42.601 -13.949   6.529  1.00  0.00     0.270 C 
BRANCH   8  11
HETATM   11  C   UNL     1      42.436 -16.078   5.373  1.00  0.00     0.205 C 
HETATM   12  C   UNL     1      43.663 -17.035   5.807  1.00  0.00     0.008 C 
HETATM   13  C   UNL     1      43.237 -18.310   6.549  1.00  0.00     0.020 C 
HETATM   14  C   UNL     1      44.896 -16.444   6.491  1.00  0.00     0.020 C 
HETATM   15  C   UNL     1      43.888 -17.181   4.297  1.00  0.00     0.137 C 
HETATM   16  C   UNL     1      42.368 -16.958   4.072  1.00  0.00     0.049 C 
HETATM   17  O   UNL     1      44.221 -18.363   3.570  1.00  0.00    -0.385 OA
HETATM   18  C   UNL     1      42.532 -17.043   2.557  1.00  0.00     0.035 C 
HETATM   19  C   UNL     1      43.381 -18.336   2.390  1.00  0.00     0.168 C 
ENDBRANCH   8  11
ENDBRANCH   7   8
ENDBRANCH   1   7
BRANCH   2  20
HETATM   20  C   UNL     1      41.138 -12.934   1.217  1.00  0.00    -0.002 A 
HETATM   21  C   UNL     1      40.748 -12.252   0.059  1.00  0.00     0.053 A 
HETATM   22  C   UNL     1      40.035 -12.919  -0.938  1.00  0.00     0.103 A 
HETATM   23  C   UNL     1      39.706 -14.269  -0.787  1.00  0.00     0.102 A 
HETATM   24  O   UNL     1      39.677 -12.176  -2.034  1.00  0.00    -0.346 OA
HETATM   25  O   UNL     1      38.980 -14.973  -1.710  1.00  0.00    -0.346 OA
HETATM   26  C   UNL     1      40.130 -14.966   0.341  1.00  0.00     0.040 A 
HETATM   27  C   UNL     1      38.337 -14.109  -2.654  1.00  0.00     0.202 C 
HETATM   28  C   UNL     1      39.289 -13.022  -3.127  1.00  0.00     0.202 C 
HETATM   29  C   UNL     1      40.844 -14.300   1.342  1.00  0.00     0.017 A 
ENDBRANCH   2  20
TORSDOF 4
ENDMDL
MODEL 3
REMARK VINA RESULT:      -7.6      3.915      7.557
REMARK  4 active torsions:
REMARK  status: ('A' for Active; 'I' for Inactive)
REMARK    1  A    between atoms: C_9  and  N_10 
REMARK    2  A    between atoms: N_10  and  C_12 
REMARK    3  A    between atoms: C_12  and  C_13 
REMARK    4  A    between atoms: C_14  and  C_15 
ROOT
HETATM    1  C   UNL     1      40.797 -13.469   2.452  1.00  0.00     0.016 A 
HETATM    2  C   UNL     1      41.026 -14.303   3.594  1.00  0.00     0.096 A 
HETATM    3  N   UNL     1      40.196 -13.984   4.593  1.00  0.00    -0.174 NA
HETATM    4  N   UNL     1      39.449 -12.982   4.124  1.00  0.00    -0.288 N 
HETATM    5  H   UNL     1      38.734 -12.589   4.733  1.00  0.00     0.188 HD
HETATM    6  C   UNL     1      39.757 -12.642   2.837  1.00  0.00     0.120 A 
ENDROOT
BRANCH   1   7
HETATM    7  C   UNL     1      41.478 -13.574   1.130  1.00  0.00     0.277 C 
BRANCH   7   8
HETATM    8  N   UNL     1      40.644 -14.199   0.028  1.00  0.00    -0.065 N 
HETATM    9  H   UNL     1      41.276 -14.458  -0.738  1.00  0.00     0.280 HD
HETATM   10  C   UNL     1      39.921 -15.429   0.523  1.00  0.00     0.270 C 
BRANCH   8  11
HETATM   11  C   UNL     1      39.597 -13.209  -0.405  1.00  0.00     0.205 C 
HETATM   12  C   UNL     1      39.013 -13.354  -1.904  1.00  0.00     0.008 C 
HETATM   13  C   UNL     1      37.606 -12.769  -2.093  1.00  0.00     0.020 C 
HETATM   14  C   UNL     1      39.105 -14.692  -2.640  1.00  0.00     0.020 C 
HETATM   15  C   UNL     1      40.180 -12.435  -2.287  1.00  0.00     0.137 C 
HETATM   16  C   UNL     1      40.114 -11.799  -0.872  1.00  0.00     0.049 C 
HETATM   17  O   UNL     1      40.171 -11.343  -3.206  1.00  0.00    -0.385 OA
HETATM   18  C   UNL     1      41.303 -10.891  -1.173  1.00  0.00     0.035 C 
HETATM   19  C   UNL     1      40.914 -10.285  -2.552  1.00  0.00     0.168 C 
ENDBRANCH   8  11
ENDBRANCH   7   8
ENDBRANCH   1   7
BRANCH   2  20
HETATM   20  C   UNL     1      41.958 -15.419   3.734  1.00  0.00    -0.002 A 
HETATM   21  C   UNL     1      41.854 -16.553   2.919  1.00  0.00     0.053 A 
HETATM   22  C   UNL     1      42.721 -17.630   3.109  1.00  0.00     0.103 A 
HETATM   23  C   UNL     1      43.694 -17.585   4.112  1.00  0.00     0.102 A 
HETATM   24  O   UNL     1      42.544 -18.708   2.281  1.00  0.00    -0.346 OA
HETATM   25  O   UNL     1      44.552 -18.619   4.372  1.00  0.00    -0.346 OA
HETATM   26  C   UNL     1      43.833 -16.442   4.894  1.00  0.00     0.040 A 
HETATM   27  C   UNL     1      44.129 -19.834   3.742  1.00  0.00     0.202 C 
HETATM   28  C   UNL     1      43.689 -19.576   2.311  1.00  0.00     0.202 C 
HETATM   29  C   UNL     1      42.966 -15.362   4.707  1.00  0.00     0.017 A 
ENDBRANCH   2  20
TORSDOF 4
ENDMDL
MODEL 4
REMARK VINA RESULT:      -7.6      2.685      6.495
REMARK  4 active torsions:
REMARK  status: ('A' for Active; 'I' for Inactive)
REMARK    1  A    between atoms: C_9  and  N_10 
REMARK    2  A    between atoms: N_10  and  C_12 
REMARK    3  A    between atoms: C_12  and  C_13 
REMARK    4  A    between atoms: C_14  and  C_15 
ROOT
HETATM    1  C   UNL     1      43.198 -17.071   4.924  1.00  0.00     0.016 A 
HETATM    2  C   UNL     1      43.203 -16.932   3.499  1.00  0.00     0.096 A 
HETATM    3  N   UNL     1      43.729 -18.014   2.915  1.00  0.00    -0.174 NA
HETATM    4  N   UNL     1      44.054 -18.833   3.917  1.00  0.00    -0.288 N 
HETATM    5  H   UNL     1      44.467 -19.734   3.687  1.00  0.00     0.188 HD
HETATM    6  C   UNL     1      43.742 -18.324   5.146  1.00  0.00     0.120 A 
ENDROOT
BRANCH   1   7
HETATM    7  C   UNL     1      42.629 -16.104   5.904  1.00  0.00     0.277 C 
BRANCH   7   8
HETATM    8  N   UNL     1      41.314 -15.470   5.490  1.00  0.00    -0.065 N 
HETATM    9  H   UNL     1      41.352 -15.296   4.480  1.00  0.00     0.280 HD
HETATM   10  C   UNL     1      40.150 -16.381   5.801  1.00  0.00     0.270 C 
BRANCH   8  11
HETATM   11  C   UNL     1      41.117 -14.206   6.282  1.00  0.00     0.205 C 
HETATM   12  C   UNL     1      40.565 -12.912   5.488  1.00  0.00     0.008 C 
HETATM   13  C   UNL     1      39.835 -11.893   6.374  1.00  0.00     0.020 C 
HETATM   14  C   UNL     1      39.795 -13.083   4.178  1.00  0.00     0.020 C 
HETATM   15  C   UNL     1      42.049 -12.629   5.221  1.00  0.00     0.137 C 
HETATM   16  C   UNL     1      42.402 -13.341   6.555  1.00  0.00     0.049 C 
HETATM   17  O   UNL     1      42.723 -11.372   5.261  1.00  0.00    -0.385 OA
HETATM   18  C   UNL     1      43.897 -13.136   6.325  1.00  0.00     0.035 C 
HETATM   19  C   UNL     1      43.967 -11.625   5.958  1.00  0.00     0.168 C 
ENDBRANCH   8  11
ENDBRANCH   7   8
ENDBRANCH   1   7
BRANCH   2  20
HETATM   20  C   UNL     1      42.673 -15.838   2.689  1.00  0.00    -0.002 A 
HETATM   21  C   UNL     1      41.548 -16.021   1.876  1.00  0.00     0.053 A 
HETATM   22  C   UNL     1      41.093 -14.978   1.069  1.00  0.00     0.103 A 
HETATM   23  C   UNL     1      41.757 -13.748   1.064  1.00  0.00     0.102 A 
HETATM   24  O   UNL     1      39.995 -15.242   0.292  1.00  0.00    -0.346 OA
HETATM   25  O   UNL     1      41.384 -12.696   0.272  1.00  0.00    -0.346 OA
HETATM   26  C   UNL     1      42.848 -13.544   1.904  1.00  0.00     0.040 A 
HETATM   27  C   UNL     1      40.474 -13.100  -0.757  1.00  0.00     0.202 C 
HETATM   28  C   UNL     1      39.406 -14.028  -0.200  1.00  0.00     0.202 C 
HETATM   29  C   UNL     1      43.307 -14.587   2.714  1.00  0.00     0.017 A 
ENDBRANCH   2  20
TORSDOF 4
ENDMDL
MODEL 5
REMARK VINA RESULT:      -7.6      3.668      5.760
REMARK  4 active torsions:
REMARK  status: ('A' for Active; 'I' for Inactive)
REMARK    1  A    between atoms: C_9  and  N_10 
REMARK    2  A    between atoms: N_10  and  C_12 
REMARK    3  A    between atoms: C_12  and  C_13 
REMARK    4  A    between atoms: C_14  and  C_15 
ROOT
HETATM    1  C   UNL     1      44.915 -11.128   7.725  1.00  0.00     0.016 A 
HETATM    2  C   UNL     1      44.828 -10.174   8.790  1.00  0.00     0.096 A 
HETATM    3  N   UNL     1      45.792  -9.253   8.686  1.00  0.00    -0.174 NA
HETATM    4  N   UNL     1      46.483  -9.586   7.595  1.00  0.00    -0.288 N 
HETATM    5  H   UNL     1      47.269  -8.999   7.325  1.00  0.00     0.188 HD
HETATM    6  C   UNL     1      45.990 -10.696   6.968  1.00  0.00     0.120 A 
ENDROOT
BRANCH   1   7
HETATM    7  C   UNL     1      43.974 -12.255   7.469  1.00  0.00     0.277 C 
BRANCH   7   8
HETATM    8  N   UNL     1      42.686 -11.867   6.767  1.00  0.00    -0.065 N 
HETATM    9  H   UNL     1      41.935 -11.860   7.466  1.00  0.00     0.280 HD
HETATM   10  C   UNL     1      42.801 -10.499   6.136  1.00  0.00     0.270 C 
BRANCH   8  11
HETATM   11  C   UNL     1      42.427 -12.851   5.658  1.00  0.00     0.205 C 
HETATM   12  C   UNL     1      40.896 -13.309   5.416  1.00  0.00     0.008 C 
HETATM   13  C   UNL     1      40.601 -13.792   3.989  1.00  0.00     0.020 C 
HETATM   14  C   UNL     1      39.744 -12.426   5.897  1.00  0.00     0.020 C 
HETATM   15  C   UNL     1      41.218 -14.402   6.443  1.00  0.00     0.137 C 
HETATM   16  C   UNL     1      42.700 -14.365   5.985  1.00  0.00     0.049 C 
HETATM   17  O   UNL     1      40.834 -15.776   6.410  1.00  0.00    -0.385 OA
HETATM   18  C   UNL     1      43.096 -15.415   7.020  1.00  0.00     0.035 C 
HETATM   19  C   UNL     1      42.017 -16.514   6.801  1.00  0.00     0.168 C 
ENDBRANCH   8  11
ENDBRANCH   7   8
ENDBRANCH   1   7
BRANCH   2  20
HETATM   20  C   UNL     1      43.830 -10.084   9.852  1.00  0.00    -0.002 A 
HETATM   21  C   UNL     1      42.623  -9.403   9.654  1.00  0.00     0.053 A 
HETATM   22  C   UNL     1      41.708  -9.282  10.701  1.00  0.00     0.103 A 
HETATM   23  C   UNL     1      41.991  -9.837  11.952  1.00  0.00     0.102 A 
HETATM   24  O   UNL     1      40.558  -8.588  10.429  1.00  0.00    -0.346 OA
HETATM   25  O   UNL     1      41.154  -9.726  13.029  1.00  0.00    -0.346 OA
HETATM   26  C   UNL     1      43.168 -10.556  12.144  1.00  0.00     0.040 A 
HETATM   27  C   UNL     1      40.149  -8.727  12.823  1.00  0.00     0.202 C 
HETATM   28  C   UNL     1      39.556  -8.837  11.428  1.00  0.00     0.202 C 
HETATM   29  C   UNL     1      44.086 -10.678  11.097  1.00  0.00     0.017 A 
ENDBRANCH   2  20
TORSDOF 4
ENDMDL
MODEL 6
REMARK VINA RESULT:      -7.5      3.562      7.295
REMARK  4 active torsions:
REMARK  status: ('A' for Active; 'I' for Inactive)
REMARK    1  A    between atoms: C_9  and  N_10 
REMARK    2  A    between atoms: N_10  and  C_12 
REMARK    3  A    between atoms: C_12  and  C_13 
REMARK    4  A    between atoms: C_14  and  C_15 
ROOT
HETATM    1  C   UNL     1      41.437 -12.327   2.294  1.00  0.00     0.016 A 
HETATM    2  C   UNL     1      42.630 -12.952   2.782  1.00  0.00     0.096 A 
HETATM    3  N   UNL     1      43.535 -12.036   3.145  1.00  0.00    -0.174 NA
HETATM    4  N   UNL     1      42.957 -10.856   2.909  1.00  0.00    -0.288 N 
HETATM    5  H   UNL     1      43.481 -10.012   3.129  1.00  0.00     0.188 HD
HETATM    6  C   UNL     1      41.690 -10.971   2.412  1.00  0.00     0.120 A 
ENDROOT
BRANCH   1   7
HETATM    7  C   UNL     1      40.189 -13.019   1.866  1.00  0.00     0.277 C 
BRANCH   7   8
HETATM    8  N   UNL     1      40.200 -13.538   0.440  1.00  0.00    -0.065 N 
HETATM    9  H   UNL     1      41.090 -13.261   0.010  1.00  0.00     0.280 HD
HETATM   10  C   UNL     1      40.073 -15.043   0.408  1.00  0.00     0.270 C 
BRANCH   8  11
HETATM   11  C   UNL     1      39.011 -12.972  -0.288  1.00  0.00     0.205 C 
HETATM   12  C   UNL     1      39.024 -13.052  -1.902  1.00  0.00     0.008 C 
HETATM   13  C   UNL     1      37.630 -13.038  -2.545  1.00  0.00     0.020 C 
HETATM   14  C   UNL     1      39.896 -14.086  -2.615  1.00  0.00     0.020 C 
HETATM   15  C   UNL     1      39.737 -11.697  -1.814  1.00  0.00     0.137 C 
HETATM   16  C   UNL     1      38.986 -11.413  -0.486  1.00  0.00     0.049 C 
HETATM   17  O   UNL     1      39.535 -10.545  -2.632  1.00  0.00    -0.385 OA
HETATM   18  C   UNL     1      39.699 -10.074  -0.314  1.00  0.00     0.035 C 
HETATM   19  C   UNL     1      39.519  -9.423  -1.715  1.00  0.00     0.168 C 
ENDBRANCH   8  11
ENDBRANCH   7   8
ENDBRANCH   1   7
BRANCH   2  20
HETATM   20  C   UNL     1      42.903 -14.374   2.964  1.00  0.00    -0.002 A 
HETATM   21  C   UNL     1      42.960 -14.941   4.244  1.00  0.00     0.053 A 
HETATM   22  C   UNL     1      43.278 -16.291   4.396  1.00  0.00     0.103 A 
HETATM   23  C   UNL     1      43.542 -17.084   3.276  1.00  0.00     0.102 A 
HETATM   24  O   UNL     1      43.327 -16.765   5.681  1.00  0.00    -0.346 OA
HETATM   25  O   UNL     1      43.893 -18.405   3.358  1.00  0.00    -0.346 OA
HETATM   26  C   UNL     1      43.443 -16.540   1.999  1.00  0.00     0.040 A 
HETATM   27  C   UNL     1      44.268 -18.776   4.689  1.00  0.00     0.202 C 
HETATM   28  C   UNL     1      43.295 -18.200   5.705  1.00  0.00     0.202 C 
HETATM   29  C   UNL     1      43.125 -15.187   1.843  1.00  0.00     0.017 A 
ENDBRANCH   2  20
TORSDOF 4
ENDMDL
MODEL 7
REMARK VINA RESULT:      -7.5      2.311      5.240
REMARK  4 active torsions:
REMARK  status: ('A' for Active; 'I' for Inactive)
REMARK    1  A    between atoms: C_9  and  N_10 
REMARK    2  A    between atoms: N_10  and  C_12 
REMARK    3  A    between atoms: C_12  and  C_13 
REMARK    4  A    between atoms: C_14  and  C_15 
ROOT
HETATM    1  C   UNL     1      41.588 -16.309   3.060  1.00  0.00     0.016 A 
HETATM    2  C   UNL     1      42.723 -16.178   3.925  1.00  0.00     0.096 A 
HETATM    3  N   UNL     1      43.647 -17.103   3.643  1.00  0.00    -0.174 NA
HETATM    4  N   UNL     1      43.142 -17.811   2.632  1.00  0.00    -0.288 N 
HETATM    5  H   UNL     1      43.700 -18.572   2.252  1.00  0.00     0.188 HD
HETATM    6  C   UNL     1      41.913 -17.368   2.230  1.00  0.00     0.120 A 
ENDROOT
BRANCH   1   7
HETATM    7  C   UNL     1      40.395 -15.417   3.027  1.00  0.00     0.277 C 
BRANCH   7   8
HETATM    8  N   UNL     1      40.556 -14.161   2.191  1.00  0.00    -0.065 N 
HETATM    9  H   UNL     1      41.509 -13.808   2.333  1.00  0.00     0.280 HD
HETATM   10  C   UNL     1      40.339 -14.452   0.725  1.00  0.00     0.270 C 
BRANCH   8  11
HETATM   11  C   UNL     1      39.508 -13.166   2.610  1.00  0.00     0.205 C 
HETATM   12  C   UNL     1      39.875 -11.599   2.468  1.00  0.00     0.008 C 
HETATM   13  C   UNL     1      38.656 -10.677   2.323  1.00  0.00     0.020 C 
HETATM   14  C   UNL     1      40.966 -11.149   1.496  1.00  0.00     0.020 C 
HETATM   15  C   UNL     1      40.434 -11.755   3.888  1.00  0.00     0.137 C 
HETATM   16  C   UNL     1      39.392 -12.875   4.151  1.00  0.00     0.049 C 
HETATM   17  O   UNL     1      40.314 -10.846   4.982  1.00  0.00    -0.385 OA
HETATM   18  C   UNL     1      39.934 -13.115   5.558  1.00  0.00     0.035 C 
HETATM   19  C   UNL     1      40.004 -11.670   6.133  1.00  0.00     0.168 C 
ENDBRANCH   8  11
ENDBRANCH   7   8
ENDBRANCH   1   7
BRANCH   2  20
HETATM   20  C   UNL     1      42.971 -15.173   4.955  1.00  0.00    -0.002 A 
HETATM   21  C   UNL     1      43.254 -13.844   4.614  1.00  0.00     0.053 A 
HETATM   22  C   UNL     1      43.543 -12.914   5.613  1.00  0.00     0.103 A 
HETATM   23  C   UNL     1      43.554 -13.301   6.956  1.00  0.00     0.102 A 
HETATM   24  O   UNL     1      43.823 -11.638   5.196  1.00  0.00    -0.346 OA
HETATM   25  O   UNL     1      43.862 -12.447   7.981  1.00  0.00    -0.346 OA
HETATM   26  C   UNL     1      43.229 -14.609   7.305  1.00  0.00     0.040 A 
HETATM   27  C   UNL     1      44.474 -11.243   7.506  1.00  0.00     0.202 C 
HETATM   28  C   UNL     1      43.740 -10.708   6.287  1.00  0.00     0.202 C 
HETATM   29  C   UNL     1      42.940 -15.543   6.307  1.00  0.00     0.017 A 
ENDBRANCH   2  20
TORSDOF 4
ENDMDL
MODEL 8
REMARK VINA RESULT:      -7.4      3.711      7.328
REMARK  4 active torsions:
REMARK  status: ('A' for Active; 'I' for Inactive)
REMARK    1  A    between atoms: C_9  and  N_10 
REMARK    2  A    between atoms: N_10  and  C_12 
REMARK    3  A    between atoms: C_12  and  C_13 
REMARK    4  A    between atoms: C_14  and  C_15 
ROOT
HETATM    1  C   UNL     1      40.549 -13.214   3.189  1.00  0.00     0.016 A 
HETATM    2  C   UNL     1      40.882 -14.170   4.203  1.00  0.00     0.096 A 
HETATM    3  N   UNL     1      40.132 -13.989   5.296  1.00  0.00    -0.174 NA
HETATM    4  N   UNL     1      39.336 -12.957   5.010  1.00  0.00    -0.288 N 
HETATM    5  H   UNL     1      38.668 -12.656   5.717  1.00  0.00     0.188 HD
HETATM    6  C   UNL     1      39.532 -12.462   3.752  1.00  0.00     0.120 A 
ENDROOT
BRANCH   1   7
HETATM    7  C   UNL     1      41.120 -13.148   1.815  1.00  0.00     0.277 C 
BRANCH   7   8
HETATM    8  N   UNL     1      40.782 -11.887   1.041  1.00  0.00    -0.065 N 
HETATM    9  H   UNL     1      39.793 -11.672   1.205  1.00  0.00     0.280 HD
HETATM   10  C   UNL     1      41.633 -10.725   1.495  1.00  0.00     0.270 C 
BRANCH   8  11
HETATM   11  C   UNL     1      41.084 -12.120  -0.415  1.00  0.00     0.205 C 
HETATM   12  C   UNL     1      40.193 -11.314  -1.495  1.00  0.00     0.008 C 
HETATM   13  C   UNL     1      40.882 -11.107  -2.851  1.00  0.00     0.020 C 
HETATM   14  C   UNL     1      39.477 -10.024  -1.092  1.00  0.00     0.020 C 
HETATM   15  C   UNL     1      39.251 -12.520  -1.397  1.00  0.00     0.137 C 
HETATM   16  C   UNL     1      40.472 -13.418  -1.060  1.00  0.00     0.049 C 
HETATM   17  O   UNL     1      38.561 -13.183  -2.456  1.00  0.00    -0.385 OA
HETATM   18  C   UNL     1      39.583 -14.648  -0.898  1.00  0.00     0.035 C 
HETATM   19  C   UNL     1      38.715 -14.598  -2.188  1.00  0.00     0.168 C 
ENDBRANCH   8  11
ENDBRANCH   7   8
ENDBRANCH   1   7
BRANCH   2  20
HETATM   20  C   UNL     1      41.838 -15.272   4.135  1.00  0.00    -0.002 A 
HETATM   21  C   UNL     1      41.654 -16.334   3.241  1.00  0.00     0.053 A 
HETATM   22  C   UNL     1      42.550 -17.403   3.233  1.00  0.00     0.103 A 
HETATM   23  C   UNL     1      43.633 -17.423   4.117  1.00  0.00     0.102 A 
HETATM   24  O   UNL     1      42.291 -18.410   2.339  1.00  0.00    -0.346 OA
HETATM   25  O   UNL     1      44.529 -18.456   4.184  1.00  0.00    -0.346 OA
HETATM   26  C   UNL     1      43.849 -16.349   4.976  1.00  0.00     0.040 A 
HETATM   27  C   UNL     1      44.051 -19.621   3.502  1.00  0.00     0.202 C 
HETATM   28  C   UNL     1      43.442 -19.250   2.160  1.00  0.00     0.202 C 
HETATM   29  C   UNL     1      42.952 -15.277   4.987  1.00  0.00     0.017 A 
ENDBRANCH   2  20
TORSDOF 4
ENDMDL
MODEL 9
REMARK VINA RESULT:      -7.4      3.264      4.844
REMARK  4 active torsions:
REMARK  status: ('A' for Active; 'I' for Inactive)
REMARK    1  A    between atoms: C_9  and  N_10 
REMARK    2  A    between atoms: N_10  and  C_12 
REMARK    3  A    between atoms: C_12  and  C_13 
REMARK    4  A    between atoms: C_14  and  C_15 
ROOT
HETATM    1  C   UNL     1      44.383 -11.599   6.906  1.00  0.00     0.016 A 
HETATM    2  C   UNL     1      44.581 -10.665   7.974  1.00  0.00     0.096 A 
HETATM    3  N   UNL     1      45.828 -10.183   7.963  1.00  0.00    -0.174 NA
HETATM    4  N   UNL     1      46.425 -10.773   6.926  1.00  0.00    -0.288 N 
HETATM    5  H   UNL     1      47.395 -10.533   6.729  1.00  0.00     0.188 HD
HETATM    6  C   UNL     1      45.600 -11.622   6.245  1.00  0.00     0.120 A 
ENDROOT
BRANCH   1   7
HETATM    7  C   UNL     1      43.109 -12.287   6.557  1.00  0.00     0.277 C 
BRANCH   7   8
HETATM    8  N   UNL     1      43.253 -13.748   6.172  1.00  0.00    -0.065 N 
HETATM    9  H   UNL     1      44.135 -13.853   5.659  1.00  0.00     0.280 HD
HETATM   10  C   UNL     1      43.272 -14.634   7.396  1.00  0.00     0.270 C 
BRANCH   8  11
HETATM   11  C   UNL     1      42.060 -14.149   5.348  1.00  0.00     0.205 C 
HETATM   12  C   UNL     1      42.279 -15.303   4.239  1.00  0.00     0.008 C 
HETATM   13  C   UNL     1      41.004 -16.076   3.872  1.00  0.00     0.020 C 
HETATM   14  C   UNL     1      43.443 -16.287   4.372  1.00  0.00     0.020 C 
HETATM   15  C   UNL     1      42.648 -14.136   3.314  1.00  0.00     0.137 C 
HETATM   16  C   UNL     1      41.701 -13.218   4.133  1.00  0.00     0.049 C 
HETATM   17  O   UNL     1      42.284 -13.952   1.947  1.00  0.00    -0.385 OA
HETATM   18  C   UNL     1      42.063 -12.005   3.281  1.00  0.00     0.035 C 
HETATM   19  C   UNL     1      41.903 -12.559   1.836  1.00  0.00     0.168 C 
ENDBRANCH   8  11
ENDBRANCH   7   8
ENDBRANCH   1   7
BRANCH   2  20
HETATM   20  C   UNL     1      43.610 -10.184   8.952  1.00  0.00    -0.002 A 
HETATM   21  C   UNL     1      43.755 -10.471  10.315  1.00  0.00     0.053 A 
HETATM   22  C   UNL     1      42.785 -10.049  11.225  1.00  0.00     0.103 A 
HETATM   23  C   UNL     1      41.664  -9.340  10.783  1.00  0.00     0.102 A 
HETATM   24  O   UNL     1      42.993 -10.382  12.538  1.00  0.00    -0.346 OA
HETATM   25  O   UNL     1      40.660  -8.926  11.617  1.00  0.00    -0.346 OA
HETATM   26  C   UNL     1      41.536  -9.011   9.436  1.00  0.00     0.040 A 
HETATM   27  C   UNL     1      40.727  -9.572  12.894  1.00  0.00     0.202 C 
HETATM   28  C   UNL     1      42.157  -9.603  13.408  1.00  0.00     0.202 C 
HETATM   29  C   UNL     1      42.506  -9.433   8.523  1.00  0.00     0.017 A 
ENDBRANCH   2  20
TORSDOF 4
ENDMDL
MODEL 10
REMARK VINA RESULT:      -7.3      1.609      3.078
REMARK  4 active torsions:
REMARK  status: ('A' for Active; 'I' for Inactive)
REMARK    1  A    between atoms: C_9  and  N_10 
REMARK    2  A    between atoms: N_10  and  C_12 
REMARK    3  A    between atoms: C_12  and  C_13 
REMARK    4  A    between atoms: C_14  and  C_15 
ROOT
HETATM    1  C   UNL     1      40.938 -11.658   4.242  1.00  0.00     0.016 A 
HETATM    2  C   UNL     1      41.940 -10.725   4.666  1.00  0.00     0.096 A 
HETATM    3  N   UNL     1      41.937  -9.636   3.890  1.00  0.00    -0.174 NA
HETATM    4  N   UNL     1      40.969  -9.842   2.995  1.00  0.00    -0.288 N 
HETATM    5  H   UNL     1      40.790  -9.116   2.304  1.00  0.00     0.188 HD
HETATM    6  C   UNL     1      40.324 -11.034   3.169  1.00  0.00     0.120 A 
ENDROOT
BRANCH   1   7
HETATM    7  C   UNL     1      40.596 -12.949   4.903  1.00  0.00     0.277 C 
BRANCH   7   8
HETATM    8  N   UNL     1      40.614 -14.160   3.990  1.00  0.00    -0.065 N 
HETATM    9  H   UNL     1      40.258 -14.962   4.521  1.00  0.00     0.280 HD
HETATM   10  C   UNL     1      39.749 -13.937   2.772  1.00  0.00     0.270 C 
BRANCH   8  11
HETATM   11  C   UNL     1      42.022 -14.376   3.504  1.00  0.00     0.205 C 
HETATM   12  C   UNL     1      42.362 -15.803   2.826  1.00  0.00     0.008 C 
HETATM   13  C   UNL     1      43.545 -15.771   1.849  1.00  0.00     0.020 C 
HETATM   14  C   UNL     1      41.242 -16.659   2.232  1.00  0.00     0.020 C 
HETATM   15  C   UNL     1      42.686 -16.239   4.260  1.00  0.00     0.137 C 
HETATM   16  C   UNL     1      43.086 -14.776   4.591  1.00  0.00     0.049 C 
HETATM   17  O   UNL     1      43.772 -17.051   4.705  1.00  0.00    -0.385 OA
HETATM   18  C   UNL     1      43.379 -15.135   6.045  1.00  0.00     0.035 C 
HETATM   19  C   UNL     1      44.274 -16.399   5.898  1.00  0.00     0.168 C 
ENDBRANCH   8  11
ENDBRANCH   7   8
ENDBRANCH   1   7
BRANCH   2  20
HETATM   20  C   UNL     1      42.844 -10.818   5.808  1.00  0.00    -0.002 A 
HETATM   21  C   UNL     1      42.500 -10.267   7.048  1.00  0.00     0.053 A 
HETATM   22  C   UNL     1      43.403 -10.319   8.110  1.00  0.00     0.103 A 
HETATM   23  C   UNL     1      44.655 -10.917   7.943  1.00  0.00     0.102 A 
HETATM   24  O   UNL     1      42.996  -9.744   9.287  1.00  0.00    -0.346 OA
HETATM   25  O   UNL     1      45.600 -10.971   8.933  1.00  0.00    -0.346 OA
HETATM   26  C   UNL     1      44.986 -11.508   6.727  1.00  0.00     0.040 A 
HETATM   27  C   UNL     1      45.293 -10.082  10.012  1.00  0.00     0.202 C 
HETATM   28  C   UNL     1      43.821 -10.168  10.382  1.00  0.00     0.202 C 
HETATM   29  C   UNL     1      44.084 -11.458   5.661  1.00  0.00     0.017 A 
ENDBRANCH   2  20
TORSDOF 4
ENDMDL
