MODEL 1
REMARK VINA RESULT:      -8.4      0.000      0.000
REMARK  5 active torsions:
REMARK  status: ('A' for Active; 'I' for Inactive)
REMARK    1  A    between atoms: C_9  and  C_10 
REMARK       I    between atoms: C_10  and  N_11 
REMARK    2  A    between atoms: N_11  and  C_12 
REMARK    3  A    between atoms: C_12  and  C_13 
REMARK    4  A    between atoms: C_12  and  C_16 
REMARK    5  A    between atoms: C_19  and  O_20 
ROOT
HETATM    1  C   UNL     1      42.809 -14.715   3.000  1.00  0.00     0.273 C 
HETATM    2  N   UNL     1      41.527 -14.276   3.228  1.00  0.00    -0.346 N 
HETATM    3  O   UNL     1      43.542 -14.268   2.124  1.00  0.00    -0.266 OA
HETATM    4  H   UNL     1      41.067 -14.696   4.027  1.00  0.00     0.163 HD
ENDROOT
BRANCH   2   5
HETATM    5  C   UNL     1      40.909 -13.180   2.523  1.00  0.00     0.122 C 
BRANCH   5   6
HETATM    6  C   UNL     1      39.646 -12.704   3.209  1.00  0.00     0.013 A 
HETATM    7  C   UNL     1      39.590 -11.475   4.090  1.00  0.00     0.007 A 
HETATM    8  C   UNL     1      38.886 -11.475   2.760  1.00  0.00     0.007 A 
ENDBRANCH   5   6
BRANCH   5   9
HETATM    9  C   UNL     1      40.591 -13.540   1.078  1.00  0.00    -0.035 A 
HETATM   10  C   UNL     1      40.920 -12.637   0.055  1.00  0.00     0.012 A 
HETATM   11  C   UNL     1      40.618 -12.928  -1.279  1.00  0.00     0.037 A 
HETATM   12  C   UNL     1      39.990 -14.125  -1.623  1.00  0.00     0.068 A 
HETATM   13  C   UNL     1      39.643 -15.022  -0.616  1.00  0.00     0.037 A 
HETATM   14  C   UNL     1      39.935 -14.729   0.722  1.00  0.00     0.012 A 
BRANCH  12  15
HETATM   15  O   UNL     1      39.762 -14.290  -2.962  1.00  0.00    -0.356 OA
HETATM   16  C   UNL     1      38.458 -14.716  -3.338  1.00  0.00     0.210 C 
ENDBRANCH  12  15
ENDBRANCH   5   9
ENDBRANCH   2   5
BRANCH   1  17
HETATM   17  C   UNL     1      43.216 -15.773   3.939  1.00  0.00     0.157 A 
HETATM   18  C   UNL     1      43.399 -17.160   3.658  1.00  0.00     0.029 A 
HETATM   19  C   UNL     1      43.279 -17.993   2.527  1.00  0.00     0.023 A 
HETATM   20  C   UNL     1      43.790 -17.725   4.865  1.00  0.00     0.063 A 
HETATM   21  C   UNL     1      43.559 -19.365   2.644  1.00  0.00    -0.061 A 
HETATM   22  C   UNL     1      43.435 -20.271   1.454  1.00  0.00     0.048 C 
HETATM   23  C   UNL     1      43.948 -19.893   3.882  1.00  0.00     0.009 A 
HETATM   24  C   UNL     1      44.072 -19.085   5.018  1.00  0.00     0.032 A 
HETATM   25  N   UNL     1      43.816 -16.690   5.757  1.00  0.00    -0.277 N 
HETATM   26  H   UNL     1      44.059 -16.735   6.740  1.00  0.00     0.189 HD
HETATM   27  N   UNL     1      43.482 -15.496   5.237  1.00  0.00    -0.168 NA
ENDBRANCH   1  17
TORSDOF 5
ENDMDL
MODEL 2
REMARK VINA RESULT:      -8.3      4.732      7.470
REMARK  5 active torsions:
REMARK  status: ('A' for Active; 'I' for Inactive)
REMARK    1  A    between atoms: C_9  and  C_10 
REMARK       I    between atoms: C_10  and  N_11 
REMARK    2  A    between atoms: N_11  and  C_12 
REMARK    3  A    between atoms: C_12  and  C_13 
REMARK    4  A    between atoms: C_12  and  C_16 
REMARK    5  A    between atoms: C_19  and  O_20 
ROOT
HETATM    1  C   UNL     1      43.082 -12.324   5.715  1.00  0.00     0.273 C 
HETATM    2  N   UNL     1      43.302 -13.672   5.565  1.00  0.00    -0.346 N 
HETATM    3  O   UNL     1      42.013 -11.772   5.478  1.00  0.00    -0.266 OA
HETATM    4  H   UNL     1      44.218 -13.991   5.860  1.00  0.00     0.163 HD
ENDROOT
BRANCH   2   5
HETATM    5  C   UNL     1      42.284 -14.622   5.189  1.00  0.00     0.122 C 
BRANCH   5   6
HETATM    6  C   UNL     1      41.399 -14.998   6.360  1.00  0.00     0.013 A 
HETATM    7  C   UNL     1      39.953 -14.571   6.480  1.00  0.00     0.007 A 
HETATM    8  C   UNL     1      40.289 -16.020   6.250  1.00  0.00     0.007 A 
ENDBRANCH   5   6
BRANCH   5   9
HETATM    9  C   UNL     1      42.878 -15.885   4.582  1.00  0.00    -0.035 A 
HETATM   10  C   UNL     1      42.474 -16.290   3.300  1.00  0.00     0.012 A 
HETATM   11  C   UNL     1      42.983 -17.458   2.727  1.00  0.00     0.037 A 
HETATM   12  C   UNL     1      43.909 -18.245   3.412  1.00  0.00     0.068 A 
HETATM   13  C   UNL     1      44.306 -17.864   4.692  1.00  0.00     0.037 A 
HETATM   14  C   UNL     1      43.790 -16.698   5.274  1.00  0.00     0.012 A 
BRANCH  12  15
HETATM   15  O   UNL     1      44.334 -19.354   2.735  1.00  0.00    -0.356 OA
HETATM   16  C   UNL     1      43.335 -20.120   2.074  1.00  0.00     0.210 C 
ENDBRANCH  12  15
ENDBRANCH   5   9
ENDBRANCH   2   5
BRANCH   1  17
HETATM   17  C   UNL     1      44.272 -11.612   6.211  1.00  0.00     0.157 A 
HETATM   18  C   UNL     1      44.456 -11.016   7.494  1.00  0.00     0.029 A 
HETATM   19  C   UNL     1      43.686 -10.868   8.665  1.00  0.00     0.023 A 
HETATM   20  C   UNL     1      45.739 -10.485   7.466  1.00  0.00     0.063 A 
HETATM   21  C   UNL     1      44.231 -10.196   9.772  1.00  0.00    -0.061 A 
HETATM   22  C   UNL     1      43.429 -10.023  11.029  1.00  0.00     0.048 C 
HETATM   23  C   UNL     1      45.530  -9.674   9.699  1.00  0.00     0.009 A 
HETATM   24  C   UNL     1      46.310  -9.808   8.546  1.00  0.00     0.032 A 
HETATM   25  N   UNL     1      46.225 -10.782   6.223  1.00  0.00    -0.277 N 
HETATM   26  H   UNL     1      47.138 -10.546   5.851  1.00  0.00     0.189 HD
HETATM   27  N   UNL     1      45.374 -11.465   5.438  1.00  0.00    -0.168 NA
ENDBRANCH   1  17
TORSDOF 5
ENDMDL
MODEL 3
REMARK VINA RESULT:      -7.8      3.775      7.194
REMARK  5 active torsions:
REMARK  status: ('A' for Active; 'I' for Inactive)
REMARK    1  A    between atoms: C_9  and  C_10 
REMARK       I    between atoms: C_10  and  N_11 
REMARK    2  A    between atoms: N_11  and  C_12 
REMARK    3  A    between atoms: C_12  and  C_13 
REMARK    4  A    between atoms: C_12  and  C_16 
REMARK    5  A    between atoms: C_19  and  O_20 
ROOT
HETATM    1  C   UNL     1      42.739 -12.918   4.250  1.00  0.00     0.273 C 
HETATM    2  N   UNL     1      42.003 -14.075   4.329  1.00  0.00    -0.346 N 
HETATM    3  O   UNL     1      43.511 -12.655   3.334  1.00  0.00    -0.266 OA
HETATM    4  H   UNL     1      41.362 -14.122   5.112  1.00  0.00     0.163 HD
ENDROOT
BRANCH   2   5
HETATM    5  C   UNL     1      41.981 -15.091   3.305  1.00  0.00     0.122 C 
BRANCH   5   6
HETATM    6  C   UNL     1      40.569 -15.453   2.895  1.00  0.00     0.013 A 
HETATM    7  C   UNL     1      39.658 -14.516   2.133  1.00  0.00     0.007 A 
HETATM    8  C   UNL     1      40.187 -15.756   1.463  1.00  0.00     0.007 A 
ENDBRANCH   5   6
BRANCH   5   9
HETATM    9  C   UNL     1      42.718 -16.351   3.737  1.00  0.00    -0.035 A 
HETATM   10  C   UNL     1      43.182 -17.247   2.762  1.00  0.00     0.012 A 
HETATM   11  C   UNL     1      43.840 -18.425   3.128  1.00  0.00     0.037 A 
HETATM   12  C   UNL     1      44.057 -18.732   4.472  1.00  0.00     0.068 A 
HETATM   13  C   UNL     1      43.586 -17.860   5.451  1.00  0.00     0.037 A 
HETATM   14  C   UNL     1      42.918 -16.684   5.087  1.00  0.00     0.012 A 
BRANCH  12  15
HETATM   15  O   UNL     1      44.720 -19.907   4.693  1.00  0.00    -0.356 OA
HETATM   16  C   UNL     1      43.986 -20.944   5.332  1.00  0.00     0.210 C 
ENDBRANCH  12  15
ENDBRANCH   5   9
ENDBRANCH   2   5
BRANCH   1  17
HETATM   17  C   UNL     1      42.486 -12.013   5.384  1.00  0.00     0.157 A 
HETATM   18  C   UNL     1      43.450 -11.389   6.231  1.00  0.00     0.029 A 
HETATM   19  C   UNL     1      44.856 -11.378   6.334  1.00  0.00     0.023 A 
HETATM   20  C   UNL     1      42.708 -10.635   7.130  1.00  0.00     0.063 A 
HETATM   21  C   UNL     1      45.470 -10.607   7.335  1.00  0.00    -0.061 A 
HETATM   22  C   UNL     1      46.965 -10.583   7.466  1.00  0.00     0.048 C 
HETATM   23  C   UNL     1      44.683  -9.863   8.223  1.00  0.00     0.009 A 
HETATM   24  C   UNL     1      43.286  -9.860   8.139  1.00  0.00     0.032 A 
HETATM   25  N   UNL     1      41.401 -10.843   6.785  1.00  0.00    -0.277 N 
HETATM   26  H   UNL     1      40.581 -10.448   7.229  1.00  0.00     0.189 HD
HETATM   27  N   UNL     1      41.225 -11.663   5.734  1.00  0.00    -0.168 NA
ENDBRANCH   1  17
TORSDOF 5
ENDMDL
MODEL 4
REMARK VINA RESULT:      -7.7      2.264      6.871
REMARK  5 active torsions:
REMARK  status: ('A' for Active; 'I' for Inactive)
REMARK    1  A    between atoms: C_9  and  C_10 
REMARK       I    between atoms: C_10  and  N_11 
REMARK    2  A    between atoms: N_11  and  C_12 
REMARK    3  A    between atoms: C_12  and  C_13 
REMARK    4  A    between atoms: C_12  and  C_16 
REMARK    5  A    between atoms: C_19  and  O_20 
ROOT
HETATM    1  C   UNL     1      40.756 -13.352   2.358  1.00  0.00     0.273 C 
HETATM    2  N   UNL     1      41.937 -13.953   2.723  1.00  0.00    -0.346 N 
HETATM    3  O   UNL     1      39.713 -13.442   2.997  1.00  0.00    -0.266 OA
HETATM    4  H   UNL     1      42.729 -13.736   2.130  1.00  0.00     0.163 HD
ENDROOT
BRANCH   2   5
HETATM    5  C   UNL     1      42.122 -14.696   3.945  1.00  0.00     0.122 C 
BRANCH   5   6
HETATM    6  C   UNL     1      43.039 -13.978   4.913  1.00  0.00     0.013 A 
HETATM    7  C   UNL     1      42.692 -12.657   5.563  1.00  0.00     0.007 A 
HETATM    8  C   UNL     1      42.764 -13.907   6.399  1.00  0.00     0.007 A 
ENDBRANCH   5   6
BRANCH   5   9
HETATM    9  C   UNL     1      42.663 -16.095   3.684  1.00  0.00    -0.035 A 
HETATM   10  C   UNL     1      42.386 -16.724   2.460  1.00  0.00     0.012 A 
HETATM   11  C   UNL     1      42.847 -18.018   2.201  1.00  0.00     0.037 A 
HETATM   12  C   UNL     1      43.597 -18.711   3.151  1.00  0.00     0.068 A 
HETATM   13  C   UNL     1      43.864 -18.106   4.377  1.00  0.00     0.037 A 
HETATM   14  C   UNL     1      43.396 -16.813   4.643  1.00  0.00     0.012 A 
BRANCH  12  15
HETATM   15  O   UNL     1      43.995 -19.963   2.769  1.00  0.00    -0.356 OA
HETATM   16  C   UNL     1      43.928 -20.983   3.757  1.00  0.00     0.210 C 
ENDBRANCH  12  15
ENDBRANCH   5   9
ENDBRANCH   2   5
BRANCH   1  17
HETATM   17  C   UNL     1      40.884 -12.569   1.118  1.00  0.00     0.157 A 
HETATM   18  C   UNL     1      40.432 -12.928  -0.187  1.00  0.00     0.029 A 
HETATM   19  C   UNL     1      39.770 -14.029  -0.766  1.00  0.00     0.023 A 
HETATM   20  C   UNL     1      40.783 -11.857  -0.999  1.00  0.00     0.063 A 
HETATM   21  C   UNL     1      39.478 -14.018  -2.140  1.00  0.00    -0.061 A 
HETATM   22  C   UNL     1      38.777 -15.181  -2.779  1.00  0.00     0.048 C 
HETATM   23  C   UNL     1      39.852 -12.917  -2.922  1.00  0.00     0.009 A 
HETATM   24  C   UNL     1      40.512 -11.814  -2.369  1.00  0.00     0.032 A 
HETATM   25  N   UNL     1      41.397 -10.961  -0.169  1.00  0.00    -0.277 N 
HETATM   26  H   UNL     1      41.784 -10.059  -0.422  1.00  0.00     0.189 HD
HETATM   27  N   UNL     1      41.474 -11.350   1.115  1.00  0.00    -0.168 NA
ENDBRANCH   1  17
TORSDOF 5
ENDMDL
MODEL 5
REMARK VINA RESULT:      -7.7      2.525      7.492
REMARK  5 active torsions:
REMARK  status: ('A' for Active; 'I' for Inactive)
REMARK    1  A    between atoms: C_9  and  C_10 
REMARK       I    between atoms: C_10  and  N_11 
REMARK    2  A    between atoms: N_11  and  C_12 
REMARK    3  A    between atoms: C_12  and  C_13 
REMARK    4  A    between atoms: C_12  and  C_16 
REMARK    5  A    between atoms: C_19  and  O_20 
ROOT
HETATM    1  C   UNL     1      40.369 -14.228   1.499  1.00  0.00     0.273 C 
HETATM    2  N   UNL     1      41.591 -14.800   1.762  1.00  0.00    -0.346 N 
HETATM    3  O   UNL     1      39.560 -13.907   2.364  1.00  0.00    -0.266 OA
HETATM    4  H   UNL     1      42.176 -14.951   0.949  1.00  0.00     0.163 HD
ENDROOT
BRANCH   2   5
HETATM    5  C   UNL     1      42.112 -15.019   3.089  1.00  0.00     0.122 C 
BRANCH   5   6
HETATM    6  C   UNL     1      43.185 -14.014   3.451  1.00  0.00     0.013 A 
HETATM    7  C   UNL     1      43.105 -12.547   3.093  1.00  0.00     0.007 A 
HETATM    8  C   UNL     1      42.999 -12.973   4.532  1.00  0.00     0.007 A 
ENDBRANCH   5   6
BRANCH   5   9
HETATM    9  C   UNL     1      42.665 -16.428   3.258  1.00  0.00    -0.035 A 
HETATM   10  C   UNL     1      43.216 -16.809   4.491  1.00  0.00     0.012 A 
HETATM   11  C   UNL     1      43.754 -18.087   4.668  1.00  0.00     0.037 A 
HETATM   12  C   UNL     1      43.749 -19.014   3.626  1.00  0.00     0.068 A 
HETATM   13  C   UNL     1      43.220 -18.643   2.392  1.00  0.00     0.037 A 
HETATM   14  C   UNL     1      42.689 -17.360   2.208  1.00  0.00     0.012 A 
BRANCH  12  15
HETATM   15  O   UNL     1      44.296 -20.229   3.934  1.00  0.00    -0.356 OA
HETATM   16  C   UNL     1      44.232 -20.630   5.297  1.00  0.00     0.210 C 
ENDBRANCH  12  15
ENDBRANCH   5   9
ENDBRANCH   2   5
BRANCH   1  17
HETATM   17  C   UNL     1      40.142 -14.025   0.059  1.00  0.00     0.157 A 
HETATM   18  C   UNL     1      40.500 -12.888  -0.726  1.00  0.00     0.029 A 
HETATM   19  C   UNL     1      41.127 -11.648  -0.491  1.00  0.00     0.023 A 
HETATM   20  C   UNL     1      40.080 -13.191  -2.015  1.00  0.00     0.063 A 
HETATM   21  C   UNL     1      41.317 -10.754  -1.558  1.00  0.00    -0.061 A 
HETATM   22  C   UNL     1      41.979  -9.427  -1.331  1.00  0.00     0.048 C 
HETATM   23  C   UNL     1      40.875 -11.100  -2.842  1.00  0.00     0.009 A 
HETATM   24  C   UNL     1      40.248 -12.325  -3.097  1.00  0.00     0.032 A 
HETATM   25  N   UNL     1      39.520 -14.435  -1.929  1.00  0.00    -0.277 N 
HETATM   26  H   UNL     1      39.106 -14.973  -2.682  1.00  0.00     0.189 HD
HETATM   27  N   UNL     1      39.542 -14.975  -0.698  1.00  0.00    -0.168 NA
ENDBRANCH   1  17
TORSDOF 5
ENDMDL
MODEL 6
REMARK VINA RESULT:      -7.6      4.746      7.177
REMARK  5 active torsions:
REMARK  status: ('A' for Active; 'I' for Inactive)
REMARK    1  A    between atoms: C_9  and  C_10 
REMARK       I    between atoms: C_10  and  N_11 
REMARK    2  A    between atoms: N_11  and  C_12 
REMARK    3  A    between atoms: C_12  and  C_13 
REMARK    4  A    between atoms: C_12  and  C_16 
REMARK    5  A    between atoms: C_19  and  O_20 
ROOT
HETATM    1  C   UNL     1      43.334 -12.742   6.344  1.00  0.00     0.273 C 
HETATM    2  N   UNL     1      43.830 -13.977   6.002  1.00  0.00    -0.346 N 
HETATM    3  O   UNL     1      42.141 -12.461   6.363  1.00  0.00    -0.266 OA
HETATM    4  H   UNL     1      44.834 -14.076   6.094  1.00  0.00     0.163 HD
ENDROOT
BRANCH   2   5
HETATM    5  C   UNL     1      43.007 -15.123   5.701  1.00  0.00     0.122 C 
BRANCH   5   6
HETATM    6  C   UNL     1      43.757 -16.425   5.891  1.00  0.00     0.013 A 
HETATM    7  C   UNL     1      43.599 -17.306   7.111  1.00  0.00     0.007 A 
HETATM    8  C   UNL     1      43.088 -17.777   5.776  1.00  0.00     0.007 A 
ENDBRANCH   5   6
BRANCH   5   9
HETATM    9  C   UNL     1      42.447 -15.067   4.287  1.00  0.00    -0.035 A 
HETATM   10  C   UNL     1      41.085 -15.332   4.074  1.00  0.00     0.012 A 
HETATM   11  C   UNL     1      40.547 -15.312   2.784  1.00  0.00     0.037 A 
HETATM   12  C   UNL     1      41.350 -15.023   1.680  1.00  0.00     0.068 A 
HETATM   13  C   UNL     1      42.706 -14.775   1.876  1.00  0.00     0.037 A 
HETATM   14  C   UNL     1      43.251 -14.803   3.166  1.00  0.00     0.012 A 
BRANCH  12  15
HETATM   15  O   UNL     1      40.698 -15.027   0.478  1.00  0.00    -0.356 OA
HETATM   16  C   UNL     1      40.085 -13.806   0.082  1.00  0.00     0.210 C 
ENDBRANCH  12  15
ENDBRANCH   5   9
ENDBRANCH   2   5
BRANCH   1  17
HETATM   17  C   UNL     1      44.399 -11.790   6.705  1.00  0.00     0.157 A 
HETATM   18  C   UNL     1      44.517 -11.035   7.910  1.00  0.00     0.029 A 
HETATM   19  C   UNL     1      43.769 -10.890   9.096  1.00  0.00     0.023 A 
HETATM   20  C   UNL     1      45.688 -10.303   7.765  1.00  0.00     0.063 A 
HETATM   21  C   UNL     1      44.225 -10.020  10.100  1.00  0.00    -0.061 A 
HETATM   22  C   UNL     1      43.444  -9.848  11.371  1.00  0.00     0.048 C 
HETATM   23  C   UNL     1      45.411  -9.299   9.911  1.00  0.00     0.009 A 
HETATM   24  C   UNL     1      46.168  -9.425   8.740  1.00  0.00     0.032 A 
HETATM   25  N   UNL     1      46.180 -10.647   6.537  1.00  0.00    -0.277 N 
HETATM   26  H   UNL     1      47.026 -10.304   6.098  1.00  0.00     0.189 HD
HETATM   27  N   UNL     1      45.435 -11.545   5.868  1.00  0.00    -0.168 NA
ENDBRANCH   1  17
TORSDOF 5
ENDMDL
MODEL 7
REMARK VINA RESULT:      -7.5      4.263      6.948
REMARK  5 active torsions:
REMARK  status: ('A' for Active; 'I' for Inactive)
REMARK    1  A    between atoms: C_9  and  C_10 
REMARK       I    between atoms: C_10  and  N_11 
REMARK    2  A    between atoms: N_11  and  C_12 
REMARK    3  A    between atoms: C_12  and  C_13 
REMARK    4  A    between atoms: C_12  and  C_16 
REMARK    5  A    between atoms: C_19  and  O_20 
ROOT
HETATM    1  C   UNL     1      44.133 -11.626   4.772  1.00  0.00     0.273 C 
HETATM    2  N   UNL     1      43.060 -12.429   5.079  1.00  0.00    -0.346 N 
HETATM    3  O   UNL     1      44.433 -11.287   3.632  1.00  0.00    -0.266 OA
HETATM    4  H   UNL     1      42.902 -12.570   6.070  1.00  0.00     0.163 HD
ENDROOT
BRANCH   2   5
HETATM    5  C   UNL     1      42.104 -12.908   4.111  1.00  0.00     0.122 C 
BRANCH   5   6
HETATM    6  C   UNL     1      40.686 -12.845   4.635  1.00  0.00     0.013 A 
HETATM    7  C   UNL     1      39.801 -11.624   4.498  1.00  0.00     0.007 A 
HETATM    8  C   UNL     1      39.477 -12.875   3.727  1.00  0.00     0.007 A 
ENDBRANCH   5   6
BRANCH   5   9
HETATM    9  C   UNL     1      42.412 -14.329   3.662  1.00  0.00    -0.035 A 
HETATM   10  C   UNL     1      42.978 -14.545   2.396  1.00  0.00     0.012 A 
HETATM   11  C   UNL     1      43.248 -15.841   1.946  1.00  0.00     0.037 A 
HETATM   12  C   UNL     1      42.968 -16.947   2.747  1.00  0.00     0.068 A 
HETATM   13  C   UNL     1      42.391 -16.748   3.999  1.00  0.00     0.037 A 
HETATM   14  C   UNL     1      42.110 -15.452   4.449  1.00  0.00     0.012 A 
BRANCH  12  15
HETATM   15  O   UNL     1      43.290 -18.155   2.192  1.00  0.00    -0.356 OA
HETATM   16  C   UNL     1      44.098 -19.023   2.978  1.00  0.00     0.210 C 
ENDBRANCH  12  15
ENDBRANCH   5   9
ENDBRANCH   2   5
BRANCH   1  17
HETATM   17  C   UNL     1      44.876 -11.199   5.969  1.00  0.00     0.157 A 
HETATM   18  C   UNL     1      44.352 -10.581   7.143  1.00  0.00     0.029 A 
HETATM   19  C   UNL     1      43.082 -10.167   7.593  1.00  0.00     0.023 A 
HETATM   20  C   UNL     1      45.450 -10.388   7.972  1.00  0.00     0.063 A 
HETATM   21  C   UNL     1      42.955  -9.578   8.862  1.00  0.00    -0.061 A 
HETATM   22  C   UNL     1      41.613  -9.127   9.361  1.00  0.00     0.048 C 
HETATM   23  C   UNL     1      44.090  -9.401   9.664  1.00  0.00     0.009 A 
HETATM   24  C   UNL     1      45.360  -9.802   9.237  1.00  0.00     0.032 A 
HETATM   25  N   UNL     1      46.519 -10.880   7.275  1.00  0.00    -0.277 N 
HETATM   26  H   UNL     1      47.486 -10.903   7.576  1.00  0.00     0.189 HD
HETATM   27  N   UNL     1      46.214 -11.382   6.066  1.00  0.00    -0.168 NA
ENDBRANCH   1  17
TORSDOF 5
ENDMDL
MODEL 8
REMARK VINA RESULT:      -7.5      1.577      2.521
REMARK  5 active torsions:
REMARK  status: ('A' for Active; 'I' for Inactive)
REMARK    1  A    between atoms: C_9  and  C_10 
REMARK       I    between atoms: C_10  and  N_11 
REMARK    2  A    between atoms: N_11  and  C_12 
REMARK    3  A    between atoms: C_12  and  C_13 
REMARK    4  A    between atoms: C_12  and  C_16 
REMARK    5  A    between atoms: C_19  and  O_20 
ROOT
HETATM    1  C   UNL     1      42.982 -15.243   2.261  1.00  0.00     0.273 C 
HETATM    2  N   UNL     1      41.700 -14.788   2.453  1.00  0.00    -0.346 N 
HETATM    3  O   UNL     1      43.817 -14.673   1.567  1.00  0.00    -0.266 OA
HETATM    4  H   UNL     1      41.146 -15.332   3.103  1.00  0.00     0.163 HD
ENDROOT
BRANCH   2   5
HETATM    5  C   UNL     1      41.197 -13.541   1.931  1.00  0.00     0.122 C 
BRANCH   5   6
HETATM    6  C   UNL     1      40.112 -12.954   2.808  1.00  0.00     0.013 A 
HETATM    7  C   UNL     1      40.012 -13.217   4.295  1.00  0.00     0.007 A 
HETATM    8  C   UNL     1      40.376 -11.843   3.801  1.00  0.00     0.007 A 
ENDBRANCH   5   6
BRANCH   5   9
HETATM    9  C   UNL     1      40.670 -13.690   0.510  1.00  0.00    -0.035 A 
HETATM   10  C   UNL     1      40.882 -12.657  -0.416  1.00  0.00     0.012 A 
HETATM   11  C   UNL     1      40.388 -12.754  -1.720  1.00  0.00     0.037 A 
HETATM   12  C   UNL     1      39.678 -13.882  -2.132  1.00  0.00     0.068 A 
HETATM   13  C   UNL     1      39.445 -14.907  -1.218  1.00  0.00     0.037 A 
HETATM   14  C   UNL     1      39.931 -14.809   0.093  1.00  0.00     0.012 A 
BRANCH  12  15
HETATM   15  O   UNL     1      39.260 -13.854  -3.434  1.00  0.00    -0.356 OA
HETATM   16  C   UNL     1      38.127 -14.652  -3.756  1.00  0.00     0.210 C 
ENDBRANCH  12  15
ENDBRANCH   5   9
ENDBRANCH   2   5
BRANCH   1  17
HETATM   17  C   UNL     1      43.252 -16.489   2.998  1.00  0.00     0.157 A 
HETATM   18  C   UNL     1      43.279 -16.673   4.413  1.00  0.00     0.029 A 
HETATM   19  C   UNL     1      43.091 -15.858   5.547  1.00  0.00     0.023 A 
HETATM   20  C   UNL     1      43.568 -18.019   4.597  1.00  0.00     0.063 A 
HETATM   21  C   UNL     1      43.196 -16.421   6.830  1.00  0.00    -0.061 A 
HETATM   22  C   UNL     1      43.003 -15.572   8.053  1.00  0.00     0.048 C 
HETATM   23  C   UNL     1      43.492 -17.784   6.970  1.00  0.00     0.009 A 
HETATM   24  C   UNL     1      43.684 -18.611   5.857  1.00  0.00     0.032 A 
HETATM   25  N   UNL     1      43.693 -18.537   3.339  1.00  0.00    -0.277 N 
HETATM   26  H   UNL     1      43.903 -19.497   3.090  1.00  0.00     0.189 HD
HETATM   27  N   UNL     1      43.505 -17.649   2.347  1.00  0.00    -0.168 NA
ENDBRANCH   1  17
TORSDOF 5
ENDMDL
MODEL 9
REMARK VINA RESULT:      -7.5      2.509      3.856
REMARK  5 active torsions:
REMARK  status: ('A' for Active; 'I' for Inactive)
REMARK    1  A    between atoms: C_9  and  C_10 
REMARK       I    between atoms: C_10  and  N_11 
REMARK    2  A    between atoms: N_11  and  C_12 
REMARK    3  A    between atoms: C_12  and  C_13 
REMARK    4  A    between atoms: C_12  and  C_16 
REMARK    5  A    between atoms: C_19  and  O_20 
ROOT
HETATM    1  C   UNL     1      40.496 -15.279   1.956  1.00  0.00     0.273 C 
HETATM    2  N   UNL     1      40.692 -14.063   1.345  1.00  0.00    -0.346 N 
HETATM    3  O   UNL     1      39.554 -16.026   1.713  1.00  0.00    -0.266 OA
HETATM    4  H   UNL     1      41.548 -13.588   1.605  1.00  0.00     0.163 HD
ENDROOT
BRANCH   2   5
HETATM    5  C   UNL     1      39.863 -13.549   0.283  1.00  0.00     0.122 C 
BRANCH   5   6
HETATM    6  C   UNL     1      40.196 -14.179  -1.053  1.00  0.00     0.013 A 
HETATM    7  C   UNL     1      39.160 -14.812  -1.955  1.00  0.00     0.007 A 
HETATM    8  C   UNL     1      39.836 -13.534  -2.373  1.00  0.00     0.007 A 
ENDBRANCH   5   6
BRANCH   5   9
HETATM    9  C   UNL     1      39.964 -12.034   0.164  1.00  0.00    -0.035 A 
HETATM   10  C   UNL     1      38.793 -11.273   0.033  1.00  0.00     0.012 A 
HETATM   11  C   UNL     1      38.855  -9.883  -0.104  1.00  0.00     0.037 A 
HETATM   12  C   UNL     1      40.083  -9.221  -0.106  1.00  0.00     0.068 A 
HETATM   13  C   UNL     1      41.255  -9.966   0.007  1.00  0.00     0.037 A 
HETATM   14  C   UNL     1      41.196 -11.360   0.134  1.00  0.00     0.012 A 
BRANCH  12  15
HETATM   15  O   UNL     1      40.003  -7.862  -0.236  1.00  0.00    -0.356 OA
HETATM   16  C   UNL     1      41.219  -7.175  -0.505  1.00  0.00     0.210 C 
ENDBRANCH  12  15
ENDBRANCH   5   9
ENDBRANCH   2   5
BRANCH   1  17
HETATM   17  C   UNL     1      41.555 -15.596   2.928  1.00  0.00     0.157 A 
HETATM   18  C   UNL     1      42.355 -16.776   2.987  1.00  0.00     0.029 A 
HETATM   19  C   UNL     1      42.456 -17.974   2.250  1.00  0.00     0.023 A 
HETATM   20  C   UNL     1      43.204 -16.585   4.070  1.00  0.00     0.063 A 
HETATM   21  C   UNL     1      43.407 -18.938   2.621  1.00  0.00    -0.061 A 
HETATM   22  C   UNL     1      43.530 -20.222   1.853  1.00  0.00     0.048 C 
HETATM   23  C   UNL     1      44.242 -18.705   3.723  1.00  0.00     0.009 A 
HETATM   24  C   UNL     1      44.158 -17.524   4.469  1.00  0.00     0.032 A 
HETATM   25  N   UNL     1      42.875 -15.357   4.573  1.00  0.00    -0.277 N 
HETATM   26  H   UNL     1      43.293 -14.892   5.370  1.00  0.00     0.189 HD
HETATM   27  N   UNL     1      41.890 -14.727   3.910  1.00  0.00    -0.168 NA
ENDBRANCH   1  17
TORSDOF 5
ENDMDL
MODEL 10
REMARK VINA RESULT:      -7.3     14.360     15.918
REMARK  5 active torsions:
REMARK  status: ('A' for Active; 'I' for Inactive)
REMARK    1  A    between atoms: C_9  and  C_10 
REMARK       I    between atoms: C_10  and  N_11 
REMARK    2  A    between atoms: N_11  and  C_12 
REMARK    3  A    between atoms: C_12  and  C_13 
REMARK    4  A    between atoms: C_12  and  C_16 
REMARK    5  A    between atoms: C_19  and  O_20 
ROOT
HETATM    1  C   UNL     1      47.012 -29.094   1.389  1.00  0.00     0.273 C 
HETATM    2  N   UNL     1      46.094 -29.744   0.600  1.00  0.00    -0.346 N 
HETATM    3  O   UNL     1      46.910 -27.923   1.739  1.00  0.00    -0.266 OA
HETATM    4  H   UNL     1      46.282 -30.728   0.447  1.00  0.00     0.163 HD
ENDROOT
BRANCH   2   5
HETATM    5  C   UNL     1      44.854 -29.159   0.151  1.00  0.00     0.122 C 
BRANCH   5   6
HETATM    6  C   UNL     1      43.654 -29.778   0.835  1.00  0.00     0.013 A 
HETATM    7  C   UNL     1      43.229 -29.433   2.246  1.00  0.00     0.007 A 
HETATM    8  C   UNL     1      42.370 -29.016   1.082  1.00  0.00     0.007 A 
ENDBRANCH   5   6
BRANCH   5   9
HETATM    9  C   UNL     1      44.686 -29.268  -1.357  1.00  0.00    -0.035 A 
HETATM   10  C   UNL     1      44.268 -30.485  -1.919  1.00  0.00     0.012 A 
HETATM   11  C   UNL     1      44.129 -30.623  -3.303  1.00  0.00     0.037 A 
HETATM   12  C   UNL     1      44.396 -29.553  -4.157  1.00  0.00     0.068 A 
HETATM   13  C   UNL     1      44.828 -28.345  -3.614  1.00  0.00     0.037 A 
HETATM   14  C   UNL     1      44.977 -28.206  -2.229  1.00  0.00     0.012 A 
BRANCH  12  15
HETATM   15  O   UNL     1      44.211 -29.818  -5.486  1.00  0.00    -0.356 OA
HETATM   16  C   UNL     1      44.038 -31.183  -5.845  1.00  0.00     0.210 C 
ENDBRANCH  12  15
ENDBRANCH   5   9
ENDBRANCH   2   5
BRANCH   1  17
HETATM   17  C   UNL     1      48.130 -29.967   1.786  1.00  0.00     0.157 A 
HETATM   18  C   UNL     1      49.217 -30.409   0.975  1.00  0.00     0.029 A 
HETATM   19  C   UNL     1      49.626 -30.231  -0.362  1.00  0.00     0.023 A 
HETATM   20  C   UNL     1      49.996 -31.197   1.813  1.00  0.00     0.063 A 
HETATM   21  C   UNL     1      50.806 -30.846  -0.814  1.00  0.00    -0.061 A 
HETATM   22  C   UNL     1      51.259 -30.673  -2.234  1.00  0.00     0.048 C 
HETATM   23  C   UNL     1      51.560 -31.634   0.065  1.00  0.00     0.009 A 
HETATM   24  C   UNL     1      51.172 -31.826   1.396  1.00  0.00     0.032 A 
HETATM   25  N   UNL     1      49.357 -31.181   3.021  1.00  0.00    -0.277 N 
HETATM   26  H   UNL     1      49.644 -31.652   3.871  1.00  0.00     0.189 HD
HETATM   27  N   UNL     1      48.231 -30.447   3.048  1.00  0.00    -0.168 NA
ENDBRANCH   1  17
TORSDOF 5
ENDMDL
