MODEL 1
REMARK VINA RESULT:      -7.8      0.000      0.000
REMARK  14 active torsions:
REMARK  status: ('A' for Active; 'I' for Inactive)
REMARK    1  A    between atoms: C_2  and  O_3 
REMARK    2  A    between atoms: O_3  and  C_4 
REMARK    3  A    between atoms: C_5  and  O_6 
REMARK    4  A    between atoms: C_9  and  C_10 
REMARK    5  A    between atoms: N_11  and  C_12 
REMARK    6  A    between atoms: C_12  and  C_13 
REMARK    7  A    between atoms: C_13  and  C_14 
REMARK    8  A    between atoms: C_14  and  N_15 
REMARK    9  A    between atoms: C_21  and  O_22 
REMARK   10  A    between atoms: C_23  and  C_24 
REMARK   11  A    between atoms: C_24  and  C_25 
REMARK   12  A    between atoms: C_29  and  O_30 
REMARK   13  A    between atoms: O_30  and  C_31 
REMARK   14  A    between atoms: C_31  and  C_32 
ROOT
HETATM    1  C   UNL     1      41.990 -13.693   3.530  1.00  0.00     0.161 A 
HETATM    2  N   UNL     1      40.585 -13.871   3.163  1.00  0.00    -0.333 N 
HETATM    3  C   UNL     1      39.908 -12.674   3.167  1.00  0.00     0.278 A 
HETATM    4  O   UNL     1      38.749 -12.487   2.830  1.00  0.00    -0.265 OA
HETATM    5  C   UNL     1      40.828 -11.637   3.667  1.00  0.00     0.146 A 
HETATM    6  C   UNL     1      42.019 -12.222   3.851  1.00  0.00     0.059 A 
ENDROOT
BRANCH   6   7
HETATM    7  C   UNL     1      43.283 -11.593   4.288  1.00  0.00     0.193 C 
HETATM    8  O   UNL     1      44.194 -11.389   3.493  1.00  0.00    -0.287 OA
BRANCH   7   9
HETATM    9  C   UNL     1      43.460 -11.181   5.691  1.00  0.00     0.015 A 
HETATM   10  C   UNL     1      42.748 -10.093   6.203  1.00  0.00     0.025 A 
HETATM   11  C   UNL     1      42.963  -9.675   7.524  1.00  0.00    -0.028 A 
HETATM   12  C   UNL     1      42.212  -8.491   8.068  1.00  0.00     0.051 C 
HETATM   13  C   UNL     1      43.920 -10.342   8.313  1.00  0.00     0.074 A 
HETATM   14  C   UNL     1      44.621 -11.434   7.791  1.00  0.00     0.038 A 
HETATM   15  C   UNL     1      44.405 -11.844   6.474  1.00  0.00     0.018 A 
BRANCH  13  16
HETATM   16  O   UNL     1      44.085  -9.857   9.582  1.00  0.00    -0.350 OA
BRANCH  16  17
HETATM   17  C   UNL     1      43.737 -10.729  10.660  1.00  0.00     0.179 C 
BRANCH  17  18
HETATM   18  C   UNL     1      43.014  -9.930  11.756  1.00  0.00     0.002 C 
HETATM   19  C   UNL     1      43.622  -8.533  11.906  1.00  0.00     0.011 C 
HETATM   20  C   UNL     1      41.515  -9.819  11.476  1.00  0.00     0.011 C 
ENDBRANCH  17  18
ENDBRANCH  16  17
ENDBRANCH  13  16
ENDBRANCH   7   9
ENDBRANCH   6   7
BRANCH   1  21
HETATM   21  C   UNL     1      42.395 -14.664   4.622  1.00  0.00    -0.028 A 
HETATM   22  C   UNL     1      41.852 -14.496   5.911  1.00  0.00     0.012 A 
HETATM   23  C   UNL     1      42.205 -15.350   6.953  1.00  0.00     0.040 A 
HETATM   24  C   UNL     1      43.089 -16.389   6.708  1.00  0.00     0.099 A 
HETATM   25  C   UNL     1      43.629 -16.599   5.436  1.00  0.00     0.102 A 
HETATM   26  C   UNL     1      43.305 -15.718   4.402  1.00  0.00     0.049 A 
BRANCH  24  27
HETATM   27  O   UNL     1      43.406 -17.221   7.744  1.00  0.00    -0.358 OA
HETATM   28  H   UNL     1      44.038 -17.869   7.374  1.00  0.00     0.218 HD
ENDBRANCH  24  27
BRANCH  25  29
HETATM   29  O   UNL     1      44.473 -17.674   5.332  1.00  0.00    -0.349 OA
BRANCH  29  30
HETATM   30  C   UNL     1      44.022 -18.744   4.500  1.00  0.00     0.171 C 
HETATM   31  C   UNL     1      44.069 -20.022   5.319  1.00  0.00     0.034 C 
ENDBRANCH  29  30
ENDBRANCH  25  29
ENDBRANCH   1  21
BRANCH   5  32
HETATM   32  O   UNL     1      40.465 -10.340   3.857  1.00  0.00    -0.355 OA
HETATM   33  H   UNL     1      40.478  -9.898   2.987  1.00  0.00     0.218 HD
ENDBRANCH   5  32
BRANCH   2  34
HETATM   34  C   UNL     1      40.078 -15.080   2.541  1.00  0.00     0.129 C 
BRANCH  34  35
HETATM   35  C   UNL     1      40.646 -15.352   1.144  1.00  0.00     0.048 C 
BRANCH  35  36
HETATM   36  C   UNL     1      39.774 -14.981  -0.056  1.00  0.00     0.235 C 
BRANCH  36  37
HETATM   37  N   UNL     1      39.526 -13.500  -0.215  1.00  0.00    -0.079 N 
HETATM   38  H   UNL     1      38.973 -13.206   0.617  1.00  0.00     0.278 HD
HETATM   39  C   UNL     1      40.760 -12.656  -0.305  1.00  0.00     0.269 C 
HETATM   40  C   UNL     1      38.598 -13.219  -1.368  1.00  0.00     0.269 C 
ENDBRANCH  36  37
ENDBRANCH  35  36
ENDBRANCH  34  35
ENDBRANCH   2  34
TORSDOF 14
ENDMDL
MODEL 2
REMARK VINA RESULT:      -7.8      2.427      7.713
REMARK  14 active torsions:
REMARK  status: ('A' for Active; 'I' for Inactive)
REMARK    1  A    between atoms: C_2  and  O_3 
REMARK    2  A    between atoms: O_3  and  C_4 
REMARK    3  A    between atoms: C_5  and  O_6 
REMARK    4  A    between atoms: C_9  and  C_10 
REMARK    5  A    between atoms: N_11  and  C_12 
REMARK    6  A    between atoms: C_12  and  C_13 
REMARK    7  A    between atoms: C_13  and  C_14 
REMARK    8  A    between atoms: C_14  and  N_15 
REMARK    9  A    between atoms: C_21  and  O_22 
REMARK   10  A    between atoms: C_23  and  C_24 
REMARK   11  A    between atoms: C_24  and  C_25 
REMARK   12  A    between atoms: C_29  and  O_30 
REMARK   13  A    between atoms: O_30  and  C_31 
REMARK   14  A    between atoms: C_31  and  C_32 
ROOT
HETATM    1  C   UNL     1      40.752 -11.587   5.517  1.00  0.00     0.161 A 
HETATM    2  N   UNL     1      40.276 -10.594   4.555  1.00  0.00    -0.333 N 
HETATM    3  C   UNL     1      39.444 -11.160   3.618  1.00  0.00     0.278 A 
HETATM    4  O   UNL     1      38.831 -10.578   2.736  1.00  0.00    -0.265 OA
HETATM    5  C   UNL     1      39.428 -12.615   3.850  1.00  0.00     0.146 A 
HETATM    6  C   UNL     1      40.159 -12.848   4.948  1.00  0.00     0.059 A 
ENDROOT
BRANCH   6   7
HETATM    7  C   UNL     1      40.400 -14.140   5.623  1.00  0.00     0.193 C 
HETATM    8  O   UNL     1      39.790 -14.443   6.642  1.00  0.00    -0.287 OA
BRANCH   7   9
HETATM    9  C   UNL     1      41.370 -15.098   5.066  1.00  0.00     0.015 A 
HETATM   10  C   UNL     1      41.873 -14.923   3.774  1.00  0.00     0.025 A 
HETATM   11  C   UNL     1      42.755 -15.869   3.232  1.00  0.00    -0.028 A 
HETATM   12  C   UNL     1      43.279 -15.692   1.834  1.00  0.00     0.051 C 
HETATM   13  C   UNL     1      43.102 -17.005   3.989  1.00  0.00     0.074 A 
HETATM   14  C   UNL     1      42.596 -17.164   5.284  1.00  0.00     0.038 A 
HETATM   15  C   UNL     1      41.717 -16.220   5.818  1.00  0.00     0.018 A 
BRANCH  13  16
HETATM   16  O   UNL     1      43.949 -17.889   3.379  1.00  0.00    -0.350 OA
BRANCH  16  17
HETATM   17  C   UNL     1      44.653 -18.802   4.225  1.00  0.00     0.179 C 
BRANCH  17  18
HETATM   18  C   UNL     1      44.320 -20.246   3.815  1.00  0.00     0.002 C 
HETATM   19  C   UNL     1      43.649 -21.000   4.965  1.00  0.00     0.011 C 
HETATM   20  C   UNL     1      43.428 -20.286   2.573  1.00  0.00     0.011 C 
ENDBRANCH  17  18
ENDBRANCH  16  17
ENDBRANCH  13  16
ENDBRANCH   7   9
ENDBRANCH   6   7
BRANCH   1  21
HETATM   21  C   UNL     1      42.260 -11.519   5.669  1.00  0.00    -0.028 A 
HETATM   22  C   UNL     1      43.058 -11.563   4.508  1.00  0.00     0.012 A 
HETATM   23  C   UNL     1      44.447 -11.522   4.593  1.00  0.00     0.040 A 
HETATM   24  C   UNL     1      45.047 -11.417   5.838  1.00  0.00     0.099 A 
HETATM   25  C   UNL     1      44.286 -11.348   7.008  1.00  0.00     0.102 A 
HETATM   26  C   UNL     1      42.894 -11.429   6.924  1.00  0.00     0.049 A 
BRANCH  24  27
HETATM   27  O   UNL     1      46.412 -11.362   5.892  1.00  0.00    -0.358 OA
HETATM   28  H   UNL     1      46.714 -12.285   5.776  1.00  0.00     0.218 HD
ENDBRANCH  24  27
BRANCH  25  29
HETATM   29  O   UNL     1      45.009 -11.227   8.167  1.00  0.00    -0.349 OA
BRANCH  29  30
HETATM   30  C   UNL     1      45.054  -9.920   8.741  1.00  0.00     0.171 C 
HETATM   31  C   UNL     1      45.126 -10.077  10.249  1.00  0.00     0.034 C 
ENDBRANCH  29  30
ENDBRANCH  25  29
ENDBRANCH   1  21
BRANCH   5  32
HETATM   32  O   UNL     1      38.751 -13.493   3.062  1.00  0.00    -0.355 OA
HETATM   33  H   UNL     1      39.410 -14.058   2.614  1.00  0.00     0.218 HD
ENDBRANCH   5  32
BRANCH   2  34
HETATM   34  C   UNL     1      40.381  -9.163   4.777  1.00  0.00     0.129 C 
BRANCH  34  35
HETATM   35  C   UNL     1      39.767  -8.686   6.097  1.00  0.00     0.048 C 
BRANCH  35  36
HETATM   36  C   UNL     1      40.728  -8.280   7.216  1.00  0.00     0.235 C 
BRANCH  36  37
HETATM   37  N   UNL     1      40.732  -9.212   8.404  1.00  0.00    -0.079 N 
HETATM   38  H   UNL     1      41.097 -10.123   8.059  1.00  0.00     0.278 HD
HETATM   39  C   UNL     1      41.565  -8.759   9.564  1.00  0.00     0.269 C 
HETATM   40  C   UNL     1      39.330  -9.544   8.847  1.00  0.00     0.269 C 
ENDBRANCH  36  37
ENDBRANCH  35  36
ENDBRANCH  34  35
ENDBRANCH   2  34
TORSDOF 14
ENDMDL
MODEL 3
REMARK VINA RESULT:      -7.3      2.718      7.471
REMARK  14 active torsions:
REMARK  status: ('A' for Active; 'I' for Inactive)
REMARK    1  A    between atoms: C_2  and  O_3 
REMARK    2  A    between atoms: O_3  and  C_4 
REMARK    3  A    between atoms: C_5  and  O_6 
REMARK    4  A    between atoms: C_9  and  C_10 
REMARK    5  A    between atoms: N_11  and  C_12 
REMARK    6  A    between atoms: C_12  and  C_13 
REMARK    7  A    between atoms: C_13  and  C_14 
REMARK    8  A    between atoms: C_14  and  N_15 
REMARK    9  A    between atoms: C_21  and  O_22 
REMARK   10  A    between atoms: C_23  and  C_24 
REMARK   11  A    between atoms: C_24  and  C_25 
REMARK   12  A    between atoms: C_29  and  O_30 
REMARK   13  A    between atoms: O_30  and  C_31 
REMARK   14  A    between atoms: C_31  and  C_32 
ROOT
HETATM    1  C   UNL     1      40.755 -11.488   5.825  1.00  0.00     0.161 A 
HETATM    2  N   UNL     1      40.273 -10.451   4.913  1.00  0.00    -0.333 N 
HETATM    3  C   UNL     1      39.419 -10.969   3.968  1.00  0.00     0.278 A 
HETATM    4  O   UNL     1      38.796 -10.344   3.122  1.00  0.00    -0.265 OA
HETATM    5  C   UNL     1      39.390 -12.432   4.140  1.00  0.00     0.146 A 
HETATM    6  C   UNL     1      40.137 -12.718   5.213  1.00  0.00     0.059 A 
ENDROOT
BRANCH   6   7
HETATM    7  C   UNL     1      40.376 -14.039   5.830  1.00  0.00     0.193 C 
HETATM    8  O   UNL     1      39.753 -14.394   6.824  1.00  0.00    -0.287 OA
BRANCH   7   9
HETATM    9  C   UNL     1      41.359 -14.965   5.242  1.00  0.00     0.015 A 
HETATM   10  C   UNL     1      41.122 -15.549   3.994  1.00  0.00     0.025 A 
HETATM   11  C   UNL     1      42.039 -16.470   3.467  1.00  0.00    -0.028 A 
HETATM   12  C   UNL     1      41.773 -17.113   2.134  1.00  0.00     0.051 C 
HETATM   13  C   UNL     1      43.178 -16.819   4.217  1.00  0.00     0.074 A 
HETATM   14  C   UNL     1      43.407 -16.222   5.462  1.00  0.00     0.038 A 
HETATM   15  C   UNL     1      42.490 -15.307   5.983  1.00  0.00     0.018 A 
BRANCH  13  16
HETATM   16  O   UNL     1      44.009 -17.741   3.641  1.00  0.00    -0.350 OA
BRANCH  16  17
HETATM   17  C   UNL     1      44.724 -18.610   4.522  1.00  0.00     0.179 C 
BRANCH  17  18
HETATM   18  C   UNL     1      44.456 -20.072   4.132  1.00  0.00     0.002 C 
HETATM   19  C   UNL     1      43.725 -20.812   5.255  1.00  0.00     0.011 C 
HETATM   20  C   UNL     1      43.655 -20.170   2.834  1.00  0.00     0.011 C 
ENDBRANCH  17  18
ENDBRANCH  16  17
ENDBRANCH  13  16
ENDBRANCH   7   9
ENDBRANCH   6   7
BRANCH   1  21
HETATM   21  C   UNL     1      42.266 -11.442   5.952  1.00  0.00    -0.028 A 
HETATM   22  C   UNL     1      43.046 -11.579   4.786  1.00  0.00     0.012 A 
HETATM   23  C   UNL     1      44.436 -11.561   4.850  1.00  0.00     0.040 A 
HETATM   24  C   UNL     1      45.056 -11.388   6.078  1.00  0.00     0.099 A 
HETATM   25  C   UNL     1      44.314 -11.226   7.251  1.00  0.00     0.102 A 
HETATM   26  C   UNL     1      42.919 -11.284   7.190  1.00  0.00     0.049 A 
BRANCH  24  27
HETATM   27  O   UNL     1      46.422 -11.359   6.111  1.00  0.00    -0.358 OA
HETATM   28  H   UNL     1      46.682 -12.027   6.775  1.00  0.00     0.218 HD
ENDBRANCH  24  27
BRANCH  25  29
HETATM   29  O   UNL     1      45.055 -11.045   8.389  1.00  0.00    -0.349 OA
BRANCH  29  30
HETATM   30  C   UNL     1      45.111  -9.710   8.893  1.00  0.00     0.171 C 
HETATM   31  C   UNL     1      45.133  -9.784  10.409  1.00  0.00     0.034 C 
ENDBRANCH  29  30
ENDBRANCH  25  29
ENDBRANCH   1  21
BRANCH   5  32
HETATM   32  O   UNL     1      38.690 -13.269   3.328  1.00  0.00    -0.355 OA
HETATM   33  H   UNL     1      37.857 -13.497   3.785  1.00  0.00     0.218 HD
ENDBRANCH   5  32
BRANCH   2  34
HETATM   34  C   UNL     1      40.398  -9.032   5.193  1.00  0.00     0.129 C 
BRANCH  34  35
HETATM   35  C   UNL     1      41.358  -8.290   4.258  1.00  0.00     0.048 C 
BRANCH  35  36
HETATM   36  C   UNL     1      40.744  -7.349   3.219  1.00  0.00     0.235 C 
BRANCH  36  37
HETATM   37  N   UNL     1      41.598  -6.150   2.881  1.00  0.00    -0.079 N 
HETATM   38  H   UNL     1      42.452  -6.522   2.418  1.00  0.00     0.278 HD
HETATM   39  C   UNL     1      40.951  -5.143   1.981  1.00  0.00     0.269 C 
HETATM   40  C   UNL     1      42.135  -5.491   4.125  1.00  0.00     0.269 C 
ENDBRANCH  36  37
ENDBRANCH  35  36
ENDBRANCH  34  35
ENDBRANCH   2  34
TORSDOF 14
ENDMDL
MODEL 4
REMARK VINA RESULT:      -7.2      2.062      5.159
REMARK  14 active torsions:
REMARK  status: ('A' for Active; 'I' for Inactive)
REMARK    1  A    between atoms: C_2  and  O_3 
REMARK    2  A    between atoms: O_3  and  C_4 
REMARK    3  A    between atoms: C_5  and  O_6 
REMARK    4  A    between atoms: C_9  and  C_10 
REMARK    5  A    between atoms: N_11  and  C_12 
REMARK    6  A    between atoms: C_12  and  C_13 
REMARK    7  A    between atoms: C_13  and  C_14 
REMARK    8  A    between atoms: C_14  and  N_15 
REMARK    9  A    between atoms: C_21  and  O_22 
REMARK   10  A    between atoms: C_23  and  C_24 
REMARK   11  A    between atoms: C_24  and  C_25 
REMARK   12  A    between atoms: C_29  and  O_30 
REMARK   13  A    between atoms: O_30  and  C_31 
REMARK   14  A    between atoms: C_31  and  C_32 
ROOT
HETATM    1  C   UNL     1      40.392 -14.601   3.513  1.00  0.00     0.161 A 
HETATM    2  N   UNL     1      40.712 -15.487   2.394  1.00  0.00    -0.333 N 
HETATM    3  C   UNL     1      41.551 -16.505   2.780  1.00  0.00     0.278 A 
HETATM    4  O   UNL     1      41.932 -17.441   2.095  1.00  0.00    -0.265 OA
HETATM    5  C   UNL     1      41.934 -16.265   4.183  1.00  0.00     0.146 A 
HETATM    6  C   UNL     1      41.252 -15.190   4.600  1.00  0.00     0.059 A 
ENDROOT
BRANCH   6   7
HETATM    7  C   UNL     1      41.246 -14.583   5.947  1.00  0.00     0.193 C 
HETATM    8  O   UNL     1      40.478 -14.982   6.816  1.00  0.00    -0.287 OA
BRANCH   7   9
HETATM    9  C   UNL     1      42.182 -13.494   6.274  1.00  0.00     0.015 A 
HETATM   10  C   UNL     1      41.757 -12.163   6.244  1.00  0.00     0.025 A 
HETATM   11  C   UNL     1      42.670 -11.130   6.505  1.00  0.00    -0.028 A 
HETATM   12  C   UNL     1      42.216  -9.698   6.451  1.00  0.00     0.051 C 
HETATM   13  C   UNL     1      44.016 -11.447   6.766  1.00  0.00     0.074 A 
HETATM   14  C   UNL     1      44.427 -12.784   6.800  1.00  0.00     0.038 A 
HETATM   15  C   UNL     1      43.515 -13.808   6.538  1.00  0.00     0.018 A 
BRANCH  13  16
HETATM   16  O   UNL     1      44.845 -10.381   6.988  1.00  0.00    -0.350 OA
BRANCH  16  17
HETATM   17  C   UNL     1      45.869 -10.549   7.971  1.00  0.00     0.179 C 
BRANCH  17  18
HETATM   18  C   UNL     1      45.693  -9.501   9.082  1.00  0.00     0.002 C 
HETATM   19  C   UNL     1      44.905  -8.292   8.574  1.00  0.00     0.011 C 
HETATM   20  C   UNL     1      45.004 -10.095  10.310  1.00  0.00     0.011 C 
ENDBRANCH  17  18
ENDBRANCH  16  17
ENDBRANCH  13  16
ENDBRANCH   7   9
ENDBRANCH   6   7
BRANCH   1  21
HETATM   21  C   UNL     1      40.618 -13.148   3.140  1.00  0.00    -0.028 A 
HETATM   22  C   UNL     1      41.900 -12.754   2.707  1.00  0.00     0.012 A 
HETATM   23  C   UNL     1      42.164 -11.429   2.369  1.00  0.00     0.040 A 
HETATM   24  C   UNL     1      41.144 -10.494   2.445  1.00  0.00     0.099 A 
HETATM   25  C   UNL     1      39.855 -10.855   2.848  1.00  0.00     0.102 A 
HETATM   26  C   UNL     1      39.602 -12.176   3.224  1.00  0.00     0.049 A 
BRANCH  24  27
HETATM   27  O   UNL     1      41.426  -9.204   2.093  1.00  0.00    -0.358 OA
HETATM   28  H   UNL     1      41.848  -9.260   1.213  1.00  0.00     0.218 HD
ENDBRANCH  24  27
BRANCH  25  29
HETATM   29  O   UNL     1      38.941  -9.834   2.858  1.00  0.00    -0.349 OA
BRANCH  29  30
HETATM   30  C   UNL     1      38.413  -9.481   4.137  1.00  0.00     0.171 C 
HETATM   31  C   UNL     1      39.064  -8.179   4.567  1.00  0.00     0.034 C 
ENDBRANCH  29  30
ENDBRANCH  25  29
ENDBRANCH   1  21
BRANCH   5  32
HETATM   32  O   UNL     1      42.808 -17.050   4.868  1.00  0.00    -0.355 OA
HETATM   33  H   UNL     1      43.211 -17.670   4.230  1.00  0.00     0.218 HD
ENDBRANCH   5  32
BRANCH   2  34
HETATM   34  C   UNL     1      39.963 -15.491   1.150  1.00  0.00     0.129 C 
BRANCH  34  35
HETATM   35  C   UNL     1      40.599 -14.658   0.033  1.00  0.00     0.048 C 
BRANCH  35  36
HETATM   36  C   UNL     1      39.860 -13.393  -0.411  1.00  0.00     0.235 C 
BRANCH  36  37
HETATM   37  N   UNL     1      39.510 -13.357  -1.880  1.00  0.00    -0.079 N 
HETATM   38  H   UNL     1      38.682 -12.734  -1.967  1.00  0.00     0.278 HD
HETATM   39  C   UNL     1      40.597 -12.855  -2.780  1.00  0.00     0.269 C 
HETATM   40  C   UNL     1      38.994 -14.691  -2.354  1.00  0.00     0.269 C 
ENDBRANCH  36  37
ENDBRANCH  35  36
ENDBRANCH  34  35
ENDBRANCH   2  34
TORSDOF 14
ENDMDL
MODEL 5
REMARK VINA RESULT:      -7.2      2.286      7.488
REMARK  14 active torsions:
REMARK  status: ('A' for Active; 'I' for Inactive)
REMARK    1  A    between atoms: C_2  and  O_3 
REMARK    2  A    between atoms: O_3  and  C_4 
REMARK    3  A    between atoms: C_5  and  O_6 
REMARK    4  A    between atoms: C_9  and  C_10 
REMARK    5  A    between atoms: N_11  and  C_12 
REMARK    6  A    between atoms: C_12  and  C_13 
REMARK    7  A    between atoms: C_13  and  C_14 
REMARK    8  A    between atoms: C_14  and  N_15 
REMARK    9  A    between atoms: C_21  and  O_22 
REMARK   10  A    between atoms: C_23  and  C_24 
REMARK   11  A    between atoms: C_24  and  C_25 
REMARK   12  A    between atoms: C_29  and  O_30 
REMARK   13  A    between atoms: O_30  and  C_31 
REMARK   14  A    between atoms: C_31  and  C_32 
ROOT
HETATM    1  C   UNL     1      42.459 -13.240   5.280  1.00  0.00     0.161 A 
HETATM    2  N   UNL     1      42.171 -14.443   6.060  1.00  0.00    -0.333 N 
HETATM    3  C   UNL     1      40.829 -14.552   6.338  1.00  0.00     0.278 A 
HETATM    4  O   UNL     1      40.270 -15.482   6.902  1.00  0.00    -0.265 OA
HETATM    5  C   UNL     1      40.165 -13.332   5.846  1.00  0.00     0.146 A 
HETATM    6  C   UNL     1      41.098 -12.599   5.225  1.00  0.00     0.059 A 
ENDROOT
BRANCH   6   7
HETATM    7  C   UNL     1      40.923 -11.315   4.515  1.00  0.00     0.193 C 
HETATM    8  O   UNL     1      41.106 -10.247   5.088  1.00  0.00    -0.287 OA
BRANCH   7   9
HETATM    9  C   UNL     1      40.543 -11.301   3.092  1.00  0.00     0.015 A 
HETATM   10  C   UNL     1      39.195 -11.287   2.721  1.00  0.00     0.025 A 
HETATM   11  C   UNL     1      38.843 -11.327   1.364  1.00  0.00    -0.028 A 
HETATM   12  C   UNL     1      37.392 -11.335   0.966  1.00  0.00     0.051 C 
HETATM   13  C   UNL     1      39.855 -11.410   0.388  1.00  0.00     0.074 A 
HETATM   14  C   UNL     1      41.200 -11.416   0.773  1.00  0.00     0.038 A 
HETATM   15  C   UNL     1      41.545 -11.378   2.125  1.00  0.00     0.018 A 
BRANCH  13  16
HETATM   16  O   UNL     1      39.425 -11.468  -0.910  1.00  0.00    -0.350 OA
BRANCH  16  17
HETATM   17  C   UNL     1      39.922 -12.543  -1.710  1.00  0.00     0.179 C 
BRANCH  17  18
HETATM   18  C   UNL     1      39.133 -13.825  -1.400  1.00  0.00     0.002 C 
HETATM   19  C   UNL     1      38.845 -14.612  -2.680  1.00  0.00     0.011 C 
HETATM   20  C   UNL     1      39.871 -14.710  -0.397  1.00  0.00     0.011 C 
ENDBRANCH  17  18
ENDBRANCH  16  17
ENDBRANCH  13  16
ENDBRANCH   7   9
ENDBRANCH   6   7
BRANCH   1  21
HETATM   21  C   UNL     1      43.592 -12.446   5.902  1.00  0.00    -0.028 A 
HETATM   22  C   UNL     1      44.630 -11.985   5.067  1.00  0.00     0.012 A 
HETATM   23  C   UNL     1      45.702 -11.266   5.590  1.00  0.00     0.040 A 
HETATM   24  C   UNL     1      45.734 -10.989   6.948  1.00  0.00     0.099 A 
HETATM   25  C   UNL     1      44.711 -11.411   7.801  1.00  0.00     0.102 A 
HETATM   26  C   UNL     1      43.656 -12.166   7.281  1.00  0.00     0.049 A 
BRANCH  24  27
HETATM   27  O   UNL     1      46.790 -10.269   7.433  1.00  0.00    -0.358 OA
HETATM   28  H   UNL     1      46.479  -9.887   8.277  1.00  0.00     0.218 HD
ENDBRANCH  24  27
BRANCH  25  29
HETATM   29  O   UNL     1      44.861 -11.052   9.115  1.00  0.00    -0.349 OA
BRANCH  29  30
HETATM   30  C   UNL     1      43.854 -10.189   9.646  1.00  0.00     0.171 C 
HETATM   31  C   UNL     1      44.448  -9.457  10.835  1.00  0.00     0.034 C 
ENDBRANCH  29  30
ENDBRANCH  25  29
ENDBRANCH   1  21
BRANCH   5  32
HETATM   32  O   UNL     1      38.839 -13.080   6.011  1.00  0.00    -0.355 OA
HETATM   33  H   UNL     1      38.417 -13.904   6.322  1.00  0.00     0.218 HD
ENDBRANCH   5  32
BRANCH   2  34
HETATM   34  C   UNL     1      43.114 -15.537   6.205  1.00  0.00     0.129 C 
BRANCH  34  35
HETATM   35  C   UNL     1      42.840 -16.728   5.281  1.00  0.00     0.048 C 
BRANCH  35  36
HETATM   36  C   UNL     1      43.536 -16.738   3.918  1.00  0.00     0.235 C 
BRANCH  36  37
HETATM   37  N   UNL     1      42.596 -16.729   2.737  1.00  0.00    -0.079 N 
HETATM   38  H   UNL     1      42.560 -17.708   2.386  1.00  0.00     0.278 HD
HETATM   39  C   UNL     1      41.203 -16.265   3.036  1.00  0.00     0.269 C 
HETATM   40  C   UNL     1      43.179 -15.964   1.577  1.00  0.00     0.269 C 
ENDBRANCH  36  37
ENDBRANCH  35  36
ENDBRANCH  34  35
ENDBRANCH   2  34
TORSDOF 14
ENDMDL
MODEL 6
REMARK VINA RESULT:      -6.9      2.515      4.442
REMARK  14 active torsions:
REMARK  status: ('A' for Active; 'I' for Inactive)
REMARK    1  A    between atoms: C_2  and  O_3 
REMARK    2  A    between atoms: O_3  and  C_4 
REMARK    3  A    between atoms: C_5  and  O_6 
REMARK    4  A    between atoms: C_9  and  C_10 
REMARK    5  A    between atoms: N_11  and  C_12 
REMARK    6  A    between atoms: C_12  and  C_13 
REMARK    7  A    between atoms: C_13  and  C_14 
REMARK    8  A    between atoms: C_14  and  N_15 
REMARK    9  A    between atoms: C_21  and  O_22 
REMARK   10  A    between atoms: C_23  and  C_24 
REMARK   11  A    between atoms: C_24  and  C_25 
REMARK   12  A    between atoms: C_29  and  O_30 
REMARK   13  A    between atoms: O_30  and  C_31 
REMARK   14  A    between atoms: C_31  and  C_32 
ROOT
HETATM    1  C   UNL     1      41.997 -12.879   2.943  1.00  0.00     0.161 A 
HETATM    2  N   UNL     1      41.886 -14.296   2.600  1.00  0.00    -0.333 N 
HETATM    3  C   UNL     1      40.579 -14.658   2.371  1.00  0.00     0.278 A 
HETATM    4  O   UNL     1      40.176 -15.747   1.991  1.00  0.00    -0.265 OA
HETATM    5  C   UNL     1      39.729 -13.494   2.678  1.00  0.00     0.146 A 
HETATM    6  C   UNL     1      40.546 -12.478   2.983  1.00  0.00     0.059 A 
ENDROOT
BRANCH   6   7
HETATM    7  C   UNL     1      40.182 -11.084   3.309  1.00  0.00     0.193 C 
HETATM    8  O   UNL     1      39.870 -10.290   2.427  1.00  0.00    -0.287 OA
BRANCH   7   9
HETATM    9  C   UNL     1      40.167 -10.629   4.709  1.00  0.00     0.015 A 
HETATM   10  C   UNL     1      40.995  -9.581   5.121  1.00  0.00     0.025 A 
HETATM   11  C   UNL     1      41.013  -9.190   6.468  1.00  0.00    -0.028 A 
HETATM   12  C   UNL     1      41.920  -8.077   6.914  1.00  0.00     0.051 C 
HETATM   13  C   UNL     1      40.214  -9.881   7.399  1.00  0.00     0.074 A 
HETATM   14  C   UNL     1      39.384 -10.924   6.973  1.00  0.00     0.038 A 
HETATM   15  C   UNL     1      39.372 -11.310   5.631  1.00  0.00     0.018 A 
BRANCH  13  16
HETATM   16  O   UNL     1      40.307  -9.452   8.695  1.00  0.00    -0.350 OA
BRANCH  16  17
HETATM   17  C   UNL     1      39.116  -8.937   9.295  1.00  0.00     0.179 C 
BRANCH  17  18
HETATM   18  C   UNL     1      39.230  -7.411   9.438  1.00  0.00     0.002 C 
HETATM   19  C   UNL     1      38.529  -6.700   8.278  1.00  0.00     0.011 C 
HETATM   20  C   UNL     1      38.657  -6.927  10.770  1.00  0.00     0.011 C 
ENDBRANCH  17  18
ENDBRANCH  16  17
ENDBRANCH  13  16
ENDBRANCH   7   9
ENDBRANCH   6   7
BRANCH   1  21
HETATM   21  C   UNL     1      42.821 -12.686   4.202  1.00  0.00    -0.028 A 
HETATM   22  C   UNL     1      43.755 -11.632   4.242  1.00  0.00     0.012 A 
HETATM   23  C   UNL     1      44.548 -11.422   5.367  1.00  0.00     0.040 A 
HETATM   24  C   UNL     1      44.399 -12.254   6.466  1.00  0.00     0.099 A 
HETATM   25  C   UNL     1      43.467 -13.294   6.469  1.00  0.00     0.102 A 
HETATM   26  C   UNL     1      42.700 -13.528   5.325  1.00  0.00     0.049 A 
BRANCH  24  27
HETATM   27  O   UNL     1      45.180 -12.016   7.563  1.00  0.00    -0.358 OA
HETATM   28  H   UNL     1      44.768 -11.253   8.015  1.00  0.00     0.218 HD
ENDBRANCH  24  27
BRANCH  25  29
HETATM   29  O   UNL     1      43.412 -14.024   7.628  1.00  0.00    -0.349 OA
BRANCH  29  30
HETATM   30  C   UNL     1      42.720 -15.271   7.549  1.00  0.00     0.171 C 
HETATM   31  C   UNL     1      43.756 -16.371   7.402  1.00  0.00     0.034 C 
ENDBRANCH  29  30
ENDBRANCH  25  29
ENDBRANCH   1  21
BRANCH   5  32
HETATM   32  O   UNL     1      38.371 -13.520   2.618  1.00  0.00    -0.355 OA
HETATM   33  H   UNL     1      38.107 -14.385   2.250  1.00  0.00     0.218 HD
ENDBRANCH   5  32
BRANCH   2  34
HETATM   34  C   UNL     1      43.025 -15.107   2.209  1.00  0.00     0.129 C 
BRANCH  34  35
HETATM   35  C   UNL     1      43.279 -16.312   3.119  1.00  0.00     0.048 C 
BRANCH  35  36
HETATM   36  C   UNL     1      42.993 -17.701   2.545  1.00  0.00     0.235 C 
BRANCH  36  37
HETATM   37  N   UNL     1      44.027 -18.746   2.893  1.00  0.00    -0.079 N 
HETATM   38  H   UNL     1      44.882 -18.501   2.352  1.00  0.00     0.278 HD
HETATM   39  C   UNL     1      44.376 -18.835   4.346  1.00  0.00     0.269 C 
HETATM   40  C   UNL     1      43.646 -20.098   2.348  1.00  0.00     0.269 C 
ENDBRANCH  36  37
ENDBRANCH  35  36
ENDBRANCH  34  35
ENDBRANCH   2  34
TORSDOF 14
ENDMDL
MODEL 7
REMARK VINA RESULT:      -6.9      3.196      7.489
REMARK  14 active torsions:
REMARK  status: ('A' for Active; 'I' for Inactive)
REMARK    1  A    between atoms: C_2  and  O_3 
REMARK    2  A    between atoms: O_3  and  C_4 
REMARK    3  A    between atoms: C_5  and  O_6 
REMARK    4  A    between atoms: C_9  and  C_10 
REMARK    5  A    between atoms: N_11  and  C_12 
REMARK    6  A    between atoms: C_12  and  C_13 
REMARK    7  A    between atoms: C_13  and  C_14 
REMARK    8  A    between atoms: C_14  and  N_15 
REMARK    9  A    between atoms: C_21  and  O_22 
REMARK   10  A    between atoms: C_23  and  C_24 
REMARK   11  A    between atoms: C_24  and  C_25 
REMARK   12  A    between atoms: C_29  and  O_30 
REMARK   13  A    between atoms: O_30  and  C_31 
REMARK   14  A    between atoms: C_31  and  C_32 
ROOT
HETATM    1  C   UNL     1      40.573 -10.811   3.292  1.00  0.00     0.161 A 
HETATM    2  N   UNL     1      39.293 -10.401   3.868  1.00  0.00    -0.333 N 
HETATM    3  C   UNL     1      39.306 -10.491   5.240  1.00  0.00     0.278 A 
HETATM    4  O   UNL     1      38.419 -10.147   6.006  1.00  0.00    -0.265 OA
HETATM    5  C   UNL     1      40.589 -11.096   5.639  1.00  0.00     0.146 A 
HETATM    6  C   UNL     1      41.314 -11.256   4.525  1.00  0.00     0.059 A 
ENDROOT
BRANCH   6   7
HETATM    7  C   UNL     1      42.694 -11.771   4.403  1.00  0.00     0.193 C 
HETATM    8  O   UNL     1      43.655 -11.011   4.424  1.00  0.00    -0.287 OA
BRANCH   7   9
HETATM    9  C   UNL     1      42.936 -13.218   4.273  1.00  0.00     0.015 A 
HETATM   10  C   UNL     1      43.070 -13.801   3.010  1.00  0.00     0.025 A 
HETATM   11  C   UNL     1      43.248 -15.188   2.895  1.00  0.00    -0.028 A 
HETATM   12  C   UNL     1      43.370 -15.818   1.535  1.00  0.00     0.051 C 
HETATM   13  C   UNL     1      43.261 -15.982   4.057  1.00  0.00     0.074 A 
HETATM   14  C   UNL     1      43.133 -15.385   5.316  1.00  0.00     0.038 A 
HETATM   15  C   UNL     1      42.954 -14.005   5.425  1.00  0.00     0.018 A 
BRANCH  13  16
HETATM   16  O   UNL     1      43.416 -17.327   3.856  1.00  0.00    -0.350 OA
BRANCH  16  17
HETATM   17  C   UNL     1      44.006 -18.078   4.919  1.00  0.00     0.179 C 
BRANCH  17  18
HETATM   18  C   UNL     1      44.407 -19.471   4.405  1.00  0.00     0.002 C 
HETATM   19  C   UNL     1      43.973 -20.562   5.387  1.00  0.00     0.011 C 
HETATM   20  C   UNL     1      43.820 -19.750   3.022  1.00  0.00     0.011 C 
ENDBRANCH  17  18
ENDBRANCH  16  17
ENDBRANCH  13  16
ENDBRANCH   7   9
ENDBRANCH   6   7
BRANCH   1  21
HETATM   21  C   UNL     1      40.371 -11.825   2.182  1.00  0.00    -0.028 A 
HETATM   22  C   UNL     1      39.740 -13.047   2.491  1.00  0.00     0.012 A 
HETATM   23  C   UNL     1      39.546 -14.019   1.512  1.00  0.00     0.040 A 
HETATM   24  C   UNL     1      39.965 -13.767   0.215  1.00  0.00     0.099 A 
HETATM   25  C   UNL     1      40.572 -12.557  -0.132  1.00  0.00     0.102 A 
HETATM   26  C   UNL     1      40.802 -11.600   0.859  1.00  0.00     0.049 A 
BRANCH  24  27
HETATM   27  O   UNL     1      39.748 -14.731  -0.729  1.00  0.00    -0.358 OA
HETATM   28  H   UNL     1      40.164 -14.394  -1.547  1.00  0.00     0.218 HD
ENDBRANCH  24  27
BRANCH  25  29
HETATM   29  O   UNL     1      40.917 -12.436  -1.452  1.00  0.00    -0.349 OA
BRANCH  29  30
HETATM   30  C   UNL     1      41.337 -11.136  -1.871  1.00  0.00     0.171 C 
HETATM   31  C   UNL     1      40.695 -10.852  -3.218  1.00  0.00     0.034 C 
ENDBRANCH  29  30
ENDBRANCH  25  29
ENDBRANCH   1  21
BRANCH   5  32
HETATM   32  O   UNL     1      40.913 -11.388   6.928  1.00  0.00    -0.355 OA
HETATM   33  H   UNL     1      41.450 -12.204   6.921  1.00  0.00     0.218 HD
ENDBRANCH   5  32
BRANCH   2  34
HETATM   34  C   UNL     1      38.288  -9.667   3.120  1.00  0.00     0.129 C 
BRANCH  34  35
HETATM   35  C   UNL     1      38.700  -8.239   2.749  1.00  0.00     0.048 C 
BRANCH  35  36
HETATM   36  C   UNL     1      38.417  -7.136   3.770  1.00  0.00     0.235 C 
BRANCH  36  37
HETATM   37  N   UNL     1      39.644  -6.606   4.474  1.00  0.00    -0.079 N 
HETATM   38  H   UNL     1      39.675  -5.585   4.276  1.00  0.00     0.278 HD
HETATM   39  C   UNL     1      39.667  -6.818   5.956  1.00  0.00     0.269 C 
HETATM   40  C   UNL     1      40.908  -7.124   3.837  1.00  0.00     0.269 C 
ENDBRANCH  36  37
ENDBRANCH  35  36
ENDBRANCH  34  35
ENDBRANCH   2  34
TORSDOF 14
ENDMDL
MODEL 8
REMARK VINA RESULT:      -6.9      2.613      4.821
REMARK  14 active torsions:
REMARK  status: ('A' for Active; 'I' for Inactive)
REMARK    1  A    between atoms: C_2  and  O_3 
REMARK    2  A    between atoms: O_3  and  C_4 
REMARK    3  A    between atoms: C_5  and  O_6 
REMARK    4  A    between atoms: C_9  and  C_10 
REMARK    5  A    between atoms: N_11  and  C_12 
REMARK    6  A    between atoms: C_12  and  C_13 
REMARK    7  A    between atoms: C_13  and  C_14 
REMARK    8  A    between atoms: C_14  and  N_15 
REMARK    9  A    between atoms: C_21  and  O_22 
REMARK   10  A    between atoms: C_23  and  C_24 
REMARK   11  A    between atoms: C_24  and  C_25 
REMARK   12  A    between atoms: C_29  and  O_30 
REMARK   13  A    between atoms: O_30  and  C_31 
REMARK   14  A    between atoms: C_31  and  C_32 
ROOT
HETATM    1  C   UNL     1      41.956 -11.911   5.363  1.00  0.00     0.161 A 
HETATM    2  N   UNL     1      41.540 -13.277   5.681  1.00  0.00    -0.333 N 
HETATM    3  C   UNL     1      40.293 -13.302   6.258  1.00  0.00     0.278 A 
HETATM    4  O   UNL     1      39.646 -14.292   6.562  1.00  0.00    -0.265 OA
HETATM    5  C   UNL     1      39.864 -11.907   6.466  1.00  0.00     0.146 A 
HETATM    6  C   UNL     1      40.808 -11.121   5.934  1.00  0.00     0.059 A 
ENDROOT
BRANCH   6   7
HETATM    7  C   UNL     1      40.817  -9.646   5.838  1.00  0.00     0.193 C 
HETATM    8  O   UNL     1      40.670  -9.084   4.758  1.00  0.00    -0.287 OA
BRANCH   7   9
HETATM    9  C   UNL     1      40.982  -8.825   7.049  1.00  0.00     0.015 A 
HETATM   10  C   UNL     1      39.884  -8.545   7.867  1.00  0.00     0.025 A 
HETATM   11  C   UNL     1      40.040  -7.718   8.990  1.00  0.00    -0.028 A 
HETATM   12  C   UNL     1      38.854  -7.399   9.857  1.00  0.00     0.051 C 
HETATM   13  C   UNL     1      41.301  -7.154   9.263  1.00  0.00     0.074 A 
HETATM   14  C   UNL     1      42.393  -7.449   8.440  1.00  0.00     0.038 A 
HETATM   15  C   UNL     1      42.232  -8.271   7.323  1.00  0.00     0.018 A 
BRANCH  13  16
HETATM   16  O   UNL     1      41.363  -6.342  10.362  1.00  0.00    -0.350 OA
BRANCH  16  17
HETATM   17  C   UNL     1      42.453  -6.551  11.263  1.00  0.00     0.179 C 
BRANCH  17  18
HETATM   18  C   UNL     1      41.992  -7.435  12.433  1.00  0.00     0.002 C 
HETATM   19  C   UNL     1      43.073  -7.520  13.513  1.00  0.00     0.011 C 
HETATM   20  C   UNL     1      40.685  -6.926  13.042  1.00  0.00     0.011 C 
ENDBRANCH  17  18
ENDBRANCH  16  17
ENDBRANCH  13  16
ENDBRANCH   7   9
ENDBRANCH   6   7
BRANCH   1  21
HETATM   21  C   UNL     1      43.347 -11.627   5.897  1.00  0.00    -0.028 A 
HETATM   22  C   UNL     1      44.411 -11.511   4.980  1.00  0.00     0.012 A 
HETATM   23  C   UNL     1      45.710 -11.268   5.419  1.00  0.00     0.040 A 
HETATM   24  C   UNL     1      45.950 -11.122   6.777  1.00  0.00     0.099 A 
HETATM   25  C   UNL     1      44.916 -11.208   7.712  1.00  0.00     0.102 A 
HETATM   26  C   UNL     1      43.620 -11.491   7.273  1.00  0.00     0.049 A 
BRANCH  24  27
HETATM   27  O   UNL     1      47.232 -10.868   7.179  1.00  0.00    -0.358 OA
HETATM   28  H   UNL     1      47.620 -11.742   7.381  1.00  0.00     0.218 HD
ENDBRANCH  24  27
BRANCH  25  29
HETATM   29  O   UNL     1      45.293 -11.024   9.016  1.00  0.00    -0.349 OA
BRANCH  29  30
HETATM   30  C   UNL     1      45.046  -9.727   9.561  1.00  0.00     0.171 C 
HETATM   31  C   UNL     1      44.271  -9.905  10.855  1.00  0.00     0.034 C 
ENDBRANCH  29  30
ENDBRANCH  25  29
ENDBRANCH   1  21
BRANCH   5  32
HETATM   32  O   UNL     1      38.698 -11.563   7.075  1.00  0.00    -0.355 OA
HETATM   33  H   UNL     1      38.874 -10.780   7.631  1.00  0.00     0.218 HD
ENDBRANCH   5  32
BRANCH   2  34
HETATM   34  C   UNL     1      42.198 -14.451   5.135  1.00  0.00     0.129 C 
BRANCH  34  35
HETATM   35  C   UNL     1      41.846 -14.744   3.674  1.00  0.00     0.048 C 
BRANCH  35  36
HETATM   36  C   UNL     1      40.615 -15.612   3.405  1.00  0.00     0.235 C 
BRANCH  36  37
HETATM   37  N   UNL     1      39.610 -14.995   2.462  1.00  0.00    -0.079 N 
HETATM   38  H   UNL     1      38.713 -15.497   2.624  1.00  0.00     0.278 HD
HETATM   39  C   UNL     1      39.388 -13.525   2.643  1.00  0.00     0.269 C 
HETATM   40  C   UNL     1      39.935 -15.316   1.026  1.00  0.00     0.269 C 
ENDBRANCH  36  37
ENDBRANCH  35  36
ENDBRANCH  34  35
ENDBRANCH   2  34
TORSDOF 14
ENDMDL
MODEL 9
REMARK VINA RESULT:      -6.8      3.357      9.031
REMARK  14 active torsions:
REMARK  status: ('A' for Active; 'I' for Inactive)
REMARK    1  A    between atoms: C_2  and  O_3 
REMARK    2  A    between atoms: O_3  and  C_4 
REMARK    3  A    between atoms: C_5  and  O_6 
REMARK    4  A    between atoms: C_9  and  C_10 
REMARK    5  A    between atoms: N_11  and  C_12 
REMARK    6  A    between atoms: C_12  and  C_13 
REMARK    7  A    between atoms: C_13  and  C_14 
REMARK    8  A    between atoms: C_14  and  N_15 
REMARK    9  A    between atoms: C_21  and  O_22 
REMARK   10  A    between atoms: C_23  and  C_24 
REMARK   11  A    between atoms: C_24  and  C_25 
REMARK   12  A    between atoms: C_29  and  O_30 
REMARK   13  A    between atoms: O_30  and  C_31 
REMARK   14  A    between atoms: C_31  and  C_32 
ROOT
HETATM    1  C   UNL     1      42.685  -8.789   8.699  1.00  0.00     0.161 A 
HETATM    2  N   UNL     1      41.909  -8.668   9.932  1.00  0.00    -0.333 N 
HETATM    3  C   UNL     1      42.286  -9.611  10.859  1.00  0.00     0.278 A 
HETATM    4  O   UNL     1      41.879  -9.714  12.006  1.00  0.00    -0.265 OA
HETATM    5  C   UNL     1      43.271 -10.501  10.220  1.00  0.00     0.146 A 
HETATM    6  C   UNL     1      43.509 -10.013   8.997  1.00  0.00     0.059 A 
ENDROOT
BRANCH   6   7
HETATM    7  C   UNL     1      44.463 -10.516   7.986  1.00  0.00     0.193 C 
HETATM    8  O   UNL     1      45.630 -10.141   7.978  1.00  0.00    -0.287 OA
BRANCH   7   9
HETATM    9  C   UNL     1      44.027 -11.499   6.979  1.00  0.00     0.015 A 
HETATM   10  C   UNL     1      43.828 -11.110   5.652  1.00  0.00     0.025 A 
HETATM   11  C   UNL     1      43.362 -12.040   4.712  1.00  0.00    -0.028 A 
HETATM   12  C   UNL     1      43.128 -11.616   3.288  1.00  0.00     0.051 C 
HETATM   13  C   UNL     1      43.070 -13.354   5.125  1.00  0.00     0.074 A 
HETATM   14  C   UNL     1      43.279 -13.732   6.456  1.00  0.00     0.038 A 
HETATM   15  C   UNL     1      43.742 -12.802   7.388  1.00  0.00     0.018 A 
BRANCH  13  16
HETATM   16  O   UNL     1      42.598 -14.192   4.152  1.00  0.00    -0.350 OA
BRANCH  16  17
HETATM   17  C   UNL     1      43.099 -15.531   4.149  1.00  0.00     0.179 C 
BRANCH  17  18
HETATM   18  C   UNL     1      42.343 -16.362   3.100  1.00  0.00     0.002 C 
HETATM   19  C   UNL     1      40.953 -15.778   2.838  1.00  0.00     0.011 C 
HETATM   20  C   UNL     1      43.125 -16.457   1.790  1.00  0.00     0.011 C 
ENDBRANCH  17  18
ENDBRANCH  16  17
ENDBRANCH  13  16
ENDBRANCH   7   9
ENDBRANCH   6   7
BRANCH   1  21
HETATM   21  C   UNL     1      41.777  -8.824   7.484  1.00  0.00    -0.028 A 
HETATM   22  C   UNL     1      41.894  -7.799   6.524  1.00  0.00     0.012 A 
HETATM   23  C   UNL     1      41.073  -7.775   5.400  1.00  0.00     0.040 A 
HETATM   24  C   UNL     1      40.141  -8.785   5.220  1.00  0.00     0.099 A 
HETATM   25  C   UNL     1      40.013  -9.829   6.140  1.00  0.00     0.102 A 
HETATM   26  C   UNL     1      40.811  -9.830   7.287  1.00  0.00     0.049 A 
BRANCH  24  27
HETATM   27  O   UNL     1      39.358  -8.746   4.100  1.00  0.00    -0.358 OA
HETATM   28  H   UNL     1      38.442  -8.648   4.426  1.00  0.00     0.218 HD
ENDBRANCH  24  27
BRANCH  25  29
HETATM   29  O   UNL     1      39.067 -10.769   5.827  1.00  0.00    -0.349 OA
BRANCH  29  30
HETATM   30  C   UNL     1      39.533 -12.116   5.726  1.00  0.00     0.171 C 
HETATM   31  C   UNL     1      39.525 -12.502   4.258  1.00  0.00     0.034 C 
ENDBRANCH  29  30
ENDBRANCH  25  29
ENDBRANCH   1  21
BRANCH   5  32
HETATM   32  O   UNL     1      43.811 -11.587  10.836  1.00  0.00    -0.355 OA
HETATM   33  H   UNL     1      44.428 -12.008  10.207  1.00  0.00     0.218 HD
ENDBRANCH   5  32
BRANCH   2  34
HETATM   34  C   UNL     1      41.114  -7.496  10.254  1.00  0.00     0.129 C 
BRANCH  34  35
HETATM   35  C   UNL     1      41.928  -6.313  10.786  1.00  0.00     0.048 C 
BRANCH  35  36
HETATM   36  C   UNL     1      41.694  -5.892  12.238  1.00  0.00     0.235 C 
BRANCH  36  37
HETATM   37  N   UNL     1      41.773  -7.022  13.236  1.00  0.00    -0.079 N 
HETATM   38  H   UNL     1      41.714  -7.902  12.685  1.00  0.00     0.278 HD
HETATM   39  C   UNL     1      43.018  -7.049  14.069  1.00  0.00     0.269 C 
HETATM   40  C   UNL     1      40.544  -7.072  14.107  1.00  0.00     0.269 C 
ENDBRANCH  36  37
ENDBRANCH  35  36
ENDBRANCH  34  35
ENDBRANCH   2  34
TORSDOF 14
ENDMDL
MODEL 10
REMARK VINA RESULT:      -6.8      3.388      7.640
REMARK  14 active torsions:
REMARK  status: ('A' for Active; 'I' for Inactive)
REMARK    1  A    between atoms: C_2  and  O_3 
REMARK    2  A    between atoms: O_3  and  C_4 
REMARK    3  A    between atoms: C_5  and  O_6 
REMARK    4  A    between atoms: C_9  and  C_10 
REMARK    5  A    between atoms: N_11  and  C_12 
REMARK    6  A    between atoms: C_12  and  C_13 
REMARK    7  A    between atoms: C_13  and  C_14 
REMARK    8  A    between atoms: C_14  and  N_15 
REMARK    9  A    between atoms: C_21  and  O_22 
REMARK   10  A    between atoms: C_23  and  C_24 
REMARK   11  A    between atoms: C_24  and  C_25 
REMARK   12  A    between atoms: C_29  and  O_30 
REMARK   13  A    between atoms: O_30  and  C_31 
REMARK   14  A    between atoms: C_31  and  C_32 
ROOT
HETATM    1  C   UNL     1      41.348 -10.804   2.360  1.00  0.00     0.161 A 
HETATM    2  N   UNL     1      40.264 -10.037   2.974  1.00  0.00    -0.333 N 
HETATM    3  C   UNL     1      40.404  -9.973   4.340  1.00  0.00     0.278 A 
HETATM    4  O   UNL     1      39.705  -9.343   5.119  1.00  0.00    -0.265 OA
HETATM    5  C   UNL     1      41.551 -10.819   4.716  1.00  0.00     0.146 A 
HETATM    6  C   UNL     1      42.096 -11.271   3.580  1.00  0.00     0.059 A 
ENDROOT
BRANCH   6   7
HETATM    7  C   UNL     1      43.302 -12.112   3.421  1.00  0.00     0.193 C 
HETATM    8  O   UNL     1      44.421 -11.611   3.395  1.00  0.00    -0.287 OA
BRANCH   7   9
HETATM    9  C   UNL     1      43.176 -13.575   3.311  1.00  0.00     0.015 A 
HETATM   10  C   UNL     1      42.851 -14.342   4.434  1.00  0.00     0.025 A 
HETATM   11  C   UNL     1      42.786 -15.739   4.331  1.00  0.00    -0.028 A 
HETATM   12  C   UNL     1      42.457 -16.565   5.544  1.00  0.00     0.051 C 
HETATM   13  C   UNL     1      43.080 -16.357   3.101  1.00  0.00     0.074 A 
HETATM   14  C   UNL     1      43.397 -15.577   1.983  1.00  0.00     0.038 A 
HETATM   15  C   UNL     1      43.462 -14.187   2.091  1.00  0.00     0.018 A 
BRANCH  13  16
HETATM   16  O   UNL     1      43.016 -17.724   3.092  1.00  0.00    -0.350 OA
BRANCH  16  17
HETATM   17  C   UNL     1      44.252 -18.430   2.965  1.00  0.00     0.179 C 
BRANCH  17  18
HETATM   18  C   UNL     1      43.970 -19.924   2.738  1.00  0.00     0.002 C 
HETATM   19  C   UNL     1      43.827 -20.663   4.070  1.00  0.00     0.011 C 
HETATM   20  C   UNL     1      42.719 -20.137   1.885  1.00  0.00     0.011 C 
ENDBRANCH  17  18
ENDBRANCH  16  17
ENDBRANCH  13  16
ENDBRANCH   7   9
ENDBRANCH   6   7
BRANCH   1  21
HETATM   21  C   UNL     1      40.803 -11.858   1.415  1.00  0.00    -0.028 A 
HETATM   22  C   UNL     1      40.043 -12.917   1.952  1.00  0.00     0.012 A 
HETATM   23  C   UNL     1      39.534 -13.920   1.131  1.00  0.00     0.040 A 
HETATM   24  C   UNL     1      39.767 -13.861  -0.234  1.00  0.00     0.099 A 
HETATM   25  C   UNL     1      40.496 -12.813  -0.803  1.00  0.00     0.102 A 
HETATM   26  C   UNL     1      41.039 -11.829   0.027  1.00  0.00     0.049 A 
BRANCH  24  27
HETATM   27  O   UNL     1      39.243 -14.849  -1.019  1.00  0.00    -0.358 OA
HETATM   28  H   UNL     1      39.423 -15.683  -0.542  1.00  0.00     0.218 HD
ENDBRANCH  24  27
BRANCH  25  29
HETATM   29  O   UNL     1      40.632 -12.871  -2.166  1.00  0.00    -0.349 OA
BRANCH  29  30
HETATM   30  C   UNL     1      39.834 -11.952  -2.913  1.00  0.00     0.171 C 
HETATM   31  C   UNL     1      40.729 -10.805  -3.347  1.00  0.00     0.034 C 
ENDBRANCH  29  30
ENDBRANCH  25  29
ENDBRANCH   1  21
BRANCH   5  32
HETATM   32  O   UNL     1      41.936 -11.033   6.003  1.00  0.00    -0.355 OA
HETATM   33  H   UNL     1      42.903 -10.906   6.048  1.00  0.00     0.218 HD
ENDBRANCH   5  32
BRANCH   2  34
HETATM   34  C   UNL     1      39.378  -9.174   2.214  1.00  0.00     0.129 C 
BRANCH  34  35
HETATM   35  C   UNL     1      40.099  -8.090   1.406  1.00  0.00     0.048 C 
BRANCH  35  36
HETATM   36  C   UNL     1      40.041  -8.193  -0.119  1.00  0.00     0.235 C 
BRANCH  36  37
HETATM   37  N   UNL     1      41.185  -7.514  -0.835  1.00  0.00    -0.079 N 
HETATM   38  H   UNL     1      40.873  -7.377  -1.818  1.00  0.00     0.278 HD
HETATM   39  C   UNL     1      41.596  -6.193  -0.263  1.00  0.00     0.269 C 
HETATM   40  C   UNL     1      42.371  -8.434  -0.970  1.00  0.00     0.269 C 
ENDBRANCH  36  37
ENDBRANCH  35  36
ENDBRANCH  34  35
ENDBRANCH   2  34
TORSDOF 14
ENDMDL
