MODEL 1
REMARK VINA RESULT:      -9.4      0.000      0.000
REMARK  5 active torsions:
REMARK  status: ('A' for Active; 'I' for Inactive)
REMARK    1  A    between atoms: C_3  and  O_4 
REMARK    2  A    between atoms: C_6  and  N_7 
REMARK       I    between atoms: N_7  and  C_8 
REMARK    3  A    between atoms: C_8  and  C_9 
REMARK    4  A    between atoms: C_14  and  C_15 
REMARK    5  A    between atoms: C_23  and  C_24 
ROOT
HETATM    1  C   UNL     1      42.451 -13.772   5.432  1.00  0.00     0.148 A 
HETATM    2  N   UNL     1      42.924 -14.737   4.610  1.00  0.00    -0.165 NA
HETATM    3  N   UNL     1      41.899 -14.972   3.769  1.00  0.00    -0.240 N 
HETATM    4  C   UNL     1      40.821 -14.155   3.981  1.00  0.00     0.123 A 
HETATM    5  N   UNL     1      39.736 -14.185   3.176  1.00  0.00    -0.366 N 
HETATM    6  C   UNL     1      39.742 -14.929   1.920  1.00  0.00     0.118 C 
HETATM    7  C   UNL     1      40.628 -16.176   2.042  1.00  0.00     0.066 C 
HETATM    8  C   UNL     1      42.018 -15.867   2.631  1.00  0.00     0.221 C 
HETATM    9  C   UNL     1      41.135 -13.384   5.068  1.00  0.00     0.089 A 
HETATM   10  H   UNL     1      39.038 -13.446   3.233  1.00  0.00     0.161 HD
ENDROOT
BRANCH   1  11
HETATM   11  C   UNL     1      43.255 -13.221   6.539  1.00  0.00     0.276 C 
HETATM   12  N   UNL     1      43.552 -11.886   6.345  1.00  0.00    -0.322 N 
HETATM   13  H   UNL     1      43.190 -11.516   5.469  1.00  0.00     0.169 HD
HETATM   14  O   UNL     1      43.597 -13.921   7.485  1.00  0.00    -0.266 OA
BRANCH  12  15
HETATM   15  C   UNL     1      44.295 -11.028   7.173  1.00  0.00     0.037 A 
HETATM   16  C   UNL     1      45.644 -10.730   6.977  1.00  0.00     0.066 A 
HETATM   17  C   UNL     1      46.302  -9.866   7.852  1.00  0.00     0.067 A 
HETATM   18  C   UNL     1      45.634  -9.282   8.923  1.00  0.00     0.036 A 
HETATM   19  C   UNL     1      44.288  -9.576   9.125  1.00  0.00     0.005 A 
HETATM   20  C   UNL     1      43.624 -10.447   8.257  1.00  0.00     0.029 A 
BRANCH  17  21
HETATM   21  O   UNL     1      47.624  -9.614   7.623  1.00  0.00    -0.361 OA
HETATM   22  H   UNL     1      48.152 -10.318   8.031  1.00  0.00     0.217 HD
ENDBRANCH  17  21
ENDBRANCH  12  15
ENDBRANCH   1  11
BRANCH   8  23
HETATM   23  C   UNL     1      42.708 -17.162   3.002  1.00  0.00     0.409 C 
HETATM   24  F   UNL     1      42.538 -17.483   4.305  1.00  0.00    -0.169 F 
HETATM   25  F   UNL     1      42.181 -18.186   2.279  1.00  0.00    -0.169 F 
HETATM   26  F   UNL     1      44.032 -17.162   2.737  1.00  0.00    -0.169 F 
ENDBRANCH   8  23
BRANCH   6  27
HETATM   27  C   UNL     1      40.083 -14.054   0.722  1.00  0.00    -0.035 A 
HETATM   28  C   UNL     1      40.635 -12.766   0.845  1.00  0.00     0.012 A 
HETATM   29  C   UNL     1      40.918 -11.997  -0.288  1.00  0.00     0.043 A 
HETATM   30  C   UNL     1      40.654 -12.510  -1.550  1.00  0.00     0.116 A 
HETATM   31  F   UNL     1      40.918 -11.770  -2.634  1.00  0.00    -0.206 F 
HETATM   32  C   UNL     1      40.120 -13.782  -1.703  1.00  0.00     0.043 A 
HETATM   33  C   UNL     1      39.838 -14.552  -0.572  1.00  0.00     0.012 A 
ENDBRANCH   6  27
TORSDOF 5
ENDMDL
MODEL 2
REMARK VINA RESULT:      -9.0      3.888      8.303
REMARK  5 active torsions:
REMARK  status: ('A' for Active; 'I' for Inactive)
REMARK    1  A    between atoms: C_3  and  O_4 
REMARK    2  A    between atoms: C_6  and  N_7 
REMARK       I    between atoms: N_7  and  C_8 
REMARK    3  A    between atoms: C_8  and  C_9 
REMARK    4  A    between atoms: C_14  and  C_15 
REMARK    5  A    between atoms: C_23  and  C_24 
ROOT
HETATM    1  C   UNL     1      42.854 -14.684   4.053  1.00  0.00     0.148 A 
HETATM    2  N   UNL     1      42.815 -13.489   3.420  1.00  0.00    -0.165 NA
HETATM    3  N   UNL     1      42.475 -12.622   4.392  1.00  0.00    -0.240 N 
HETATM    4  C   UNL     1      42.360 -13.204   5.626  1.00  0.00     0.123 A 
HETATM    5  N   UNL     1      42.114 -12.474   6.737  1.00  0.00    -0.366 N 
HETATM    6  C   UNL     1      42.172 -11.016   6.716  1.00  0.00     0.118 C 
HETATM    7  C   UNL     1      41.728 -10.483   5.347  1.00  0.00     0.066 C 
HETATM    8  C   UNL     1      42.435 -11.187   4.173  1.00  0.00     0.221 C 
HETATM    9  C   UNL     1      42.573 -14.543   5.437  1.00  0.00     0.089 A 
HETATM   10  H   UNL     1      42.223 -12.895   7.658  1.00  0.00     0.161 HD
ENDROOT
BRANCH   1  11
HETATM   11  C   UNL     1      43.173 -15.938   3.345  1.00  0.00     0.276 C 
HETATM   12  N   UNL     1      43.194 -17.022   4.201  1.00  0.00    -0.322 N 
HETATM   13  H   UNL     1      43.010 -16.774   5.170  1.00  0.00     0.169 HD
HETATM   14  O   UNL     1      43.395 -15.947   2.139  1.00  0.00    -0.266 OA
BRANCH  12  15
HETATM   15  C   UNL     1      43.461 -18.368   3.898  1.00  0.00     0.037 A 
HETATM   16  C   UNL     1      43.252 -18.942   2.643  1.00  0.00     0.066 A 
HETATM   17  C   UNL     1      43.545 -20.289   2.435  1.00  0.00     0.067 A 
HETATM   18  C   UNL     1      44.051 -21.082   3.460  1.00  0.00     0.036 A 
HETATM   19  C   UNL     1      44.260 -20.516   4.715  1.00  0.00     0.005 A 
HETATM   20  C   UNL     1      43.962 -19.168   4.934  1.00  0.00     0.029 A 
BRANCH  17  21
HETATM   21  O   UNL     1      43.316 -20.805   1.192  1.00  0.00    -0.361 OA
HETATM   22  H   UNL     1      44.099 -21.304   0.911  1.00  0.00     0.217 HD
ENDBRANCH  17  21
ENDBRANCH  12  15
ENDBRANCH   1  11
BRANCH   8  23
HETATM   23  C   UNL     1      41.737 -10.833   2.878  1.00  0.00     0.409 C 
HETATM   24  F   UNL     1      40.656 -11.612   2.644  1.00  0.00    -0.169 F 
HETATM   25  F   UNL     1      41.284  -9.552   2.936  1.00  0.00    -0.169 F 
HETATM   26  F   UNL     1      42.542 -10.895   1.797  1.00  0.00    -0.169 F 
ENDBRANCH   8  23
BRANCH   6  27
HETATM   27  C   UNL     1      43.521 -10.477   7.172  1.00  0.00    -0.035 A 
HETATM   28  C   UNL     1      43.665  -9.281   7.899  1.00  0.00     0.012 A 
HETATM   29  C   UNL     1      44.929  -8.824   8.282  1.00  0.00     0.043 A 
HETATM   30  C   UNL     1      46.057  -9.559   7.945  1.00  0.00     0.116 A 
HETATM   31  F   UNL     1      47.268  -9.115   8.306  1.00  0.00    -0.206 F 
HETATM   32  C   UNL     1      45.946 -10.748   7.238  1.00  0.00     0.043 A 
HETATM   33  C   UNL     1      44.683 -11.207   6.855  1.00  0.00     0.012 A 
ENDBRANCH   6  27
TORSDOF 5
ENDMDL
MODEL 3
REMARK VINA RESULT:      -8.8      5.212      6.721
REMARK  5 active torsions:
REMARK  status: ('A' for Active; 'I' for Inactive)
REMARK    1  A    between atoms: C_3  and  O_4 
REMARK    2  A    between atoms: C_6  and  N_7 
REMARK       I    between atoms: N_7  and  C_8 
REMARK    3  A    between atoms: C_8  and  C_9 
REMARK    4  A    between atoms: C_14  and  C_15 
REMARK    5  A    between atoms: C_23  and  C_24 
ROOT
HETATM    1  C   UNL     1      40.277 -14.759   1.853  1.00  0.00     0.148 A 
HETATM    2  N   UNL     1      40.215 -14.902   0.509  1.00  0.00    -0.165 NA
HETATM    3  N   UNL     1      39.647 -13.756   0.090  1.00  0.00    -0.240 N 
HETATM    4  C   UNL     1      39.405 -12.865   1.102  1.00  0.00     0.123 A 
HETATM    5  N   UNL     1      38.922 -11.626   0.859  1.00  0.00    -0.366 N 
HETATM    6  C   UNL     1      38.838 -11.096  -0.498  1.00  0.00     0.118 C 
HETATM    7  C   UNL     1      38.556 -12.227  -1.496  1.00  0.00     0.066 C 
HETATM    8  C   UNL     1      39.499 -13.432  -1.318  1.00  0.00     0.221 C 
HETATM    9  C   UNL     1      39.776 -13.494   2.260  1.00  0.00     0.089 A 
HETATM   10  H   UNL     1      38.932 -10.922   1.595  1.00  0.00     0.161 HD
ENDROOT
BRANCH   1  11
HETATM   11  C   UNL     1      40.822 -15.812   2.731  1.00  0.00     0.276 C 
HETATM   12  N   UNL     1      41.973 -16.370   2.210  1.00  0.00    -0.322 N 
HETATM   13  H   UNL     1      42.237 -15.982   1.308  1.00  0.00     0.169 HD
HETATM   14  O   UNL     1      40.264 -16.116   3.779  1.00  0.00    -0.266 OA
BRANCH  12  15
HETATM   15  C   UNL     1      42.768 -17.395   2.752  1.00  0.00     0.037 A 
HETATM   16  C   UNL     1      42.905 -18.661   2.181  1.00  0.00     0.066 A 
HETATM   17  C   UNL     1      43.716 -19.617   2.791  1.00  0.00     0.067 A 
HETATM   18  C   UNL     1      44.405 -19.332   3.964  1.00  0.00     0.036 A 
HETATM   19  C   UNL     1      44.273 -18.071   4.540  1.00  0.00     0.005 A 
HETATM   20  C   UNL     1      43.455 -17.110   3.940  1.00  0.00     0.029 A 
BRANCH  17  21
HETATM   21  O   UNL     1      43.810 -20.843   2.197  1.00  0.00    -0.361 OA
HETATM   22  H   UNL     1      42.998 -21.341   2.379  1.00  0.00     0.217 HD
ENDBRANCH  17  21
ENDBRANCH  12  15
ENDBRANCH   1  11
BRANCH   8  23
HETATM   23  C   UNL     1      38.973 -14.607  -2.114  1.00  0.00     0.409 C 
HETATM   24  F   UNL     1      37.746 -14.371  -2.634  1.00  0.00    -0.169 F 
HETATM   25  F   UNL     1      39.798 -14.853  -3.168  1.00  0.00    -0.169 F 
HETATM   26  F   UNL     1      38.917 -15.755  -1.407  1.00  0.00    -0.169 F 
ENDBRANCH   8  23
BRANCH   6  27
HETATM   27  C   UNL     1      40.042 -10.242  -0.868  1.00  0.00    -0.035 A 
HETATM   28  C   UNL     1      40.968  -9.768   0.078  1.00  0.00     0.012 A 
HETATM   29  C   UNL     1      42.050  -8.974  -0.314  1.00  0.00     0.043 A 
HETATM   30  C   UNL     1      42.216  -8.652  -1.653  1.00  0.00     0.116 A 
HETATM   31  F   UNL     1      43.249  -7.885  -2.026  1.00  0.00    -0.206 F 
HETATM   32  C   UNL     1      41.325  -9.113  -2.612  1.00  0.00     0.043 A 
HETATM   33  C   UNL     1      40.243  -9.907  -2.222  1.00  0.00     0.012 A 
ENDBRANCH   6  27
TORSDOF 5
ENDMDL
MODEL 4
REMARK VINA RESULT:      -8.7      4.486      9.428
REMARK  5 active torsions:
REMARK  status: ('A' for Active; 'I' for Inactive)
REMARK    1  A    between atoms: C_3  and  O_4 
REMARK    2  A    between atoms: C_6  and  N_7 
REMARK       I    between atoms: N_7  and  C_8 
REMARK    3  A    between atoms: C_8  and  C_9 
REMARK    4  A    between atoms: C_14  and  C_15 
REMARK    5  A    between atoms: C_23  and  C_24 
ROOT
HETATM    1  C   UNL     1      42.261 -11.668   6.193  1.00  0.00     0.148 A 
HETATM    2  N   UNL     1      43.477 -11.553   6.776  1.00  0.00    -0.165 NA
HETATM    3  N   UNL     1      43.417 -10.368   7.412  1.00  0.00    -0.240 N 
HETATM    4  C   UNL     1      42.196  -9.756   7.312  1.00  0.00     0.123 A 
HETATM    5  N   UNL     1      41.923  -8.602   7.961  1.00  0.00    -0.366 N 
HETATM    6  C   UNL     1      42.832  -8.065   8.969  1.00  0.00     0.118 C 
HETATM    7  C   UNL     1      44.285  -8.407   8.615  1.00  0.00     0.066 C 
HETATM    8  C   UNL     1      44.484  -9.897   8.278  1.00  0.00     0.221 C 
HETATM    9  C   UNL     1      41.433 -10.559   6.507  1.00  0.00     0.089 A 
HETATM   10  H   UNL     1      40.962  -8.271   8.029  1.00  0.00     0.161 HD
ENDROOT
BRANCH   1  11
HETATM   11  C   UNL     1      41.895 -12.831   5.362  1.00  0.00     0.276 C 
HETATM   12  N   UNL     1      42.998 -13.590   5.025  1.00  0.00    -0.322 N 
HETATM   13  H   UNL     1      43.873 -13.212   5.383  1.00  0.00     0.169 HD
HETATM   14  O   UNL     1      40.732 -13.035   5.035  1.00  0.00    -0.266 OA
BRANCH  12  15
HETATM   15  C   UNL     1      43.048 -14.760   4.248  1.00  0.00     0.037 A 
HETATM   16  C   UNL     1      43.083 -14.768   2.853  1.00  0.00     0.066 A 
HETATM   17  C   UNL     1      43.130 -15.980   2.164  1.00  0.00     0.067 A 
HETATM   18  C   UNL     1      43.152 -17.193   2.844  1.00  0.00     0.036 A 
HETATM   19  C   UNL     1      43.117 -17.191   4.236  1.00  0.00     0.005 A 
HETATM   20  C   UNL     1      43.060 -15.982   4.934  1.00  0.00     0.029 A 
BRANCH  17  21
HETATM   21  O   UNL     1      43.154 -15.935   0.800  1.00  0.00    -0.361 OA
HETATM   22  H   UNL     1      44.076 -15.859   0.506  1.00  0.00     0.217 HD
ENDBRANCH  17  21
ENDBRANCH  12  15
ENDBRANCH   1  11
BRANCH   8  23
HETATM   23  C   UNL     1      45.848 -10.096   7.653  1.00  0.00     0.409 C 
HETATM   24  F   UNL     1      46.643  -9.010   7.791  1.00  0.00    -0.169 F 
HETATM   25  F   UNL     1      46.489 -11.126   8.268  1.00  0.00    -0.169 F 
HETATM   26  F   UNL     1      45.798 -10.417   6.343  1.00  0.00    -0.169 F 
ENDBRANCH   8  23
BRANCH   6  27
HETATM   27  C   UNL     1      42.439  -8.463  10.384  1.00  0.00    -0.035 A 
HETATM   28  C   UNL     1      41.233  -9.118  10.691  1.00  0.00     0.012 A 
HETATM   29  C   UNL     1      40.913  -9.450  12.011  1.00  0.00     0.043 A 
HETATM   30  C   UNL     1      41.798  -9.133  13.032  1.00  0.00     0.116 A 
HETATM   31  F   UNL     1      41.487  -9.444  14.297  1.00  0.00    -0.206 F 
HETATM   32  C   UNL     1      43.000  -8.496  12.760  1.00  0.00     0.043 A 
HETATM   33  C   UNL     1      43.321  -8.165  11.441  1.00  0.00     0.012 A 
ENDBRANCH   6  27
TORSDOF 5
ENDMDL
MODEL 5
REMARK VINA RESULT:      -8.5      4.800      8.551
REMARK  5 active torsions:
REMARK  status: ('A' for Active; 'I' for Inactive)
REMARK    1  A    between atoms: C_3  and  O_4 
REMARK    2  A    between atoms: C_6  and  N_7 
REMARK       I    between atoms: N_7  and  C_8 
REMARK    3  A    between atoms: C_8  and  C_9 
REMARK    4  A    between atoms: C_14  and  C_15 
REMARK    5  A    between atoms: C_23  and  C_24 
ROOT
HETATM    1  C   UNL     1      40.355 -13.122  -0.594  1.00  0.00     0.148 A 
HETATM    2  N   UNL     1      40.966 -12.557   0.473  1.00  0.00    -0.165 NA
HETATM    3  N   UNL     1      40.692 -13.402   1.484  1.00  0.00    -0.240 N 
HETATM    4  C   UNL     1      39.988 -14.510   1.093  1.00  0.00     0.123 A 
HETATM    5  N   UNL     1      39.701 -15.511   1.955  1.00  0.00    -0.366 N 
HETATM    6  C   UNL     1      40.306 -15.568   3.282  1.00  0.00     0.118 C 
HETATM    7  C   UNL     1      40.545 -14.152   3.821  1.00  0.00     0.066 C 
HETATM    8  C   UNL     1      41.264 -13.240   2.809  1.00  0.00     0.221 C 
HETATM    9  C   UNL     1      39.730 -14.347  -0.241  1.00  0.00     0.089 A 
HETATM   10  H   UNL     1      39.351 -16.401   1.604  1.00  0.00     0.161 HD
ENDROOT
BRANCH   1  11
HETATM   11  C   UNL     1      40.383 -12.504  -1.933  1.00  0.00     0.276 C 
HETATM   12  N   UNL     1      40.018 -11.172  -1.893  1.00  0.00    -0.322 N 
HETATM   13  H   UNL     1      39.772 -10.849  -0.960  1.00  0.00     0.169 HD
HETATM   14  O   UNL     1      40.690 -13.153  -2.926  1.00  0.00    -0.266 OA
BRANCH  12  15
HETATM   15  C   UNL     1      39.923 -10.261  -2.959  1.00  0.00     0.037 A 
HETATM   16  C   UNL     1      41.006  -9.549  -3.475  1.00  0.00     0.066 A 
HETATM   17  C   UNL     1      40.817  -8.662  -4.535  1.00  0.00     0.067 A 
HETATM   18  C   UNL     1      39.560  -8.475  -5.100  1.00  0.00     0.036 A 
HETATM   19  C   UNL     1      38.474  -9.182  -4.589  1.00  0.00     0.005 A 
HETATM   20  C   UNL     1      38.654 -10.065  -3.521  1.00  0.00     0.029 A 
BRANCH  17  21
HETATM   21  O   UNL     1      41.907  -7.984  -4.998  1.00  0.00    -0.361 OA
HETATM   22  H   UNL     1      42.683  -8.563  -4.942  1.00  0.00     0.217 HD
ENDBRANCH  17  21
ENDBRANCH  12  15
ENDBRANCH   1  11
BRANCH   8  23
HETATM   23  C   UNL     1      41.191 -11.804   3.282  1.00  0.00     0.409 C 
HETATM   24  F   UNL     1      40.002 -11.226   2.997  1.00  0.00    -0.169 F 
HETATM   25  F   UNL     1      41.328 -11.759   4.635  1.00  0.00    -0.169 F 
HETATM   26  F   UNL     1      42.171 -11.021   2.782  1.00  0.00    -0.169 F 
ENDBRANCH   8  23
BRANCH   6  27
HETATM   27  C   UNL     1      41.543 -16.454   3.324  1.00  0.00    -0.035 A 
HETATM   28  C   UNL     1      41.963 -17.239   2.235  1.00  0.00     0.012 A 
HETATM   29  C   UNL     1      43.100 -18.047   2.331  1.00  0.00     0.043 A 
HETATM   30  C   UNL     1      43.827 -18.072   3.512  1.00  0.00     0.116 A 
HETATM   31  F   UNL     1      44.912 -18.852   3.605  1.00  0.00    -0.206 F 
HETATM   32  C   UNL     1      43.445 -17.300   4.600  1.00  0.00     0.043 A 
HETATM   33  C   UNL     1      42.309 -16.492   4.506  1.00  0.00     0.012 A 
ENDBRANCH   6  27
TORSDOF 5
ENDMDL
MODEL 6
REMARK VINA RESULT:      -8.5      3.024      5.068
REMARK  5 active torsions:
REMARK  status: ('A' for Active; 'I' for Inactive)
REMARK    1  A    between atoms: C_3  and  O_4 
REMARK    2  A    between atoms: C_6  and  N_7 
REMARK       I    between atoms: N_7  and  C_8 
REMARK    3  A    between atoms: C_8  and  C_9 
REMARK    4  A    between atoms: C_14  and  C_15 
REMARK    5  A    between atoms: C_23  and  C_24 
ROOT
HETATM    1  C   UNL     1      43.510 -11.218   6.259  1.00  0.00     0.148 A 
HETATM    2  N   UNL     1      42.256 -11.717   6.168  1.00  0.00    -0.165 NA
HETATM    3  N   UNL     1      42.229 -12.298   4.954  1.00  0.00    -0.240 N 
HETATM    4  C   UNL     1      43.430 -12.246   4.297  1.00  0.00     0.123 A 
HETATM    5  N   UNL     1      43.616 -12.855   3.105  1.00  0.00    -0.366 N 
HETATM    6  C   UNL     1      42.624 -13.776   2.560  1.00  0.00     0.118 C 
HETATM    7  C   UNL     1      41.211 -13.348   2.977  1.00  0.00     0.066 C 
HETATM    8  C   UNL     1      41.091 -13.072   4.488  1.00  0.00     0.221 C 
HETATM    9  C   UNL     1      44.274 -11.530   5.103  1.00  0.00     0.089 A 
HETATM   10  H   UNL     1      44.557 -12.967   2.731  1.00  0.00     0.161 HD
ENDROOT
BRANCH   1  11
HETATM   11  C   UNL     1      43.974 -10.469   7.442  1.00  0.00     0.276 C 
HETATM   12  N   UNL     1      42.940 -10.198   8.317  1.00  0.00    -0.322 N 
HETATM   13  H   UNL     1      42.037 -10.538   7.992  1.00  0.00     0.169 HD
HETATM   14  O   UNL     1      45.149 -10.145   7.568  1.00  0.00    -0.266 OA
BRANCH  12  15
HETATM   15  C   UNL     1      42.990  -9.508   9.540  1.00  0.00     0.037 A 
HETATM   16  C   UNL     1      42.732  -8.143   9.676  1.00  0.00     0.066 A 
HETATM   17  C   UNL     1      42.806  -7.541  10.931  1.00  0.00     0.067 A 
HETATM   18  C   UNL     1      43.128  -8.279  12.065  1.00  0.00     0.036 A 
HETATM   19  C   UNL     1      43.387  -9.642  11.936  1.00  0.00     0.005 A 
HETATM   20  C   UNL     1      43.323 -10.251  10.681  1.00  0.00     0.029 A 
BRANCH  17  21
HETATM   21  O   UNL     1      42.554  -6.201  11.010  1.00  0.00    -0.361 OA
HETATM   22  H   UNL     1      42.485  -5.951  11.945  1.00  0.00     0.217 HD
ENDBRANCH  17  21
ENDBRANCH  12  15
ENDBRANCH   1  11
BRANCH   8  23
HETATM   23  C   UNL     1      39.779 -12.372   4.771  1.00  0.00     0.409 C 
HETATM   24  F   UNL     1      38.814 -12.705   3.884  1.00  0.00    -0.169 F 
HETATM   25  F   UNL     1      39.320 -12.738   5.998  1.00  0.00    -0.169 F 
HETATM   26  F   UNL     1      39.882 -11.026   4.797  1.00  0.00    -0.169 F 
ENDBRANCH   8  23
BRANCH   6  27
HETATM   27  C   UNL     1      42.939 -15.231   2.877  1.00  0.00    -0.035 A 
HETATM   28  C   UNL     1      43.249 -15.686   4.171  1.00  0.00     0.012 A 
HETATM   29  C   UNL     1      43.544 -17.032   4.406  1.00  0.00     0.043 A 
HETATM   30  C   UNL     1      43.528 -17.933   3.351  1.00  0.00     0.116 A 
HETATM   31  F   UNL     1      43.819 -19.220   3.576  1.00  0.00    -0.206 F 
HETATM   32  C   UNL     1      43.216 -17.516   2.064  1.00  0.00     0.043 A 
HETATM   33  C   UNL     1      42.919 -16.171   1.828  1.00  0.00     0.012 A 
ENDBRANCH   6  27
TORSDOF 5
ENDMDL
MODEL 7
REMARK VINA RESULT:      -8.5      4.241      8.052
REMARK  5 active torsions:
REMARK  status: ('A' for Active; 'I' for Inactive)
REMARK    1  A    between atoms: C_3  and  O_4 
REMARK    2  A    between atoms: C_6  and  N_7 
REMARK       I    between atoms: N_7  and  C_8 
REMARK    3  A    between atoms: C_8  and  C_9 
REMARK    4  A    between atoms: C_14  and  C_15 
REMARK    5  A    between atoms: C_23  and  C_24 
ROOT
HETATM    1  C   UNL     1      40.226 -12.393   2.318  1.00  0.00     0.148 A 
HETATM    2  N   UNL     1      41.468 -12.226   2.828  1.00  0.00    -0.165 NA
HETATM    3  N   UNL     1      41.593 -13.238   3.706  1.00  0.00    -0.240 N 
HETATM    4  C   UNL     1      40.510 -14.077   3.729  1.00  0.00     0.123 A 
HETATM    5  N   UNL     1      40.494 -15.198   4.484  1.00  0.00    -0.366 N 
HETATM    6  C   UNL     1      41.701 -15.688   5.141  1.00  0.00     0.118 C 
HETATM    7  C   UNL     1      42.601 -14.514   5.550  1.00  0.00     0.066 C 
HETATM    8  C   UNL     1      42.837 -13.513   4.403  1.00  0.00     0.221 C 
HETATM    9  C   UNL     1      39.596 -13.542   2.861  1.00  0.00     0.089 A 
HETATM   10  H   UNL     1      39.769 -15.899   4.340  1.00  0.00     0.161 HD
ENDROOT
BRANCH   1  11
HETATM   11  C   UNL     1      39.659 -11.472   1.314  1.00  0.00     0.276 C 
HETATM   12  N   UNL     1      38.376 -11.832   0.952  1.00  0.00    -0.322 N 
HETATM   13  H   UNL     1      38.048 -12.676   1.416  1.00  0.00     0.169 HD
HETATM   14  O   UNL     1      40.308 -10.526   0.883  1.00  0.00    -0.266 OA
BRANCH  12  15
HETATM   15  C   UNL     1      37.522 -11.207   0.028  1.00  0.00     0.037 A 
HETATM   16  C   UNL     1      37.559 -11.436  -1.348  1.00  0.00     0.066 A 
HETATM   17  C   UNL     1      36.671 -10.768  -2.191  1.00  0.00     0.067 A 
HETATM   18  C   UNL     1      35.735  -9.873  -1.685  1.00  0.00     0.036 A 
HETATM   19  C   UNL     1      35.693  -9.638  -0.313  1.00  0.00     0.005 A 
HETATM   20  C   UNL     1      36.585 -10.298   0.538  1.00  0.00     0.029 A 
BRANCH  17  21
HETATM   21  O   UNL     1      36.753 -11.021  -3.530  1.00  0.00    -0.361 OA
HETATM   22  H   UNL     1      35.875 -11.274  -3.855  1.00  0.00     0.217 HD
ENDBRANCH  17  21
ENDBRANCH  12  15
ENDBRANCH   1  11
BRANCH   8  23
HETATM   23  C   UNL     1      43.464 -12.251   4.955  1.00  0.00     0.409 C 
HETATM   24  F   UNL     1      42.544 -11.389   5.446  1.00  0.00    -0.169 F 
HETATM   25  F   UNL     1      44.290 -12.564   5.990  1.00  0.00    -0.169 F 
HETATM   26  F   UNL     1      44.224 -11.590   4.057  1.00  0.00    -0.169 F 
ENDBRANCH   8  23
BRANCH   6  27
HETATM   27  C   UNL     1      42.421 -16.753   4.326  1.00  0.00    -0.035 A 
HETATM   28  C   UNL     1      42.117 -17.026   2.980  1.00  0.00     0.012 A 
HETATM   29  C   UNL     1      42.800 -18.025   2.280  1.00  0.00     0.043 A 
HETATM   30  C   UNL     1      43.793 -18.755   2.918  1.00  0.00     0.116 A 
HETATM   31  F   UNL     1      44.441 -19.717   2.249  1.00  0.00    -0.206 F 
HETATM   32  C   UNL     1      44.123 -18.501   4.242  1.00  0.00     0.043 A 
HETATM   33  C   UNL     1      43.442 -17.502   4.943  1.00  0.00     0.012 A 
ENDBRANCH   6  27
TORSDOF 5
ENDMDL
MODEL 8
REMARK VINA RESULT:      -8.4      5.100      6.802
REMARK  5 active torsions:
REMARK  status: ('A' for Active; 'I' for Inactive)
REMARK    1  A    between atoms: C_3  and  O_4 
REMARK    2  A    between atoms: C_6  and  N_7 
REMARK       I    between atoms: N_7  and  C_8 
REMARK    3  A    between atoms: C_8  and  C_9 
REMARK    4  A    between atoms: C_14  and  C_15 
REMARK    5  A    between atoms: C_23  and  C_24 
ROOT
HETATM    1  C   UNL     1      41.030 -14.826   2.143  1.00  0.00     0.148 A 
HETATM    2  N   UNL     1      40.285 -13.781   2.572  1.00  0.00    -0.165 NA
HETATM    3  N   UNL     1      40.296 -12.930   1.529  1.00  0.00    -0.240 N 
HETATM    4  C   UNL     1      40.962 -13.416   0.435  1.00  0.00     0.123 A 
HETATM    5  N   UNL     1      41.000 -12.738  -0.734  1.00  0.00    -0.366 N 
HETATM    6  C   UNL     1      40.160 -11.566  -0.960  1.00  0.00     0.118 C 
HETATM    7  C   UNL     1      39.949 -10.799   0.352  1.00  0.00     0.066 C 
HETATM    8  C   UNL     1      39.508 -11.710   1.513  1.00  0.00     0.221 C 
HETATM    9  C   UNL     1      41.472 -14.630   0.808  1.00  0.00     0.089 A 
HETATM   10  H   UNL     1      41.330 -13.199  -1.580  1.00  0.00     0.161 HD
ENDROOT
BRANCH   1  11
HETATM   11  C   UNL     1      41.300 -16.000   2.995  1.00  0.00     0.276 C 
HETATM   12  N   UNL     1      42.476 -16.632   2.642  1.00  0.00    -0.322 N 
HETATM   13  H   UNL     1      42.943 -16.201   1.848  1.00  0.00     0.169 HD
HETATM   14  O   UNL     1      40.526 -16.329   3.886  1.00  0.00    -0.266 OA
BRANCH  12  15
HETATM   15  C   UNL     1      43.058 -17.776   3.214  1.00  0.00     0.037 A 
HETATM   16  C   UNL     1      43.240 -18.981   2.535  1.00  0.00     0.066 A 
HETATM   17  C   UNL     1      43.827 -20.066   3.185  1.00  0.00     0.067 A 
HETATM   18  C   UNL     1      44.245 -19.972   4.508  1.00  0.00     0.036 A 
HETATM   19  C   UNL     1      44.065 -18.772   5.192  1.00  0.00     0.005 A 
HETATM   20  C   UNL     1      43.470 -17.683   4.550  1.00  0.00     0.029 A 
BRANCH  17  21
HETATM   21  O   UNL     1      43.976 -21.226   2.479  1.00  0.00    -0.361 OA
HETATM   22  H   UNL     1      43.428 -21.177   1.679  1.00  0.00     0.217 HD
ENDBRANCH  17  21
ENDBRANCH  12  15
ENDBRANCH   1  11
BRANCH   8  23
HETATM   23  C   UNL     1      39.616 -10.952   2.819  1.00  0.00     0.409 C 
HETATM   24  F   UNL     1      39.204  -9.668   2.707  1.00  0.00    -0.169 F 
HETATM   25  F   UNL     1      38.819 -11.533   3.755  1.00  0.00    -0.169 F 
HETATM   26  F   UNL     1      40.862 -10.950   3.339  1.00  0.00    -0.169 F 
ENDBRANCH   8  23
BRANCH   6  27
HETATM   27  C   UNL     1      38.865 -11.905  -1.684  1.00  0.00    -0.035 A 
HETATM   28  C   UNL     1      38.511 -13.215  -2.053  1.00  0.00     0.012 A 
HETATM   29  C   UNL     1      37.314 -13.470  -2.729  1.00  0.00     0.043 A 
HETATM   30  C   UNL     1      36.462 -12.419  -3.038  1.00  0.00     0.116 A 
HETATM   31  F   UNL     1      35.320 -12.664  -3.693  1.00  0.00    -0.206 F 
HETATM   32  C   UNL     1      36.779 -11.117  -2.677  1.00  0.00     0.043 A 
HETATM   33  C   UNL     1      37.974 -10.860  -2.000  1.00  0.00     0.012 A 
ENDBRANCH   6  27
TORSDOF 5
ENDMDL
MODEL 9
REMARK VINA RESULT:      -8.4      3.990      7.571
REMARK  5 active torsions:
REMARK  status: ('A' for Active; 'I' for Inactive)
REMARK    1  A    between atoms: C_3  and  O_4 
REMARK    2  A    between atoms: C_6  and  N_7 
REMARK       I    between atoms: N_7  and  C_8 
REMARK    3  A    between atoms: C_8  and  C_9 
REMARK    4  A    between atoms: C_14  and  C_15 
REMARK    5  A    between atoms: C_23  and  C_24 
ROOT
HETATM    1  C   UNL     1      40.643 -12.109   1.658  1.00  0.00     0.148 A 
HETATM    2  N   UNL     1      41.824 -12.002   2.308  1.00  0.00    -0.165 NA
HETATM    3  N   UNL     1      41.773 -12.982   3.229  1.00  0.00    -0.240 N 
HETATM    4  C   UNL     1      40.639 -13.747   3.151  1.00  0.00     0.123 A 
HETATM    5  N   UNL     1      40.456 -14.831   3.937  1.00  0.00    -0.366 N 
HETATM    6  C   UNL     1      41.540 -15.370   4.752  1.00  0.00     0.118 C 
HETATM    7  C   UNL     1      42.465 -14.241   5.226  1.00  0.00     0.066 C 
HETATM    8  C   UNL     1      42.904 -13.307   4.081  1.00  0.00     0.221 C 
HETATM    9  C   UNL     1      39.874 -13.191   2.161  1.00  0.00     0.089 A 
HETATM   10  H   UNL     1      39.706 -15.488   3.731  1.00  0.00     0.161 HD
ENDROOT
BRANCH   1  11
HETATM   11  C   UNL     1      40.265 -11.198   0.561  1.00  0.00     0.276 C 
HETATM   12  N   UNL     1      41.332 -10.924  -0.271  1.00  0.00    -0.322 N 
HETATM   13  H   UNL     1      42.197 -11.373   0.021  1.00  0.00     0.169 HD
HETATM   14  O   UNL     1      39.124 -10.761   0.463  1.00  0.00    -0.266 OA
BRANCH  12  15
HETATM   15  C   UNL     1      41.362 -10.102  -1.411  1.00  0.00     0.037 A 
HETATM   16  C   UNL     1      41.952  -8.837  -1.445  1.00  0.00     0.066 A 
HETATM   17  C   UNL     1      41.933  -8.091  -2.622  1.00  0.00     0.067 A 
HETATM   18  C   UNL     1      41.339  -8.585  -3.778  1.00  0.00     0.036 A 
HETATM   19  C   UNL     1      40.747  -9.846  -3.750  1.00  0.00     0.005 A 
HETATM   20  C   UNL     1      40.755 -10.597  -2.572  1.00  0.00     0.029 A 
BRANCH  17  21
HETATM   21  O   UNL     1      42.516  -6.856  -2.602  1.00  0.00    -0.361 OA
HETATM   22  H   UNL     1      41.895  -6.211  -2.974  1.00  0.00     0.217 HD
ENDBRANCH  17  21
ENDBRANCH  12  15
ENDBRANCH   1  11
BRANCH   8  23
HETATM   23  C   UNL     1      43.548 -12.066   4.661  1.00  0.00     0.409 C 
HETATM   24  F   UNL     1      42.637 -11.153   5.068  1.00  0.00    -0.169 F 
HETATM   25  F   UNL     1      44.279 -12.399   5.759  1.00  0.00    -0.169 F 
HETATM   26  F   UNL     1      44.404 -11.458   3.813  1.00  0.00    -0.169 F 
ENDBRANCH   8  23
BRANCH   6  27
HETATM   27  C   UNL     1      42.275 -16.513   4.067  1.00  0.00    -0.035 A 
HETATM   28  C   UNL     1      41.960 -16.963   2.772  1.00  0.00     0.012 A 
HETATM   29  C   UNL     1      42.658 -18.028   2.194  1.00  0.00     0.043 A 
HETATM   30  C   UNL     1      43.677 -18.647   2.904  1.00  0.00     0.116 A 
HETATM   31  F   UNL     1      44.340 -19.671   2.352  1.00  0.00    -0.206 F 
HETATM   32  C   UNL     1      44.019 -18.218   4.179  1.00  0.00     0.043 A 
HETATM   33  C   UNL     1      43.323 -17.154   4.758  1.00  0.00     0.012 A 
ENDBRANCH   6  27
TORSDOF 5
ENDMDL
MODEL 10
REMARK VINA RESULT:      -8.3      3.618      8.564
REMARK  5 active torsions:
REMARK  status: ('A' for Active; 'I' for Inactive)
REMARK    1  A    between atoms: C_3  and  O_4 
REMARK    2  A    between atoms: C_6  and  N_7 
REMARK       I    between atoms: N_7  and  C_8 
REMARK    3  A    between atoms: C_8  and  C_9 
REMARK    4  A    between atoms: C_14  and  C_15 
REMARK    5  A    between atoms: C_23  and  C_24 
ROOT
HETATM    1  C   UNL     1      41.085 -13.082   3.023  1.00  0.00     0.148 A 
HETATM    2  N   UNL     1      40.813 -13.725   4.181  1.00  0.00    -0.165 NA
HETATM    3  N   UNL     1      41.897 -13.486   4.943  1.00  0.00    -0.240 N 
HETATM    4  C   UNL     1      42.815 -12.666   4.343  1.00  0.00     0.123 A 
HETATM    5  N   UNL     1      43.924 -12.244   4.991  1.00  0.00    -0.366 N 
HETATM    6  C   UNL     1      44.093 -12.459   6.424  1.00  0.00     0.118 C 
HETATM    7  C   UNL     1      43.421 -13.771   6.851  1.00  0.00     0.066 C 
HETATM    8  C   UNL     1      41.976 -13.898   6.333  1.00  0.00     0.221 C 
HETATM    9  C   UNL     1      42.333 -12.408   3.088  1.00  0.00     0.089 A 
HETATM   10  H   UNL     1      44.487 -11.491   4.600  1.00  0.00     0.161 HD
ENDROOT
BRANCH   1  11
HETATM   11  C   UNL     1      40.155 -13.100   1.878  1.00  0.00     0.276 C 
HETATM   12  N   UNL     1      40.764 -13.562   0.728  1.00  0.00    -0.322 N 
HETATM   13  H   UNL     1      41.747 -13.789   0.855  1.00  0.00     0.169 HD
HETATM   14  O   UNL     1      38.994 -12.724   1.997  1.00  0.00    -0.266 OA
BRANCH  12  15
HETATM   15  C   UNL     1      40.206 -13.716  -0.553  1.00  0.00     0.037 A 
HETATM   16  C   UNL     1      39.490 -14.842  -0.961  1.00  0.00     0.066 A 
HETATM   17  C   UNL     1      38.974 -14.909  -2.255  1.00  0.00     0.067 A 
HETATM   18  C   UNL     1      39.153 -13.865  -3.156  1.00  0.00     0.036 A 
HETATM   19  C   UNL     1      39.868 -12.739  -2.755  1.00  0.00     0.005 A 
HETATM   20  C   UNL     1      40.396 -12.668  -1.464  1.00  0.00     0.029 A 
BRANCH  17  21
HETATM   21  O   UNL     1      38.287 -16.036  -2.608  1.00  0.00    -0.361 OA
HETATM   22  H   UNL     1      37.361 -15.798  -2.773  1.00  0.00     0.217 HD
ENDBRANCH  17  21
ENDBRANCH  12  15
ENDBRANCH   1  11
BRANCH   8  23
HETATM   23  C   UNL     1      41.493 -15.320   6.528  1.00  0.00     0.409 C 
HETATM   24  F   UNL     1      42.016 -15.896   7.635  1.00  0.00    -0.169 F 
HETATM   25  F   UNL     1      40.143 -15.328   6.689  1.00  0.00    -0.169 F 
HETATM   26  F   UNL     1      41.749 -16.124   5.475  1.00  0.00    -0.169 F 
ENDBRANCH   8  23
BRANCH   6  27
HETATM   27  C   UNL     1      43.664 -11.256   7.252  1.00  0.00    -0.035 A 
HETATM   28  C   UNL     1      42.731 -10.306   6.798  1.00  0.00     0.012 A 
HETATM   29  C   UNL     1      42.380  -9.210   7.593  1.00  0.00     0.043 A 
HETATM   30  C   UNL     1      42.956  -9.059   8.846  1.00  0.00     0.116 A 
HETATM   31  F   UNL     1      42.626  -8.005   9.603  1.00  0.00    -0.206 F 
HETATM   32  C   UNL     1      43.871  -9.985   9.326  1.00  0.00     0.043 A 
HETATM   33  C   UNL     1      44.222 -11.082   8.533  1.00  0.00     0.012 A 
ENDBRANCH   6  27
TORSDOF 5
ENDMDL
