MODEL 1
REMARK VINA RESULT:      -9.3      0.000      0.000
REMARK  7 active torsions:
REMARK  status: ('A' for Active; 'I' for Inactive)
REMARK    1  A    between atoms: C_2  and  O_3 
REMARK    2  A    between atoms: O_3  and  C_4 
REMARK    3  A    between atoms: C_4  and  C_5 
REMARK    4  A    between atoms: C_8  and  N_9 
REMARK       I    between atoms: N_9  and  C_10 
REMARK    5  A    between atoms: C_10  and  C_11 
REMARK    6  A    between atoms: C_11  and  N_12 
REMARK    7  A    between atoms: C_18  and  C_19 
ROOT
HETATM    1  N   UNL     1      41.971 -11.693   6.649  1.00  0.00    -0.063 N 
HETATM    2  H   UNL     1      41.702 -11.733   7.641  1.00  0.00     0.280 HD
HETATM    3  C   UNL     1      40.858 -12.410   5.897  1.00  0.00     0.240 C 
HETATM    4  C   UNL     1      41.030 -13.913   5.854  1.00  0.00     0.083 C 
HETATM    5  C   UNL     1      42.447 -14.295   5.449  1.00  0.00     0.131 A 
HETATM    6  N   UNL     1      42.558 -15.773   5.419  1.00  0.00    -0.251 NA
HETATM    7  C   UNL     1      42.981 -16.098   4.224  1.00  0.00     0.132 A 
HETATM    8  C   UNL     1      43.163 -14.880   3.343  1.00  0.00     0.272 A 
HETATM    9  O   UNL     1      43.557 -14.828   2.205  1.00  0.00    -0.266 OA
HETATM   10  N   UNL     1      42.787 -13.845   4.137  1.00  0.00    -0.327 N 
HETATM   11  C   UNL     1      43.401 -13.776   6.517  1.00  0.00     0.083 C 
HETATM   12  C   UNL     1      43.375 -12.267   6.577  1.00  0.00     0.240 C 
HETATM   13  H   UNL     1      42.817 -12.889   3.782  1.00  0.00     0.165 HD
ENDROOT
BRANCH   1  14
HETATM   14  C   UNL     1      42.006 -10.177   6.262  1.00  0.00     0.337 C 
BRANCH  14  15
HETATM   15  C   UNL     1      40.612  -9.538   6.125  1.00  0.00     0.248 C 
HETATM   16  N   UNL     1      39.817  -9.253   7.185  1.00  0.00    -0.326 N 
HETATM   17  H   UNL     1      38.967  -8.786   6.873  1.00  0.00     0.169 HD
HETATM   18  O   UNL     1      40.184  -9.220   5.005  1.00  0.00    -0.271 OA
BRANCH  16  19
HETATM   19  C   UNL     1      39.927  -9.402   8.577  1.00  0.00     0.034 A 
HETATM   20  C   UNL     1      40.904  -8.832   9.391  1.00  0.00     0.030 A 
HETATM   21  C   UNL     1      40.872  -9.035  10.780  1.00  0.00     0.020 A 
HETATM   22  C   UNL     1      39.869  -9.813  11.373  1.00  0.00     0.039 A 
HETATM   23  C   UNL     1      38.908 -10.410  10.557  1.00  0.00     0.020 A 
HETATM   24  C   UNL     1      38.943 -10.207   9.174  1.00  0.00     0.030 A 
BRANCH  22  25
HETATM   25  C   UNL     1      39.870  -9.974  12.852  1.00  0.00     0.293 C 
HETATM   26  O   UNL     1      39.665 -11.042  13.405  1.00  0.00    -0.259 OA
BRANCH  25  27
HETATM   27  O   UNL     1      40.155  -8.793  13.450  1.00  0.00    -0.318 OA
BRANCH  27  28
HETATM   28  C   UNL     1      41.082  -8.844  14.546  1.00  0.00     0.174 C 
HETATM   29  C   UNL     1      42.473  -8.488  14.058  1.00  0.00     0.034 C 
ENDBRANCH  27  28
ENDBRANCH  25  27
ENDBRANCH  22  25
ENDBRANCH  16  19
ENDBRANCH  14  15
ENDBRANCH   1  14
BRANCH   7  30
HETATM   30  C   UNL     1      43.252 -17.487   3.797  1.00  0.00    -0.001 A 
HETATM   31  C   UNL     1      43.817 -18.439   4.651  1.00  0.00     0.037 A 
HETATM   32  C   UNL     1      44.039 -19.741   4.193  1.00  0.00     0.035 A 
HETATM   33 CL   UNL     1      44.731 -20.908   5.251  1.00  0.00    -0.084 Cl
HETATM   34  C   UNL     1      43.706 -20.104   2.891  1.00  0.00     0.024 A 
HETATM   35  C   UNL     1      43.147 -19.159   2.033  1.00  0.00     0.003 A 
HETATM   36  C   UNL     1      42.921 -17.856   2.484  1.00  0.00     0.014 A 
ENDBRANCH   7  30
TORSDOF 7
ENDMDL
MODEL 2
REMARK VINA RESULT:      -9.0      4.201      9.304
REMARK  7 active torsions:
REMARK  status: ('A' for Active; 'I' for Inactive)
REMARK    1  A    between atoms: C_2  and  O_3 
REMARK    2  A    between atoms: O_3  and  C_4 
REMARK    3  A    between atoms: C_4  and  C_5 
REMARK    4  A    between atoms: C_8  and  N_9 
REMARK       I    between atoms: N_9  and  C_10 
REMARK    5  A    between atoms: C_10  and  C_11 
REMARK    6  A    between atoms: C_11  and  N_12 
REMARK    7  A    between atoms: C_18  and  C_19 
ROOT
HETATM    1  N   UNL     1      40.199 -12.031   2.914  1.00  0.00    -0.063 N 
HETATM    2  H   UNL     1      39.611 -11.285   2.518  1.00  0.00     0.280 HD
HETATM    3  C   UNL     1      39.664 -12.269   4.318  1.00  0.00     0.240 C 
HETATM    4  C   UNL     1      40.231 -11.315   5.349  1.00  0.00     0.083 C 
HETATM    5  C   UNL     1      41.745 -11.213   5.232  1.00  0.00     0.131 A 
HETATM    6  N   UNL     1      42.245 -10.273   6.263  1.00  0.00    -0.251 NA
HETATM    7  C   UNL     1      43.141 -10.920   6.965  1.00  0.00     0.132 A 
HETATM    8  C   UNL     1      43.300 -12.349   6.489  1.00  0.00     0.272 A 
HETATM    9  O   UNL     1      44.049 -13.199   6.901  1.00  0.00    -0.266 OA
HETATM   10  N   UNL     1      42.404 -12.456   5.475  1.00  0.00    -0.327 N 
HETATM   11  C   UNL     1      42.076 -10.627   3.866  1.00  0.00     0.083 C 
HETATM   12  C   UNL     1      41.633 -11.554   2.758  1.00  0.00     0.240 C 
HETATM   13  H   UNL     1      42.306 -13.337   4.968  1.00  0.00     0.165 HD
ENDROOT
BRANCH   1  14
HETATM   14  C   UNL     1      39.970 -13.294   2.018  1.00  0.00     0.337 C 
BRANCH  14  15
HETATM   15  C   UNL     1      41.062 -13.507   0.953  1.00  0.00     0.248 C 
HETATM   16  N   UNL     1      42.110 -14.349   1.122  1.00  0.00    -0.326 N 
HETATM   17  H   UNL     1      42.678 -14.379   0.277  1.00  0.00     0.169 HD
HETATM   18  O   UNL     1      40.983 -12.926  -0.139  1.00  0.00    -0.271 OA
BRANCH  16  19
HETATM   19  C   UNL     1      42.543 -15.203   2.149  1.00  0.00     0.034 A 
HETATM   20  C   UNL     1      42.718 -14.857   3.488  1.00  0.00     0.030 A 
HETATM   21  C   UNL     1      43.122 -15.826   4.421  1.00  0.00     0.020 A 
HETATM   22  C   UNL     1      43.362 -17.149   4.029  1.00  0.00     0.039 A 
HETATM   23  C   UNL     1      43.218 -17.491   2.684  1.00  0.00     0.020 A 
HETATM   24  C   UNL     1      42.817 -16.524   1.758  1.00  0.00     0.030 A 
BRANCH  22  25
HETATM   25  C   UNL     1      43.764 -18.139   5.065  1.00  0.00     0.293 C 
HETATM   26  O   UNL     1      43.267 -18.174   6.178  1.00  0.00    -0.259 OA
BRANCH  25  27
HETATM   27  O   UNL     1      44.710 -18.973   4.572  1.00  0.00    -0.318 OA
BRANCH  27  28
HETATM   28  C   UNL     1      44.474 -20.378   4.753  1.00  0.00     0.174 C 
HETATM   29  C   UNL     1      43.783 -20.944   3.527  1.00  0.00     0.034 C 
ENDBRANCH  27  28
ENDBRANCH  25  27
ENDBRANCH  22  25
ENDBRANCH  16  19
ENDBRANCH  14  15
ENDBRANCH   1  14
BRANCH   7  30
HETATM   30  C   UNL     1      43.904 -10.320   8.079  1.00  0.00    -0.001 A 
HETATM   31  C   UNL     1      43.330 -10.055   9.327  1.00  0.00     0.037 A 
HETATM   32  C   UNL     1      44.107  -9.496  10.345  1.00  0.00     0.035 A 
HETATM   33 CL   UNL     1      43.394  -9.176  11.879  1.00  0.00    -0.084 Cl
HETATM   34  C   UNL     1      45.450  -9.196  10.134  1.00  0.00     0.024 A 
HETATM   35  C   UNL     1      46.027  -9.453   8.893  1.00  0.00     0.003 A 
HETATM   36  C   UNL     1      45.258 -10.013   7.869  1.00  0.00     0.014 A 
ENDBRANCH   7  30
TORSDOF 7
ENDMDL
MODEL 3
REMARK VINA RESULT:      -9.0      3.302      4.659
REMARK  7 active torsions:
REMARK  status: ('A' for Active; 'I' for Inactive)
REMARK    1  A    between atoms: C_2  and  O_3 
REMARK    2  A    between atoms: O_3  and  C_4 
REMARK    3  A    between atoms: C_4  and  C_5 
REMARK    4  A    between atoms: C_8  and  N_9 
REMARK       I    between atoms: N_9  and  C_10 
REMARK    5  A    between atoms: C_10  and  C_11 
REMARK    6  A    between atoms: C_11  and  N_12 
REMARK    7  A    between atoms: C_18  and  C_19 
ROOT
HETATM    1  N   UNL     1      44.580  -9.739   8.122  1.00  0.00    -0.063 N 
HETATM    2  H   UNL     1      44.803  -8.891   7.583  1.00  0.00     0.280 HD
HETATM    3  C   UNL     1      45.620 -10.769   7.706  1.00  0.00     0.240 C 
HETATM    4  C   UNL     1      45.259 -11.513   6.438  1.00  0.00     0.083 C 
HETATM    5  C   UNL     1      43.822 -12.013   6.482  1.00  0.00     0.131 A 
HETATM    6  N   UNL     1      43.524 -12.735   5.222  1.00  0.00    -0.251 NA
HETATM    7  C   UNL     1      43.109 -13.930   5.558  1.00  0.00     0.132 A 
HETATM    8  C   UNL     1      43.119 -14.125   7.060  1.00  0.00     0.272 A 
HETATM    9  O   UNL     1      42.779 -15.092   7.694  1.00  0.00    -0.266 OA
HETATM   10  N   UNL     1      43.593 -12.947   7.538  1.00  0.00    -0.327 N 
HETATM   11  C   UNL     1      42.901 -10.802   6.555  1.00  0.00     0.083 C 
HETATM   12  C   UNL     1      43.117 -10.035   7.840  1.00  0.00     0.240 C 
HETATM   13  H   UNL     1      43.699 -12.807   8.544  1.00  0.00     0.165 HD
ENDROOT
BRANCH   1  14
HETATM   14  C   UNL     1      44.754  -9.361   9.631  1.00  0.00     0.337 C 
BRANCH  14  15
HETATM   15  C   UNL     1      43.898 -10.213  10.587  1.00  0.00     0.248 C 
HETATM   16  N   UNL     1      43.072  -9.679  11.519  1.00  0.00    -0.326 N 
HETATM   17  H   UNL     1      42.563 -10.418  12.002  1.00  0.00     0.169 HD
HETATM   18  O   UNL     1      43.912 -11.449  10.495  1.00  0.00    -0.271 OA
BRANCH  16  19
HETATM   19  C   UNL     1      42.732  -8.376  11.917  1.00  0.00     0.034 A 
HETATM   20  C   UNL     1      42.002  -7.453  11.171  1.00  0.00     0.030 A 
HETATM   21  C   UNL     1      41.701  -6.191  11.709  1.00  0.00     0.020 A 
HETATM   22  C   UNL     1      42.130  -5.834  12.993  1.00  0.00     0.039 A 
HETATM   23  C   UNL     1      42.888  -6.744  13.729  1.00  0.00     0.020 A 
HETATM   24  C   UNL     1      43.187  -7.998  13.191  1.00  0.00     0.030 A 
BRANCH  22  25
HETATM   25  C   UNL     1      41.760  -4.492  13.522  1.00  0.00     0.293 C 
HETATM   26  O   UNL     1      41.463  -4.296  14.688  1.00  0.00    -0.259 OA
BRANCH  25  27
HETATM   27  O   UNL     1      41.837  -3.565  12.538  1.00  0.00    -0.318 OA
BRANCH  27  28
HETATM   28  C   UNL     1      43.032  -2.768  12.509  1.00  0.00     0.174 C 
HETATM   29  C   UNL     1      43.468  -2.550  11.073  1.00  0.00     0.034 C 
ENDBRANCH  27  28
ENDBRANCH  25  27
ENDBRANCH  22  25
ENDBRANCH  16  19
ENDBRANCH  14  15
ENDBRANCH   1  14
BRANCH   7  30
HETATM   30  C   UNL     1      42.679 -14.955   4.584  1.00  0.00    -0.001 A 
HETATM   31  C   UNL     1      43.439 -16.097   4.309  1.00  0.00     0.037 A 
HETATM   32  C   UNL     1      42.974 -17.037   3.386  1.00  0.00     0.035 A 
HETATM   33 CL   UNL     1      43.914 -18.441   3.056  1.00  0.00    -0.084 Cl
HETATM   34  C   UNL     1      41.760 -16.851   2.731  1.00  0.00     0.024 A 
HETATM   35  C   UNL     1      41.000 -15.715   2.996  1.00  0.00     0.003 A 
HETATM   36  C   UNL     1      41.457 -14.770   3.919  1.00  0.00     0.014 A 
ENDBRANCH   7  30
TORSDOF 7
ENDMDL
MODEL 4
REMARK VINA RESULT:      -8.8      4.184      5.977
REMARK  7 active torsions:
REMARK  status: ('A' for Active; 'I' for Inactive)
REMARK    1  A    between atoms: C_2  and  O_3 
REMARK    2  A    between atoms: O_3  and  C_4 
REMARK    3  A    between atoms: C_4  and  C_5 
REMARK    4  A    between atoms: C_8  and  N_9 
REMARK       I    between atoms: N_9  and  C_10 
REMARK    5  A    between atoms: C_10  and  C_11 
REMARK    6  A    between atoms: C_11  and  N_12 
REMARK    7  A    between atoms: C_18  and  C_19 
ROOT
HETATM    1  N   UNL     1      38.812 -12.648   0.244  1.00  0.00    -0.063 N 
HETATM    2  H   UNL     1      37.816 -12.905   0.224  1.00  0.00     0.280 HD
HETATM    3  C   UNL     1      39.507 -13.640  -0.678  1.00  0.00     0.240 C 
HETATM    4  C   UNL     1      39.860 -14.947  -0.001  1.00  0.00     0.083 C 
HETATM    5  C   UNL     1      40.542 -14.708   1.339  1.00  0.00     0.131 A 
HETATM    6  N   UNL     1      40.868 -16.017   1.953  1.00  0.00    -0.251 NA
HETATM    7  C   UNL     1      42.153 -16.012   2.200  1.00  0.00     0.132 A 
HETATM    8  C   UNL     1      42.804 -14.721   1.750  1.00  0.00     0.272 A 
HETATM    9  O   UNL     1      43.959 -14.387   1.849  1.00  0.00    -0.266 OA
HETATM   10  N   UNL     1      41.781 -14.010   1.212  1.00  0.00    -0.327 N 
HETATM   11  C   UNL     1      39.554 -13.996   2.253  1.00  0.00     0.083 C 
HETATM   12  C   UNL     1      39.205 -12.629   1.712  1.00  0.00     0.240 C 
HETATM   13  H   UNL     1      41.949 -13.080   0.827  1.00  0.00     0.165 HD
ENDROOT
BRANCH   1  14
HETATM   14  C   UNL     1      38.905 -11.198  -0.339  1.00  0.00     0.337 C 
BRANCH  14  15
HETATM   15  C   UNL     1      40.322 -10.800  -0.791  1.00  0.00     0.248 C 
HETATM   16  N   UNL     1      41.265 -10.319   0.056  1.00  0.00    -0.326 N 
HETATM   17  H   UNL     1      42.143 -10.173  -0.440  1.00  0.00     0.169 HD
HETATM   18  O   UNL     1      40.661 -10.956  -1.973  1.00  0.00    -0.271 OA
BRANCH  16  19
HETATM   19  C   UNL     1      41.315 -10.038   1.430  1.00  0.00     0.034 A 
HETATM   20  C   UNL     1      40.592  -9.047   2.094  1.00  0.00     0.030 A 
HETATM   21  C   UNL     1      40.711  -8.900   3.485  1.00  0.00     0.020 A 
HETATM   22  C   UNL     1      41.555  -9.734   4.230  1.00  0.00     0.039 A 
HETATM   23  C   UNL     1      42.303 -10.705   3.564  1.00  0.00     0.020 A 
HETATM   24  C   UNL     1      42.183 -10.848   2.179  1.00  0.00     0.030 A 
BRANCH  22  25
HETATM   25  C   UNL     1      41.623  -9.548   5.705  1.00  0.00     0.293 C 
HETATM   26  O   UNL     1      41.847  -8.469   6.229  1.00  0.00    -0.259 OA
BRANCH  25  27
HETATM   27  O   UNL     1      41.373 -10.719   6.336  1.00  0.00    -0.318 OA
BRANCH  27  28
HETATM   28  C   UNL     1      40.007 -11.161   6.337  1.00  0.00     0.174 C 
HETATM   29  C   UNL     1      39.945 -12.637   5.994  1.00  0.00     0.034 C 
ENDBRANCH  27  28
ENDBRANCH  25  27
ENDBRANCH  22  25
ENDBRANCH  16  19
ENDBRANCH  14  15
ENDBRANCH   1  14
BRANCH   7  30
HETATM   30  C   UNL     1      42.872 -17.131   2.844  1.00  0.00    -0.001 A 
HETATM   31  C   UNL     1      43.055 -18.368   2.218  1.00  0.00     0.037 A 
HETATM   32  C   UNL     1      43.753 -19.384   2.874  1.00  0.00     0.035 A 
HETATM   33 CL   UNL     1      43.977 -20.902   2.095  1.00  0.00    -0.084 Cl
HETATM   34  C   UNL     1      44.270 -19.183   4.151  1.00  0.00     0.024 A 
HETATM   35  C   UNL     1      44.088 -17.955   4.783  1.00  0.00     0.003 A 
HETATM   36  C   UNL     1      43.392 -16.933   4.133  1.00  0.00     0.014 A 
ENDBRANCH   7  30
TORSDOF 7
ENDMDL
MODEL 5
REMARK VINA RESULT:      -8.8      3.126      4.493
REMARK  7 active torsions:
REMARK  status: ('A' for Active; 'I' for Inactive)
REMARK    1  A    between atoms: C_2  and  O_3 
REMARK    2  A    between atoms: O_3  and  C_4 
REMARK    3  A    between atoms: C_4  and  C_5 
REMARK    4  A    between atoms: C_8  and  N_9 
REMARK       I    between atoms: N_9  and  C_10 
REMARK    5  A    between atoms: C_10  and  C_11 
REMARK    6  A    between atoms: C_11  and  N_12 
REMARK    7  A    between atoms: C_18  and  C_19 
ROOT
HETATM    1  N   UNL     1      44.595  -9.788   8.141  1.00  0.00    -0.063 N 
HETATM    2  H   UNL     1      44.834  -8.940   7.610  1.00  0.00     0.280 HD
HETATM    3  C   UNL     1      45.623 -10.831   7.726  1.00  0.00     0.240 C 
HETATM    4  C   UNL     1      45.260 -11.562   6.451  1.00  0.00     0.083 C 
HETATM    5  C   UNL     1      43.816 -12.040   6.481  1.00  0.00     0.131 A 
HETATM    6  N   UNL     1      43.516 -12.749   5.214  1.00  0.00    -0.251 NA
HETATM    7  C   UNL     1      43.082 -13.941   5.539  1.00  0.00     0.132 A 
HETATM    8  C   UNL     1      43.078 -14.146   7.040  1.00  0.00     0.272 A 
HETATM    9  O   UNL     1      42.719 -15.112   7.665  1.00  0.00    -0.266 OA
HETATM   10  N   UNL     1      43.565 -12.978   7.529  1.00  0.00    -0.327 N 
HETATM   11  C   UNL     1      42.912 -10.816   6.556  1.00  0.00     0.083 C 
HETATM   12  C   UNL     1      43.130 -10.062   7.847  1.00  0.00     0.240 C 
HETATM   13  H   UNL     1      43.667 -12.846   8.536  1.00  0.00     0.165 HD
ENDROOT
BRANCH   1  14
HETATM   14  C   UNL     1      44.764  -9.424   9.654  1.00  0.00     0.337 C 
BRANCH  14  15
HETATM   15  C   UNL     1      43.878 -10.258  10.597  1.00  0.00     0.248 C 
HETATM   16  N   UNL     1      43.048  -9.709  11.517  1.00  0.00    -0.326 N 
HETATM   17  H   UNL     1      42.517 -10.437  11.992  1.00  0.00     0.169 HD
HETATM   18  O   UNL     1      43.869 -11.495  10.505  1.00  0.00    -0.271 OA
BRANCH  16  19
HETATM   19  C   UNL     1      42.728  -8.399  11.910  1.00  0.00     0.034 A 
HETATM   20  C   UNL     1      41.988  -7.478  11.173  1.00  0.00     0.030 A 
HETATM   21  C   UNL     1      41.710  -6.208  11.707  1.00  0.00     0.020 A 
HETATM   22  C   UNL     1      42.172  -5.842  12.977  1.00  0.00     0.039 A 
HETATM   23  C   UNL     1      42.940  -6.752  13.703  1.00  0.00     0.020 A 
HETATM   24  C   UNL     1      43.216  -8.014  13.170  1.00  0.00     0.030 A 
BRANCH  22  25
HETATM   25  C   UNL     1      41.826  -4.493  13.501  1.00  0.00     0.293 C 
HETATM   26  O   UNL     1      42.460  -3.489  13.222  1.00  0.00    -0.259 OA
BRANCH  25  27
HETATM   27  O   UNL     1      40.721  -4.563  14.280  1.00  0.00    -0.318 OA
BRANCH  27  28
HETATM   28  C   UNL     1      40.942  -4.525  15.699  1.00  0.00     0.174 C 
HETATM   29  C   UNL     1      40.299  -5.735  16.351  1.00  0.00     0.034 C 
ENDBRANCH  27  28
ENDBRANCH  25  27
ENDBRANCH  22  25
ENDBRANCH  16  19
ENDBRANCH  14  15
ENDBRANCH   1  14
BRANCH   7  30
HETATM   30  C   UNL     1      42.644 -14.953   4.555  1.00  0.00    -0.001 A 
HETATM   31  C   UNL     1      43.386 -16.107   4.283  1.00  0.00     0.037 A 
HETATM   32  C   UNL     1      42.914 -17.034   3.350  1.00  0.00     0.035 A 
HETATM   33 CL   UNL     1      43.832 -18.453   3.022  1.00  0.00    -0.084 Cl
HETATM   34  C   UNL     1      41.711 -16.823   2.682  1.00  0.00     0.024 A 
HETATM   35  C   UNL     1      40.969 -15.673   2.945  1.00  0.00     0.003 A 
HETATM   36  C   UNL     1      41.433 -14.742   3.878  1.00  0.00     0.014 A 
ENDBRANCH   7  30
TORSDOF 7
ENDMDL
MODEL 6
REMARK VINA RESULT:      -8.7      1.438      1.905
REMARK  7 active torsions:
REMARK  status: ('A' for Active; 'I' for Inactive)
REMARK    1  A    between atoms: C_2  and  O_3 
REMARK    2  A    between atoms: O_3  and  C_4 
REMARK    3  A    between atoms: C_4  and  C_5 
REMARK    4  A    between atoms: C_8  and  N_9 
REMARK       I    between atoms: N_9  and  C_10 
REMARK    5  A    between atoms: C_10  and  C_11 
REMARK    6  A    between atoms: C_11  and  N_12 
REMARK    7  A    between atoms: C_18  and  C_19 
ROOT
HETATM    1  N   UNL     1      41.683 -10.942   5.457  1.00  0.00    -0.063 N 
HETATM    2  H   UNL     1      42.240 -10.235   4.958  1.00  0.00     0.280 HD
HETATM    3  C   UNL     1      42.680 -11.716   6.309  1.00  0.00     0.240 C 
HETATM    4  C   UNL     1      43.375 -12.832   5.560  1.00  0.00     0.083 C 
HETATM    5  C   UNL     1      42.377 -13.681   4.784  1.00  0.00     0.131 A 
HETATM    6  N   UNL     1      43.109 -14.758   4.075  1.00  0.00    -0.251 NA
HETATM    7  C   UNL     1      42.572 -15.891   4.449  1.00  0.00     0.132 A 
HETATM    8  C   UNL     1      41.461 -15.681   5.455  1.00  0.00     0.272 A 
HETATM    9  O   UNL     1      40.754 -16.506   5.978  1.00  0.00    -0.266 OA
HETATM   10  N   UNL     1      41.431 -14.335   5.631  1.00  0.00    -0.327 N 
HETATM   11  C   UNL     1      41.717 -12.796   3.735  1.00  0.00     0.083 C 
HETATM   12  C   UNL     1      40.913 -11.695   4.386  1.00  0.00     0.240 C 
HETATM   13  H   UNL     1      40.756 -13.916   6.271  1.00  0.00     0.165 HD
ENDROOT
BRANCH   1  14
HETATM   14  C   UNL     1      40.680 -10.154   6.364  1.00  0.00     0.337 C 
BRANCH  14  15
HETATM   15  C   UNL     1      41.085  -8.690   6.611  1.00  0.00     0.248 C 
HETATM   16  N   UNL     1      41.135  -8.130   7.845  1.00  0.00    -0.326 N 
HETATM   17  H   UNL     1      41.479  -7.173   7.784  1.00  0.00     0.169 HD
HETATM   18  O   UNL     1      41.429  -7.973   5.659  1.00  0.00    -0.271 OA
BRANCH  16  19
HETATM   19  C   UNL     1      40.880  -8.579   9.150  1.00  0.00     0.034 A 
HETATM   20  C   UNL     1      39.647  -8.562   9.799  1.00  0.00     0.030 A 
HETATM   21  C   UNL     1      39.526  -9.080  11.099  1.00  0.00     0.020 A 
HETATM   22  C   UNL     1      40.634  -9.615  11.768  1.00  0.00     0.039 A 
HETATM   23  C   UNL     1      41.876  -9.604  11.133  1.00  0.00     0.020 A 
HETATM   24  C   UNL     1      41.993  -9.087   9.840  1.00  0.00     0.030 A 
BRANCH  22  25
HETATM   25  C   UNL     1      40.442 -10.172  13.135  1.00  0.00     0.293 C 
HETATM   26  O   UNL     1      39.632 -11.049  13.387  1.00  0.00    -0.259 OA
BRANCH  25  27
HETATM   27  O   UNL     1      41.301  -9.588  14.003  1.00  0.00    -0.318 OA
BRANCH  27  28
HETATM   28  C   UNL     1      40.937  -8.281  14.473  1.00  0.00     0.174 C 
HETATM   29  C   UNL     1      42.186  -7.503  14.841  1.00  0.00     0.034 C 
ENDBRANCH  27  28
ENDBRANCH  25  27
ENDBRANCH  22  25
ENDBRANCH  16  19
ENDBRANCH  14  15
ENDBRANCH   1  14
BRANCH   7  30
HETATM   30  C   UNL     1      43.001 -17.211   3.940  1.00  0.00    -0.001 A 
HETATM   31  C   UNL     1      43.598 -18.175   4.759  1.00  0.00     0.037 A 
HETATM   32  C   UNL     1      43.971 -19.410   4.223  1.00  0.00     0.035 A 
HETATM   33 CL   UNL     1      44.702 -20.592   5.238  1.00  0.00    -0.084 Cl
HETATM   34  C   UNL     1      43.760 -19.695   2.876  1.00  0.00     0.024 A 
HETATM   35  C   UNL     1      43.170 -18.738   2.054  1.00  0.00     0.003 A 
HETATM   36  C   UNL     1      42.792 -17.501   2.582  1.00  0.00     0.014 A 
ENDBRANCH   7  30
TORSDOF 7
ENDMDL
MODEL 7
REMARK VINA RESULT:      -8.6      4.373      9.093
REMARK  7 active torsions:
REMARK  status: ('A' for Active; 'I' for Inactive)
REMARK    1  A    between atoms: C_2  and  O_3 
REMARK    2  A    between atoms: O_3  and  C_4 
REMARK    3  A    between atoms: C_4  and  C_5 
REMARK    4  A    between atoms: C_8  and  N_9 
REMARK       I    between atoms: N_9  and  C_10 
REMARK    5  A    between atoms: C_10  and  C_11 
REMARK    6  A    between atoms: C_11  and  N_12 
REMARK    7  A    between atoms: C_18  and  C_19 
ROOT
HETATM    1  N   UNL     1      40.973 -11.705   2.598  1.00  0.00    -0.063 N 
HETATM    2  H   UNL     1      40.012 -11.378   2.427  1.00  0.00     0.280 HD
HETATM    3  C   UNL     1      40.870 -12.676   3.766  1.00  0.00     0.240 C 
HETATM    4  C   UNL     1      40.891 -11.996   5.118  1.00  0.00     0.083 C 
HETATM    5  C   UNL     1      42.020 -10.979   5.208  1.00  0.00     0.131 A 
HETATM    6  N   UNL     1      41.995 -10.349   6.550  1.00  0.00    -0.251 NA
HETATM    7  C   UNL     1      43.182 -10.525   7.073  1.00  0.00     0.132 A 
HETATM    8  C   UNL     1      44.092 -11.307   6.149  1.00  0.00     0.272 A 
HETATM    9  O   UNL     1      45.245 -11.618   6.317  1.00  0.00    -0.266 OA
HETATM   10  N   UNL     1      43.311 -11.573   5.071  1.00  0.00    -0.327 N 
HETATM   11  C   UNL     1      41.759  -9.890   4.176  1.00  0.00     0.083 C 
HETATM   12  C   UNL     1      41.811 -10.450   2.774  1.00  0.00     0.240 C 
HETATM   13  H   UNL     1      43.688 -12.098   4.282  1.00  0.00     0.165 HD
ENDROOT
BRANCH   1  14
HETATM   14  C   UNL     1      41.421 -12.454   1.299  1.00  0.00     0.337 C 
BRANCH  14  15
HETATM   15  C   UNL     1      40.415 -13.514   0.815  1.00  0.00     0.248 C 
HETATM   16  N   UNL     1      40.507 -14.828   1.136  1.00  0.00    -0.326 N 
HETATM   17  H   UNL     1      39.712 -15.340   0.758  1.00  0.00     0.169 HD
HETATM   18  O   UNL     1      39.439 -13.174   0.131  1.00  0.00    -0.271 OA
BRANCH  16  19
HETATM   19  C   UNL     1      41.397 -15.605   1.895  1.00  0.00     0.034 A 
HETATM   20  C   UNL     1      42.705 -15.934   1.545  1.00  0.00     0.030 A 
HETATM   21  C   UNL     1      43.500 -16.691   2.422  1.00  0.00     0.020 A 
HETATM   22  C   UNL     1      42.999 -17.133   3.652  1.00  0.00     0.039 A 
HETATM   23  C   UNL     1      41.679 -16.831   3.990  1.00  0.00     0.020 A 
HETATM   24  C   UNL     1      40.891 -16.078   3.116  1.00  0.00     0.030 A 
BRANCH  22  25
HETATM   25  C   UNL     1      43.895 -17.911   4.551  1.00  0.00     0.293 C 
HETATM   26  O   UNL     1      43.865 -19.128   4.627  1.00  0.00    -0.259 OA
BRANCH  25  27
HETATM   27  O   UNL     1      44.729 -17.077   5.215  1.00  0.00    -0.318 OA
BRANCH  27  28
HETATM   28  C   UNL     1      44.321 -16.693   6.538  1.00  0.00     0.174 C 
HETATM   29  C   UNL     1      43.957 -15.221   6.555  1.00  0.00     0.034 C 
ENDBRANCH  27  28
ENDBRANCH  25  27
ENDBRANCH  22  25
ENDBRANCH  16  19
ENDBRANCH  14  15
ENDBRANCH   1  14
BRANCH   7  30
HETATM   30  C   UNL     1      43.579 -10.014   8.402  1.00  0.00    -0.001 A 
HETATM   31  C   UNL     1      42.766  -9.157   9.151  1.00  0.00     0.037 A 
HETATM   32  C   UNL     1      43.191  -8.716  10.407  1.00  0.00     0.035 A 
HETATM   33 CL   UNL     1      42.184  -7.664  11.325  1.00  0.00    -0.084 Cl
HETATM   34  C   UNL     1      44.419  -9.117  10.925  1.00  0.00     0.024 A 
HETATM   35  C   UNL     1      45.236  -9.967  10.182  1.00  0.00     0.003 A 
HETATM   36  C   UNL     1      44.818 -10.414   8.926  1.00  0.00     0.014 A 
ENDBRANCH   7  30
TORSDOF 7
ENDMDL
MODEL 8
REMARK VINA RESULT:      -8.5      3.631      6.790
REMARK  7 active torsions:
REMARK  status: ('A' for Active; 'I' for Inactive)
REMARK    1  A    between atoms: C_2  and  O_3 
REMARK    2  A    between atoms: O_3  and  C_4 
REMARK    3  A    between atoms: C_4  and  C_5 
REMARK    4  A    between atoms: C_8  and  N_9 
REMARK       I    between atoms: N_9  and  C_10 
REMARK    5  A    between atoms: C_10  and  C_11 
REMARK    6  A    between atoms: C_11  and  N_12 
REMARK    7  A    between atoms: C_18  and  C_19 
ROOT
HETATM    1  N   UNL     1      42.198 -11.722   6.341  1.00  0.00    -0.063 N 
HETATM    2  H   UNL     1      42.020 -11.592   7.347  1.00  0.00     0.280 HD
HETATM    3  C   UNL     1      41.052 -12.586   5.834  1.00  0.00     0.240 C 
HETATM    4  C   UNL     1      41.280 -14.069   6.037  1.00  0.00     0.083 C 
HETATM    5  C   UNL     1      42.669 -14.483   5.572  1.00  0.00     0.131 A 
HETATM    6  N   UNL     1      42.836 -15.939   5.790  1.00  0.00    -0.251 NA
HETATM    7  C   UNL     1      43.164 -16.461   4.635  1.00  0.00     0.132 A 
HETATM    8  C   UNL     1      43.218 -15.413   3.542  1.00  0.00     0.272 A 
HETATM    9  O   UNL     1      43.507 -15.554   2.380  1.00  0.00    -0.266 OA
HETATM   10  N   UNL     1      42.874 -14.264   4.176  1.00  0.00    -0.327 N 
HETATM   11  C   UNL     1      43.693 -13.761   6.439  1.00  0.00     0.083 C 
HETATM   12  C   UNL     1      43.613 -12.266   6.238  1.00  0.00     0.240 C 
HETATM   13  H   UNL     1      42.833 -13.385   3.659  1.00  0.00     0.165 HD
ENDROOT
BRANCH   1  14
HETATM   14  C   UNL     1      42.138 -10.297   5.695  1.00  0.00     0.337 C 
BRANCH  14  15
HETATM   15  C   UNL     1      40.782  -9.592   5.873  1.00  0.00     0.248 C 
HETATM   16  N   UNL     1      39.821  -9.577   4.917  1.00  0.00    -0.326 N 
HETATM   17  H   UNL     1      38.987  -9.104   5.262  1.00  0.00     0.169 HD
HETATM   18  O   UNL     1      40.509  -9.036   6.947  1.00  0.00    -0.271 OA
BRANCH  16  19
HETATM   19  C   UNL     1      39.703 -10.100   3.619  1.00  0.00     0.034 A 
HETATM   20  C   UNL     1      40.437  -9.703   2.503  1.00  0.00     0.030 A 
HETATM   21  C   UNL     1      40.242 -10.341   1.267  1.00  0.00     0.020 A 
HETATM   22  C   UNL     1      39.309 -11.376   1.129  1.00  0.00     0.039 A 
HETATM   23  C   UNL     1      38.550 -11.753   2.237  1.00  0.00     0.020 A 
HETATM   24  C   UNL     1      38.746 -11.116   3.465  1.00  0.00     0.030 A 
BRANCH  22  25
HETATM   25  C   UNL     1      39.162 -12.032  -0.200  1.00  0.00     0.293 C 
HETATM   26  O   UNL     1      38.160 -11.923  -0.887  1.00  0.00    -0.259 OA
BRANCH  25  27
HETATM   27  O   UNL     1      40.289 -12.713  -0.512  1.00  0.00    -0.318 OA
BRANCH  27  28
HETATM   28  C   UNL     1      40.131 -14.116  -0.776  1.00  0.00     0.174 C 
HETATM   29  C   UNL     1      40.121 -14.886   0.530  1.00  0.00     0.034 C 
ENDBRANCH  27  28
ENDBRANCH  25  27
ENDBRANCH  22  25
ENDBRANCH  16  19
ENDBRANCH  14  15
ENDBRANCH   1  14
BRANCH   7  30
HETATM   30  C   UNL     1      43.451 -17.896   4.432  1.00  0.00    -0.001 A 
HETATM   31  C   UNL     1      43.431 -18.496   3.169  1.00  0.00     0.037 A 
HETATM   32  C   UNL     1      43.723 -19.857   3.040  1.00  0.00     0.035 A 
HETATM   33 CL   UNL     1      43.699 -20.587   1.482  1.00  0.00    -0.084 Cl
HETATM   34  C   UNL     1      44.032 -20.628   4.157  1.00  0.00     0.024 A 
HETATM   35  C   UNL     1      44.050 -20.038   5.419  1.00  0.00     0.003 A 
HETATM   36  C   UNL     1      43.761 -18.678   5.556  1.00  0.00     0.014 A 
ENDBRANCH   7  30
TORSDOF 7
ENDMDL
MODEL 9
REMARK VINA RESULT:      -8.4      1.872      2.478
REMARK  7 active torsions:
REMARK  status: ('A' for Active; 'I' for Inactive)
REMARK    1  A    between atoms: C_2  and  O_3 
REMARK    2  A    between atoms: O_3  and  C_4 
REMARK    3  A    between atoms: C_4  and  C_5 
REMARK    4  A    between atoms: C_8  and  N_9 
REMARK       I    between atoms: N_9  and  C_10 
REMARK    5  A    between atoms: C_10  and  C_11 
REMARK    6  A    between atoms: C_11  and  N_12 
REMARK    7  A    between atoms: C_18  and  C_19 
ROOT
HETATM    1  N   UNL     1      42.251  -9.434   5.938  1.00  0.00    -0.063 N 
HETATM    2  H   UNL     1      43.011  -8.791   5.675  1.00  0.00     0.280 HD
HETATM    3  C   UNL     1      42.883 -10.442   6.888  1.00  0.00     0.240 C 
HETATM    4  C   UNL     1      43.569 -11.590   6.178  1.00  0.00     0.083 C 
HETATM    5  C   UNL     1      42.679 -12.179   5.093  1.00  0.00     0.131 A 
HETATM    6  N   UNL     1      43.397 -13.297   4.436  1.00  0.00    -0.251 NA
HETATM    7  C   UNL     1      42.624 -14.350   4.527  1.00  0.00     0.132 A 
HETATM    8  C   UNL     1      41.343 -14.042   5.272  1.00  0.00     0.272 A 
HETATM    9  O   UNL     1      40.416 -14.776   5.509  1.00  0.00    -0.266 OA
HETATM   10  N   UNL     1      41.469 -12.733   5.609  1.00  0.00    -0.327 N 
HETATM   11  C   UNL     1      42.435 -11.101   4.044  1.00  0.00     0.083 C 
HETATM   12  C   UNL     1      41.666  -9.941   4.632  1.00  0.00     0.240 C 
HETATM   13  H   UNL     1      40.726 -12.263   6.128  1.00  0.00     0.165 HD
ENDROOT
BRANCH   1  14
HETATM   14  C   UNL     1      41.183  -8.569   6.688  1.00  0.00     0.337 C 
BRANCH  14  15
HETATM   15  C   UNL     1      41.754  -7.287   7.319  1.00  0.00     0.248 C 
HETATM   16  N   UNL     1      41.845  -7.094   8.658  1.00  0.00    -0.326 N 
HETATM   17  H   UNL     1      42.301  -6.205   8.856  1.00  0.00     0.169 HD
HETATM   18  O   UNL     1      42.199  -6.385   6.594  1.00  0.00    -0.271 OA
BRANCH  16  19
HETATM   19  C   UNL     1      41.511  -7.847   9.795  1.00  0.00     0.034 A 
HETATM   20  C   UNL     1      42.105  -9.044  10.191  1.00  0.00     0.030 A 
HETATM   21  C   UNL     1      41.695  -9.676  11.378  1.00  0.00     0.020 A 
HETATM   22  C   UNL     1      40.687  -9.124  12.178  1.00  0.00     0.039 A 
HETATM   23  C   UNL     1      40.069  -7.943  11.766  1.00  0.00     0.020 A 
HETATM   24  C   UNL     1      40.478  -7.318  10.585  1.00  0.00     0.030 A 
BRANCH  22  25
HETATM   25  C   UNL     1      40.311  -9.824  13.437  1.00  0.00     0.293 C 
HETATM   26  O   UNL     1      39.796 -10.930  13.454  1.00  0.00    -0.259 OA
BRANCH  25  27
HETATM   27  O   UNL     1      40.651  -9.072  14.509  1.00  0.00    -0.318 OA
BRANCH  27  28
HETATM   28  C   UNL     1      42.053  -8.819  14.688  1.00  0.00     0.174 C 
HETATM   29  C   UNL     1      42.272  -7.355  15.018  1.00  0.00     0.034 C 
ENDBRANCH  27  28
ENDBRANCH  25  27
ENDBRANCH  22  25
ENDBRANCH  16  19
ENDBRANCH  14  15
ENDBRANCH   1  14
BRANCH   7  30
HETATM   30  C   UNL     1      42.967 -15.673   3.963  1.00  0.00    -0.001 A 
HETATM   31  C   UNL     1      43.356 -16.753   4.761  1.00  0.00     0.037 A 
HETATM   32  C   UNL     1      43.656 -17.983   4.170  1.00  0.00     0.035 A 
HETATM   33 CL   UNL     1      44.132 -19.308   5.160  1.00  0.00    -0.084 Cl
HETATM   34  C   UNL     1      43.575 -18.149   2.790  1.00  0.00     0.024 A 
HETATM   35  C   UNL     1      43.192 -17.076   1.989  1.00  0.00     0.003 A 
HETATM   36  C   UNL     1      42.889 -15.843   2.572  1.00  0.00     0.014 A 
ENDBRANCH   7  30
TORSDOF 7
ENDMDL
MODEL 10
REMARK VINA RESULT:      -8.4      3.930      7.445
REMARK  7 active torsions:
REMARK  status: ('A' for Active; 'I' for Inactive)
REMARK    1  A    between atoms: C_2  and  O_3 
REMARK    2  A    between atoms: O_3  and  C_4 
REMARK    3  A    between atoms: C_4  and  C_5 
REMARK    4  A    between atoms: C_8  and  N_9 
REMARK       I    between atoms: N_9  and  C_10 
REMARK    5  A    between atoms: C_10  and  C_11 
REMARK    6  A    between atoms: C_11  and  N_12 
REMARK    7  A    between atoms: C_18  and  C_19 
ROOT
HETATM    1  N   UNL     1      42.541 -11.142   4.823  1.00  0.00    -0.063 N 
HETATM    2  H   UNL     1      43.425 -10.630   4.951  1.00  0.00     0.280 HD
HETATM    3  C   UNL     1      42.469 -12.124   5.983  1.00  0.00     0.240 C 
HETATM    4  C   UNL     1      43.220 -13.414   5.729  1.00  0.00     0.083 C 
HETATM    5  C   UNL     1      42.882 -13.988   4.361  1.00  0.00     0.131 A 
HETATM    6  N   UNL     1      43.640 -15.248   4.167  1.00  0.00    -0.251 NA
HETATM    7  C   UNL     1      42.763 -16.180   3.892  1.00  0.00     0.132 A 
HETATM    8  C   UNL     1      41.348 -15.640   3.905  1.00  0.00     0.272 A 
HETATM    9  O   UNL     1      40.319 -16.224   3.674  1.00  0.00    -0.266 OA
HETATM   10  N   UNL     1      41.502 -14.331   4.230  1.00  0.00    -0.327 N 
HETATM   11  C   UNL     1      43.347 -12.997   3.302  1.00  0.00     0.083 C 
HETATM   12  C   UNL     1      42.585 -11.696   3.409  1.00  0.00     0.240 C 
HETATM   13  H   UNL     1      40.687 -13.722   4.306  1.00  0.00     0.165 HD
ENDROOT
BRANCH   1  14
HETATM   14  C   UNL     1      41.396 -10.079   4.931  1.00  0.00     0.337 C 
BRANCH  14  15
HETATM   15  C   UNL     1      40.074 -10.645   5.479  1.00  0.00     0.248 C 
HETATM   16  N   UNL     1      39.094 -11.144   4.688  1.00  0.00    -0.326 N 
HETATM   17  H   UNL     1      38.334 -11.514   5.257  1.00  0.00     0.169 HD
HETATM   18  O   UNL     1      39.884 -10.699   6.703  1.00  0.00    -0.271 OA
BRANCH  16  19
HETATM   19  C   UNL     1      38.923 -11.310   3.304  1.00  0.00     0.034 A 
HETATM   20  C   UNL     1      39.230 -12.454   2.568  1.00  0.00     0.030 A 
HETATM   21  C   UNL     1      38.971 -12.495   1.188  1.00  0.00     0.020 A 
HETATM   22  C   UNL     1      38.409 -11.397   0.526  1.00  0.00     0.039 A 
HETATM   23  C   UNL     1      38.130 -10.240   1.254  1.00  0.00     0.020 A 
HETATM   24  C   UNL     1      38.389 -10.202   2.627  1.00  0.00     0.030 A 
BRANCH  22  25
HETATM   25  C   UNL     1      38.134 -11.507  -0.933  1.00  0.00     0.293 C 
HETATM   26  O   UNL     1      37.914 -10.540  -1.642  1.00  0.00    -0.259 OA
BRANCH  25  27
HETATM   27  O   UNL     1      38.198 -12.801  -1.324  1.00  0.00    -0.318 OA
BRANCH  27  28
HETATM   28  C   UNL     1      38.691 -13.040  -2.651  1.00  0.00     0.174 C 
HETATM   29  C   UNL     1      39.952 -13.880  -2.586  1.00  0.00     0.034 C 
ENDBRANCH  27  28
ENDBRANCH  25  27
ENDBRANCH  22  25
ENDBRANCH  16  19
ENDBRANCH  14  15
ENDBRANCH   1  14
BRANCH   7  30
HETATM   30  C   UNL     1      43.120 -17.584   3.600  1.00  0.00    -0.001 A 
HETATM   31  C   UNL     1      43.640 -18.445   4.571  1.00  0.00     0.037 A 
HETATM   32  C   UNL     1      43.948 -19.767   4.236  1.00  0.00     0.035 A 
HETATM   33 CL   UNL     1      44.585 -20.822   5.437  1.00  0.00    -0.084 Cl
HETATM   34  C   UNL     1      43.745 -20.240   2.943  1.00  0.00     0.024 A 
HETATM   35  C   UNL     1      43.231 -19.386   1.969  1.00  0.00     0.003 A 
HETATM   36  C   UNL     1      42.919 -18.064   2.296  1.00  0.00     0.014 A 
ENDBRANCH   7  30
TORSDOF 7
ENDMDL
