MODEL 1
REMARK VINA RESULT:      -7.9      0.000      0.000
REMARK  8 active torsions:
REMARK  status: ('A' for Active; 'I' for Inactive)
REMARK    1  A    between atoms: C_2  and  C_3 
REMARK    2  A    between atoms: C_3  and  N_4 
REMARK    3  A    between atoms: C_7  and  C_8 
REMARK       I    between atoms: C_8  and  N_9 
REMARK    4  A    between atoms: N_9  and  N_10 
REMARK       I    between atoms: N_10  and  C_11 
REMARK    5  A    between atoms: C_11  and  C_12 
REMARK    6  A    between atoms: C_15  and  O_16 
REMARK    7  A    between atoms: O_16  and  C_17 
REMARK    8  A    between atoms: C_23  and  C_24 
ROOT
HETATM    1  C   UNL     1      43.307 -14.979   7.078  1.00  0.00     0.273 C 
HETATM    2  N   UNL     1      43.527 -13.673   6.679  1.00  0.00    -0.263 N 
HETATM    3  O   UNL     1      42.930 -15.240   8.218  1.00  0.00    -0.266 OA
HETATM    4  H   UNL     1      43.955 -13.414   5.792  1.00  0.00     0.190 HD
ENDROOT
BRANCH   2   5
HETATM    5  N   UNL     1      43.327 -12.642   7.604  1.00  0.00    -0.263 N 
HETATM    6  C   UNL     1      44.306 -11.679   7.724  1.00  0.00     0.270 C 
HETATM    7  O   UNL     1      45.326 -11.687   7.038  1.00  0.00    -0.266 OA
HETATM    8  H   UNL     1      42.565 -12.775   8.267  1.00  0.00     0.190 HD
BRANCH   6   9
HETATM    9  C   UNL     1      44.081 -10.625   8.751  1.00  0.00     0.033 A 
HETATM   10  C   UNL     1      42.870  -9.925   8.732  1.00  0.00     0.020 A 
HETATM   11  C   UNL     1      42.615  -8.939   9.688  1.00  0.00     0.038 A 
HETATM   12  C   UNL     1      43.553  -8.647  10.681  1.00  0.00     0.068 A 
HETATM   13  C   UNL     1      44.759  -9.350  10.707  1.00  0.00     0.038 A 
HETATM   14  C   UNL     1      45.023 -10.339   9.749  1.00  0.00     0.020 A 
BRANCH  12  15
HETATM   15  O   UNL     1      43.173  -7.668  11.555  1.00  0.00    -0.352 OA
BRANCH  15  16
HETATM   16  C   UNL     1      43.387  -7.916  12.944  1.00  0.00     0.171 C 
HETATM   17  C   UNL     1      42.322  -8.891  13.414  1.00  0.00     0.034 C 
ENDBRANCH  15  16
ENDBRANCH  12  15
ENDBRANCH   6   9
ENDBRANCH   2   5
BRANCH   1  18
HETATM   18  C   UNL     1      43.525 -15.963   6.032  1.00  0.00     0.077 A 
HETATM   19  C   UNL     1      44.732 -16.680   5.835  1.00  0.00     0.158 A 
HETATM   20  N   UNL     1      44.685 -17.516   4.804  1.00  0.00    -0.183 NA
HETATM   21  N   UNL     1      43.456 -17.320   4.288  1.00  0.00    -0.268 N 
HETATM   22  C   UNL     1      42.688 -16.436   5.024  1.00  0.00     0.052 A 
BRANCH  21  23
HETATM   23  C   UNL     1      43.110 -18.010   3.044  1.00  0.00     0.106 C 
HETATM   24  C   UNL     1      43.323 -17.092   1.834  1.00  0.00     0.034 C 
BRANCH  23  25
HETATM   25  C   UNL     1      43.885 -19.328   2.870  1.00  0.00     0.022 C 
HETATM   26  C   UNL     1      43.242 -20.269   1.861  1.00  0.00     0.007 C 
ENDBRANCH  23  25
ENDBRANCH  21  23
BRANCH  22  27
HETATM   27  C   UNL     1      41.211 -16.148   4.738  1.00  0.00     0.038 A 
HETATM   28  C   UNL     1      40.682 -14.735   4.791  1.00  0.00     0.011 A 
HETATM   29  C   UNL     1      40.788 -15.438   3.478  1.00  0.00     0.011 A 
ENDBRANCH  22  27
ENDBRANCH   1  18
TORSDOF 8
ENDMDL
MODEL 2
REMARK VINA RESULT:      -7.6      2.309      9.968
REMARK  8 active torsions:
REMARK  status: ('A' for Active; 'I' for Inactive)
REMARK    1  A    between atoms: C_2  and  C_3 
REMARK    2  A    between atoms: C_3  and  N_4 
REMARK    3  A    between atoms: C_7  and  C_8 
REMARK       I    between atoms: C_8  and  N_9 
REMARK    4  A    between atoms: N_9  and  N_10 
REMARK       I    between atoms: N_10  and  C_11 
REMARK    5  A    between atoms: C_11  and  C_12 
REMARK    6  A    between atoms: C_15  and  O_16 
REMARK    7  A    between atoms: O_16  and  C_17 
REMARK    8  A    between atoms: C_23  and  C_24 
ROOT
HETATM    1  C   UNL     1      42.841 -10.835   6.590  1.00  0.00     0.273 C 
HETATM    2  N   UNL     1      42.783 -12.133   7.063  1.00  0.00    -0.263 N 
HETATM    3  O   UNL     1      43.046 -10.600   5.401  1.00  0.00    -0.266 OA
HETATM    4  H   UNL     1      42.741 -12.376   8.052  1.00  0.00     0.190 HD
ENDROOT
BRANCH   2   5
HETATM    5  N   UNL     1      42.978 -13.187   6.165  1.00  0.00    -0.263 N 
HETATM    6  C   UNL     1      43.151 -14.455   6.679  1.00  0.00     0.270 C 
HETATM    7  O   UNL     1      43.120 -14.686   7.886  1.00  0.00    -0.266 OA
HETATM    8  H   UNL     1      43.174 -12.925   5.200  1.00  0.00     0.190 HD
BRANCH   6   9
HETATM    9  C   UNL     1      43.403 -15.544   5.696  1.00  0.00     0.033 A 
HETATM   10  C   UNL     1      42.879 -15.409   4.406  1.00  0.00     0.020 A 
HETATM   11  C   UNL     1      43.105 -16.403   3.450  1.00  0.00     0.038 A 
HETATM   12  C   UNL     1      43.866 -17.532   3.761  1.00  0.00     0.068 A 
HETATM   13  C   UNL     1      44.397 -17.665   5.044  1.00  0.00     0.038 A 
HETATM   14  C   UNL     1      44.171 -16.673   6.010  1.00  0.00     0.020 A 
BRANCH  12  15
HETATM   15  O   UNL     1      44.016 -18.420   2.733  1.00  0.00    -0.352 OA
BRANCH  15  16
HETATM   16  C   UNL     1      43.761 -19.795   3.017  1.00  0.00     0.171 C 
HETATM   17  C   UNL     1      43.576 -20.520   1.696  1.00  0.00     0.034 C 
ENDBRANCH  15  16
ENDBRANCH  12  15
ENDBRANCH   6   9
ENDBRANCH   2   5
BRANCH   1  18
HETATM   18  C   UNL     1      42.605  -9.823   7.605  1.00  0.00     0.077 A 
HETATM   19  C   UNL     1      41.325  -9.406   8.050  1.00  0.00     0.158 A 
HETATM   20  N   UNL     1      41.373  -8.459   8.980  1.00  0.00    -0.183 NA
HETATM   21  N   UNL     1      42.691  -8.214   9.120  1.00  0.00    -0.268 N 
HETATM   22  C   UNL     1      43.486  -9.050   8.358  1.00  0.00     0.052 A 
BRANCH  21  23
HETATM   23  C   UNL     1      43.100  -7.116   9.997  1.00  0.00     0.106 C 
HETATM   24  C   UNL     1      42.553  -5.777   9.487  1.00  0.00     0.034 C 
BRANCH  23  25
HETATM   25  C   UNL     1      42.688  -7.350  11.461  1.00  0.00     0.022 C 
HETATM   26  C   UNL     1      43.492  -8.451  12.139  1.00  0.00     0.007 C 
ENDBRANCH  23  25
ENDBRANCH  21  23
BRANCH  22  27
HETATM   27  C   UNL     1      45.016  -9.078   8.441  1.00  0.00     0.038 A 
HETATM   28  C   UNL     1      45.709  -9.781   9.583  1.00  0.00     0.011 A 
HETATM   29  C   UNL     1      45.784 -10.353   8.206  1.00  0.00     0.011 A 
ENDBRANCH  22  27
ENDBRANCH   1  18
TORSDOF 8
ENDMDL
MODEL 3
REMARK VINA RESULT:      -7.6      1.677      2.234
REMARK  8 active torsions:
REMARK  status: ('A' for Active; 'I' for Inactive)
REMARK    1  A    between atoms: C_2  and  C_3 
REMARK    2  A    between atoms: C_3  and  N_4 
REMARK    3  A    between atoms: C_7  and  C_8 
REMARK       I    between atoms: C_8  and  N_9 
REMARK    4  A    between atoms: N_9  and  N_10 
REMARK       I    between atoms: N_10  and  C_11 
REMARK    5  A    between atoms: C_11  and  C_12 
REMARK    6  A    between atoms: C_15  and  O_16 
REMARK    7  A    between atoms: O_16  and  C_17 
REMARK    8  A    between atoms: C_23  and  C_24 
ROOT
HETATM    1  C   UNL     1      42.581 -14.855   6.471  1.00  0.00     0.273 C 
HETATM    2  N   UNL     1      43.659 -14.044   6.774  1.00  0.00    -0.263 N 
HETATM    3  O   UNL     1      41.428 -14.438   6.554  1.00  0.00    -0.266 OA
HETATM    4  H   UNL     1      44.620 -14.376   6.840  1.00  0.00     0.190 HD
ENDROOT
BRANCH   2   5
HETATM    5  N   UNL     1      43.418 -12.732   7.196  1.00  0.00    -0.263 N 
HETATM    6  C   UNL     1      44.432 -11.808   7.056  1.00  0.00     0.270 C 
HETATM    7  O   UNL     1      45.519 -12.094   6.560  1.00  0.00    -0.266 OA
HETATM    8  H   UNL     1      42.581 -12.588   7.759  1.00  0.00     0.190 HD
BRANCH   6   9
HETATM    9  C   UNL     1      44.156 -10.435   7.560  1.00  0.00     0.033 A 
HETATM   10  C   UNL     1      45.188  -9.744   8.205  1.00  0.00     0.020 A 
HETATM   11  C   UNL     1      44.973  -8.447   8.679  1.00  0.00     0.038 A 
HETATM   12  C   UNL     1      43.737  -7.819   8.506  1.00  0.00     0.068 A 
HETATM   13  C   UNL     1      42.709  -8.504   7.856  1.00  0.00     0.038 A 
HETATM   14  C   UNL     1      42.916  -9.806   7.381  1.00  0.00     0.020 A 
BRANCH  12  15
HETATM   15  O   UNL     1      43.666  -6.551   9.011  1.00  0.00    -0.352 OA
BRANCH  15  16
HETATM   16  C   UNL     1      42.451  -6.175   9.659  1.00  0.00     0.171 C 
HETATM   17  C   UNL     1      42.471  -6.756  11.062  1.00  0.00     0.034 C 
ENDBRANCH  15  16
ENDBRANCH  12  15
ENDBRANCH   6   9
ENDBRANCH   2   5
BRANCH   1  18
HETATM   18  C   UNL     1      42.949 -16.188   6.024  1.00  0.00     0.077 A 
HETATM   19  C   UNL     1      43.035 -17.327   6.862  1.00  0.00     0.158 A 
HETATM   20  N   UNL     1      43.402 -18.429   6.218  1.00  0.00    -0.183 NA
HETATM   21  N   UNL     1      43.603 -18.009   4.953  1.00  0.00    -0.268 N 
HETATM   22  C   UNL     1      43.288 -16.676   4.764  1.00  0.00     0.052 A 
BRANCH  21  23
HETATM   23  C   UNL     1      44.143 -18.964   3.985  1.00  0.00     0.106 C 
HETATM   24  C   UNL     1      44.204 -20.374   4.585  1.00  0.00     0.034 C 
BRANCH  23  25
HETATM   25  C   UNL     1      43.352 -18.970   2.664  1.00  0.00     0.022 C 
HETATM   26  C   UNL     1      43.431 -20.300   1.927  1.00  0.00     0.007 C 
ENDBRANCH  23  25
ENDBRANCH  21  23
BRANCH  22  27
HETATM   27  C   UNL     1      43.290 -15.987   3.395  1.00  0.00     0.038 A 
HETATM   28  C   UNL     1      41.992 -15.579   2.741  1.00  0.00     0.011 A 
HETATM   29  C   UNL     1      42.922 -14.532   3.257  1.00  0.00     0.011 A 
ENDBRANCH  22  27
ENDBRANCH   1  18
TORSDOF 8
ENDMDL
MODEL 4
REMARK VINA RESULT:      -7.5      1.586      2.369
REMARK  8 active torsions:
REMARK  status: ('A' for Active; 'I' for Inactive)
REMARK    1  A    between atoms: C_2  and  C_3 
REMARK    2  A    between atoms: C_3  and  N_4 
REMARK    3  A    between atoms: C_7  and  C_8 
REMARK       I    between atoms: C_8  and  N_9 
REMARK    4  A    between atoms: N_9  and  N_10 
REMARK       I    between atoms: N_10  and  C_11 
REMARK    5  A    between atoms: C_11  and  C_12 
REMARK    6  A    between atoms: C_15  and  O_16 
REMARK    7  A    between atoms: O_16  and  C_17 
REMARK    8  A    between atoms: C_23  and  C_24 
ROOT
HETATM    1  C   UNL     1      42.149 -13.227   5.874  1.00  0.00     0.273 C 
HETATM    2  N   UNL     1      43.195 -12.674   6.590  1.00  0.00    -0.263 N 
HETATM    3  O   UNL     1      41.007 -12.784   5.972  1.00  0.00    -0.266 OA
HETATM    4  H   UNL     1      44.128 -13.080   6.639  1.00  0.00     0.190 HD
ENDROOT
BRANCH   2   5
HETATM    5  N   UNL     1      42.932 -11.600   7.447  1.00  0.00    -0.263 N 
HETATM    6  C   UNL     1      43.986 -11.058   8.151  1.00  0.00     0.270 C 
HETATM    7  O   UNL     1      45.138 -11.471   8.035  1.00  0.00    -0.266 OA
HETATM    8  H   UNL     1      41.950 -11.413   7.644  1.00  0.00     0.190 HD
BRANCH   6   9
HETATM    9  C   UNL     1      43.660  -9.949   9.089  1.00  0.00     0.033 A 
HETATM   10  C   UNL     1      43.825 -10.168  10.461  1.00  0.00     0.020 A 
HETATM   11  C   UNL     1      43.543  -9.147  11.372  1.00  0.00     0.038 A 
HETATM   12  C   UNL     1      43.111  -7.894  10.930  1.00  0.00     0.068 A 
HETATM   13  C   UNL     1      42.955  -7.670   9.562  1.00  0.00     0.038 A 
HETATM   14  C   UNL     1      43.232  -8.691   8.641  1.00  0.00     0.020 A 
BRANCH  12  15
HETATM   15  O   UNL     1      42.880  -6.987  11.925  1.00  0.00    -0.352 OA
BRANCH  15  16
HETATM   16  C   UNL     1      42.279  -7.474  13.125  1.00  0.00     0.171 C 
HETATM   17  C   UNL     1      43.151  -7.046  14.292  1.00  0.00     0.034 C 
ENDBRANCH  15  16
ENDBRANCH  12  15
ENDBRANCH   6   9
ENDBRANCH   2   5
BRANCH   1  18
HETATM   18  C   UNL     1      42.540 -14.322   5.002  1.00  0.00     0.077 A 
HETATM   19  C   UNL     1      42.883 -14.183   3.634  1.00  0.00     0.158 A 
HETATM   20  N   UNL     1      43.196 -15.334   3.050  1.00  0.00    -0.183 NA
HETATM   21  N   UNL     1      43.017 -16.248   4.025  1.00  0.00    -0.268 N 
HETATM   22  C   UNL     1      42.678 -15.687   5.243  1.00  0.00     0.052 A 
BRANCH  21  23
HETATM   23  C   UNL     1      43.161 -17.663   3.682  1.00  0.00     0.106 C 
HETATM   24  C   UNL     1      42.986 -17.878   2.173  1.00  0.00     0.034 C 
BRANCH  23  25
HETATM   25  C   UNL     1      44.499 -18.250   4.163  1.00  0.00     0.022 C 
HETATM   26  C   UNL     1      44.345 -19.596   4.858  1.00  0.00     0.007 C 
ENDBRANCH  23  25
ENDBRANCH  21  23
BRANCH  22  27
HETATM   27  C   UNL     1      42.558 -16.487   6.544  1.00  0.00     0.038 A 
HETATM   28  C   UNL     1      43.789 -16.833   7.348  1.00  0.00     0.011 A 
HETATM   29  C   UNL     1      42.810 -15.839   7.881  1.00  0.00     0.011 A 
ENDBRANCH  22  27
ENDBRANCH   1  18
TORSDOF 8
ENDMDL
MODEL 5
REMARK VINA RESULT:      -7.5      2.262      9.822
REMARK  8 active torsions:
REMARK  status: ('A' for Active; 'I' for Inactive)
REMARK    1  A    between atoms: C_2  and  C_3 
REMARK    2  A    between atoms: C_3  and  N_4 
REMARK    3  A    between atoms: C_7  and  C_8 
REMARK       I    between atoms: C_8  and  N_9 
REMARK    4  A    between atoms: N_9  and  N_10 
REMARK       I    between atoms: N_10  and  C_11 
REMARK    5  A    between atoms: C_11  and  C_12 
REMARK    6  A    between atoms: C_15  and  O_16 
REMARK    7  A    between atoms: O_16  and  C_17 
REMARK    8  A    between atoms: C_23  and  C_24 
ROOT
HETATM    1  C   UNL     1      44.378 -11.607   7.321  1.00  0.00     0.273 C 
HETATM    2  N   UNL     1      43.575 -12.717   7.504  1.00  0.00    -0.263 N 
HETATM    3  O   UNL     1      45.094 -11.497   6.328  1.00  0.00    -0.266 OA
HETATM    4  H   UNL     1      43.061 -12.913   8.362  1.00  0.00     0.190 HD
ENDROOT
BRANCH   2   5
HETATM    5  N   UNL     1      43.599 -13.732   6.541  1.00  0.00    -0.263 N 
HETATM    6  C   UNL     1      42.459 -13.946   5.794  1.00  0.00     0.270 C 
HETATM    7  O   UNL     1      41.444 -13.267   5.932  1.00  0.00    -0.266 OA
HETATM    8  H   UNL     1      44.386 -14.377   6.587  1.00  0.00     0.190 HD
BRANCH   6   9
HETATM    9  C   UNL     1      42.505 -15.065   4.814  1.00  0.00     0.033 A 
HETATM   10  C   UNL     1      43.459 -16.072   4.999  1.00  0.00     0.020 A 
HETATM   11  C   UNL     1      43.525 -17.146   4.108  1.00  0.00     0.038 A 
HETATM   12  C   UNL     1      42.636 -17.240   3.035  1.00  0.00     0.068 A 
HETATM   13  C   UNL     1      41.678 -16.241   2.853  1.00  0.00     0.038 A 
HETATM   14  C   UNL     1      41.608 -15.158   3.741  1.00  0.00     0.020 A 
BRANCH  12  15
HETATM   15  O   UNL     1      42.806 -18.344   2.248  1.00  0.00    -0.352 OA
BRANCH  15  16
HETATM   16  C   UNL     1      43.813 -19.276   2.642  1.00  0.00     0.171 C 
HETATM   17  C   UNL     1      43.624 -20.542   1.824  1.00  0.00     0.034 C 
ENDBRANCH  15  16
ENDBRANCH  12  15
ENDBRANCH   6   9
ENDBRANCH   2   5
BRANCH   1  18
HETATM   18  C   UNL     1      44.258 -10.609   8.370  1.00  0.00     0.077 A 
HETATM   19  C   UNL     1      45.262 -10.316   9.327  1.00  0.00     0.158 A 
HETATM   20  N   UNL     1      44.907  -9.369  10.188  1.00  0.00    -0.183 NA
HETATM   21  N   UNL     1      43.645  -9.064   9.829  1.00  0.00    -0.268 N 
HETATM   22  C   UNL     1      43.221  -9.740   8.699  1.00  0.00     0.052 A 
BRANCH  21  23
HETATM   23  C   UNL     1      42.897  -8.124  10.663  1.00  0.00     0.106 C 
HETATM   24  C   UNL     1      43.348  -8.213  12.126  1.00  0.00     0.034 C 
BRANCH  23  25
HETATM   25  C   UNL     1      42.998  -6.676  10.151  1.00  0.00     0.022 C 
HETATM   26  C   UNL     1      41.645  -5.985  10.043  1.00  0.00     0.007 C 
ENDBRANCH  23  25
ENDBRANCH  21  23
BRANCH  22  27
HETATM   27  C   UNL     1      41.884  -9.472   7.999  1.00  0.00     0.038 A 
HETATM   28  C   UNL     1      41.734  -8.303   7.055  1.00  0.00     0.011 A 
HETATM   29  C   UNL     1      41.724  -9.696   6.518  1.00  0.00     0.011 A 
ENDBRANCH  22  27
ENDBRANCH   1  18
TORSDOF 8
ENDMDL
MODEL 6
REMARK VINA RESULT:      -7.5      2.492     10.052
REMARK  8 active torsions:
REMARK  status: ('A' for Active; 'I' for Inactive)
REMARK    1  A    between atoms: C_2  and  C_3 
REMARK    2  A    between atoms: C_3  and  N_4 
REMARK    3  A    between atoms: C_7  and  C_8 
REMARK       I    between atoms: C_8  and  N_9 
REMARK    4  A    between atoms: N_9  and  N_10 
REMARK       I    between atoms: N_10  and  C_11 
REMARK    5  A    between atoms: C_11  and  C_12 
REMARK    6  A    between atoms: C_15  and  O_16 
REMARK    7  A    between atoms: O_16  and  C_17 
REMARK    8  A    between atoms: C_23  and  C_24 
ROOT
HETATM    1  C   UNL     1      43.957 -10.725   8.355  1.00  0.00     0.273 C 
HETATM    2  N   UNL     1      43.067 -11.480   7.614  1.00  0.00    -0.263 N 
HETATM    3  O   UNL     1      45.097 -11.125   8.579  1.00  0.00    -0.266 OA
HETATM    4  H   UNL     1      42.079 -11.252   7.506  1.00  0.00     0.190 HD
ENDROOT
BRANCH   2   5
HETATM    5  N   UNL     1      43.479 -12.726   7.130  1.00  0.00    -0.263 N 
HETATM    6  C   UNL     1      42.688 -13.352   6.190  1.00  0.00     0.270 C 
HETATM    7  O   UNL     1      41.656 -12.846   5.755  1.00  0.00    -0.266 OA
HETATM    8  H   UNL     1      44.232 -13.181   7.643  1.00  0.00     0.190 HD
BRANCH   6   9
HETATM    9  C   UNL     1      43.133 -14.697   5.733  1.00  0.00     0.033 A 
HETATM   10  C   UNL     1      42.685 -15.160   4.491  1.00  0.00     0.020 A 
HETATM   11  C   UNL     1      43.092 -16.411   4.021  1.00  0.00     0.038 A 
HETATM   12  C   UNL     1      43.959 -17.209   4.772  1.00  0.00     0.068 A 
HETATM   13  C   UNL     1      44.415 -16.745   6.007  1.00  0.00     0.038 A 
HETATM   14  C   UNL     1      44.008 -15.492   6.487  1.00  0.00     0.020 A 
BRANCH  12  15
HETATM   15  O   UNL     1      44.282 -18.403   4.191  1.00  0.00    -0.352 OA
BRANCH  15  16
HETATM   16  C   UNL     1      43.869 -18.603   2.839  1.00  0.00     0.171 C 
HETATM   17  C   UNL     1      43.675 -20.094   2.625  1.00  0.00     0.034 C 
ENDBRANCH  15  16
ENDBRANCH  12  15
ENDBRANCH   6   9
ENDBRANCH   2   5
BRANCH   1  18
HETATM   18  C   UNL     1      43.429  -9.443   8.788  1.00  0.00     0.077 A 
HETATM   19  C   UNL     1      42.849  -8.475   7.931  1.00  0.00     0.158 A 
HETATM   20  N   UNL     1      42.450  -7.379   8.566  1.00  0.00    -0.183 NA
HETATM   21  N   UNL     1      42.808  -7.602   9.846  1.00  0.00    -0.268 N 
HETATM   22  C   UNL     1      43.350  -8.858  10.050  1.00  0.00     0.052 A 
BRANCH  21  23
HETATM   23  C   UNL     1      42.621  -6.522  10.815  1.00  0.00     0.106 C 
HETATM   24  C   UNL     1      42.613  -5.157  10.116  1.00  0.00     0.034 C 
BRANCH  23  25
HETATM   25  C   UNL     1      41.348  -6.707  11.661  1.00  0.00     0.022 C 
HETATM   26  C   UNL     1      40.144  -7.148  10.839  1.00  0.00     0.007 C 
ENDBRANCH  23  25
ENDBRANCH  21  23
BRANCH  22  27
HETATM   27  C   UNL     1      43.706  -9.417  11.432  1.00  0.00     0.038 A 
HETATM   28  C   UNL     1      42.639 -10.019  12.313  1.00  0.00     0.011 A 
HETATM   29  C   UNL     1      43.678 -10.899  11.701  1.00  0.00     0.011 A 
ENDBRANCH  22  27
ENDBRANCH   1  18
TORSDOF 8
ENDMDL
MODEL 7
REMARK VINA RESULT:      -7.4      2.110      2.830
REMARK  8 active torsions:
REMARK  status: ('A' for Active; 'I' for Inactive)
REMARK    1  A    between atoms: C_2  and  C_3 
REMARK    2  A    between atoms: C_3  and  N_4 
REMARK    3  A    between atoms: C_7  and  C_8 
REMARK       I    between atoms: C_8  and  N_9 
REMARK    4  A    between atoms: N_9  and  N_10 
REMARK       I    between atoms: N_10  and  C_11 
REMARK    5  A    between atoms: C_11  and  C_12 
REMARK    6  A    between atoms: C_15  and  O_16 
REMARK    7  A    between atoms: O_16  and  C_17 
REMARK    8  A    between atoms: C_23  and  C_24 
ROOT
HETATM    1  C   UNL     1      41.820 -12.085   5.849  1.00  0.00     0.273 C 
HETATM    2  N   UNL     1      42.928 -11.795   6.625  1.00  0.00    -0.263 N 
HETATM    3  O   UNL     1      40.708 -11.652   6.142  1.00  0.00    -0.266 OA
HETATM    4  H   UNL     1      43.841 -12.227   6.496  1.00  0.00     0.190 HD
ENDROOT
BRANCH   2   5
HETATM    5  N   UNL     1      42.762 -11.005   7.768  1.00  0.00    -0.263 N 
HETATM    6  C   UNL     1      43.852 -10.819   8.592  1.00  0.00     0.270 C 
HETATM    7  O   UNL     1      44.955 -11.302   8.345  1.00  0.00    -0.266 OA
HETATM    8  H   UNL     1      41.802 -10.780   8.023  1.00  0.00     0.190 HD
BRANCH   6   9
HETATM    9  C   UNL     1      43.626 -10.014   9.823  1.00  0.00     0.033 A 
HETATM   10  C   UNL     1      43.574 -10.680  11.053  1.00  0.00     0.020 A 
HETATM   11  C   UNL     1      43.378  -9.957  12.233  1.00  0.00     0.038 A 
HETATM   12  C   UNL     1      43.246  -8.567  12.206  1.00  0.00     0.068 A 
HETATM   13  C   UNL     1      43.307  -7.900  10.981  1.00  0.00     0.038 A 
HETATM   14  C   UNL     1      43.499  -8.618   9.793  1.00  0.00     0.020 A 
BRANCH  12  15
HETATM   15  O   UNL     1      43.068  -7.987  13.430  1.00  0.00    -0.352 OA
BRANCH  15  16
HETATM   16  C   UNL     1      42.143  -8.613  14.319  1.00  0.00     0.171 C 
HETATM   17  C   UNL     1      40.765  -8.037  14.042  1.00  0.00     0.034 C 
ENDBRANCH  15  16
ENDBRANCH  12  15
ENDBRANCH   6   9
ENDBRANCH   2   5
BRANCH   1  18
HETATM   18  C   UNL     1      42.112 -12.893   4.678  1.00  0.00     0.077 A 
HETATM   19  C   UNL     1      43.041 -12.545   3.665  1.00  0.00     0.158 A 
HETATM   20  N   UNL     1      43.122 -13.445   2.692  1.00  0.00    -0.183 NA
HETATM   21  N   UNL     1      42.210 -14.374   3.038  1.00  0.00    -0.268 N 
HETATM   22  C   UNL     1      41.611 -14.124   4.259  1.00  0.00     0.052 A 
BRANCH  21  23
HETATM   23  C   UNL     1      41.949 -15.469   2.103  1.00  0.00     0.106 C 
HETATM   24  C   UNL     1      41.235 -14.955   0.846  1.00  0.00     0.034 C 
BRANCH  23  25
HETATM   25  C   UNL     1      43.229 -16.235   1.725  1.00  0.00     0.022 C 
HETATM   26  C   UNL     1      43.408 -17.525   2.516  1.00  0.00     0.007 C 
ENDBRANCH  23  25
ENDBRANCH  21  23
BRANCH  22  27
HETATM   27  C   UNL     1      40.647 -15.094   4.950  1.00  0.00     0.038 A 
HETATM   28  C   UNL     1      41.160 -16.369   5.575  1.00  0.00     0.011 A 
HETATM   29  C   UNL     1      40.657 -15.266   6.447  1.00  0.00     0.011 A 
ENDBRANCH  22  27
ENDBRANCH   1  18
TORSDOF 8
ENDMDL
MODEL 8
REMARK VINA RESULT:      -7.0      5.596      9.356
REMARK  8 active torsions:
REMARK  status: ('A' for Active; 'I' for Inactive)
REMARK    1  A    between atoms: C_2  and  C_3 
REMARK    2  A    between atoms: C_3  and  N_4 
REMARK    3  A    between atoms: C_7  and  C_8 
REMARK       I    between atoms: C_8  and  N_9 
REMARK    4  A    between atoms: N_9  and  N_10 
REMARK       I    between atoms: N_10  and  C_11 
REMARK    5  A    between atoms: C_11  and  C_12 
REMARK    6  A    between atoms: C_15  and  O_16 
REMARK    7  A    between atoms: O_16  and  C_17 
REMARK    8  A    between atoms: C_23  and  C_24 
ROOT
HETATM    1  C   UNL     1      40.835 -14.091   3.572  1.00  0.00     0.273 C 
HETATM    2  N   UNL     1      39.838 -14.634   2.783  1.00  0.00    -0.263 N 
HETATM    3  O   UNL     1      41.161 -12.911   3.462  1.00  0.00    -0.266 OA
HETATM    4  H   UNL     1      39.617 -15.628   2.748  1.00  0.00     0.190 HD
ENDROOT
BRANCH   2   5
HETATM    5  N   UNL     1      39.207 -13.818   1.837  1.00  0.00    -0.263 N 
HETATM    6  C   UNL     1      39.634 -13.893   0.528  1.00  0.00     0.270 C 
HETATM    7  O   UNL     1      40.525 -14.658   0.168  1.00  0.00    -0.266 OA
HETATM    8  H   UNL     1      38.609 -13.081   2.207  1.00  0.00     0.190 HD
BRANCH   6   9
HETATM    9  C   UNL     1      38.973 -12.976  -0.441  1.00  0.00     0.033 A 
HETATM   10  C   UNL     1      38.956 -13.338  -1.793  1.00  0.00     0.020 A 
HETATM   11  C   UNL     1      38.333 -12.512  -2.732  1.00  0.00     0.038 A 
HETATM   12  C   UNL     1      37.709 -11.326  -2.337  1.00  0.00     0.068 A 
HETATM   13  C   UNL     1      37.718 -10.967  -0.988  1.00  0.00     0.038 A 
HETATM   14  C   UNL     1      38.344 -11.790  -0.041  1.00  0.00     0.020 A 
BRANCH  12  15
HETATM   15  O   UNL     1      37.133 -10.618  -3.354  1.00  0.00    -0.352 OA
BRANCH  15  16
HETATM   16  C   UNL     1      35.769 -10.234  -3.188  1.00  0.00     0.171 C 
HETATM   17  C   UNL     1      34.899 -11.327  -3.784  1.00  0.00     0.034 C 
ENDBRANCH  15  16
ENDBRANCH  12  15
ENDBRANCH   6   9
ENDBRANCH   2   5
BRANCH   1  18
HETATM   18  C   UNL     1      41.404 -15.022   4.531  1.00  0.00     0.077 A 
HETATM   19  C   UNL     1      40.863 -15.296   5.812  1.00  0.00     0.158 A 
HETATM   20  N   UNL     1      41.573 -16.178   6.506  1.00  0.00    -0.183 NA
HETATM   21  N   UNL     1      42.616 -16.456   5.700  1.00  0.00    -0.268 N 
HETATM   22  C   UNL     1      42.536 -15.832   4.468  1.00  0.00     0.052 A 
BRANCH  21  23
HETATM   23  C   UNL     1      43.678 -17.320   6.216  1.00  0.00     0.106 C 
HETATM   24  C   UNL     1      44.016 -16.960   7.668  1.00  0.00     0.034 C 
BRANCH  23  25
HETATM   25  C   UNL     1      43.331 -18.814   6.093  1.00  0.00     0.022 C 
HETATM   26  C   UNL     1      44.142 -19.529   5.020  1.00  0.00     0.007 C 
ENDBRANCH  23  25
ENDBRANCH  21  23
BRANCH  22  27
HETATM   27  C   UNL     1      43.514 -16.092   3.317  1.00  0.00     0.038 A 
HETATM   28  C   UNL     1      43.191 -17.113   2.253  1.00  0.00     0.011 A 
HETATM   29  C   UNL     1      43.190 -15.660   1.910  1.00  0.00     0.011 A 
ENDBRANCH  22  27
ENDBRANCH   1  18
TORSDOF 8
ENDMDL
MODEL 9
REMARK VINA RESULT:      -6.9      2.034      2.877
REMARK  8 active torsions:
REMARK  status: ('A' for Active; 'I' for Inactive)
REMARK    1  A    between atoms: C_2  and  C_3 
REMARK    2  A    between atoms: C_3  and  N_4 
REMARK    3  A    between atoms: C_7  and  C_8 
REMARK       I    between atoms: C_8  and  N_9 
REMARK    4  A    between atoms: N_9  and  N_10 
REMARK       I    between atoms: N_10  and  C_11 
REMARK    5  A    between atoms: C_11  and  C_12 
REMARK    6  A    between atoms: C_15  and  O_16 
REMARK    7  A    between atoms: O_16  and  C_17 
REMARK    8  A    between atoms: C_23  and  C_24 
ROOT
HETATM    1  C   UNL     1      43.186 -12.571   6.072  1.00  0.00     0.273 C 
HETATM    2  N   UNL     1      42.109 -11.756   6.370  1.00  0.00    -0.263 N 
HETATM    3  O   UNL     1      44.206 -12.551   6.757  1.00  0.00    -0.266 OA
HETATM    4  H   UNL     1      41.295 -11.646   5.766  1.00  0.00     0.190 HD
ENDROOT
BRANCH   2   5
HETATM    5  N   UNL     1      42.201 -10.889   7.463  1.00  0.00    -0.263 N 
HETATM    6  C   UNL     1      42.134  -9.532   7.224  1.00  0.00     0.270 C 
HETATM    7  O   UNL     1      41.977  -9.070   6.096  1.00  0.00    -0.266 OA
HETATM    8  H   UNL     1      42.507 -11.304   8.341  1.00  0.00     0.190 HD
BRANCH   6   9
HETATM    9  C   UNL     1      42.283  -8.639   8.405  1.00  0.00     0.033 A 
HETATM   10  C   UNL     1      41.840  -9.102   9.649  1.00  0.00     0.020 A 
HETATM   11  C   UNL     1      41.976  -8.299  10.784  1.00  0.00     0.038 A 
HETATM   12  C   UNL     1      42.566  -7.035  10.698  1.00  0.00     0.068 A 
HETATM   13  C   UNL     1      43.017  -6.575   9.460  1.00  0.00     0.038 A 
HETATM   14  C   UNL     1      42.880  -7.374   8.316  1.00  0.00     0.020 A 
BRANCH  12  15
HETATM   15  O   UNL     1      42.643  -6.360  11.884  1.00  0.00    -0.352 OA
BRANCH  15  16
HETATM   16  C   UNL     1      42.059  -6.984  13.028  1.00  0.00     0.171 C 
HETATM   17  C   UNL     1      43.142  -7.140  14.080  1.00  0.00     0.034 C 
ENDBRANCH  15  16
ENDBRANCH  12  15
ENDBRANCH   6   9
ENDBRANCH   2   5
BRANCH   1  18
HETATM   18  C   UNL     1      42.972 -13.444   4.931  1.00  0.00     0.077 A 
HETATM   19  C   UNL     1      43.196 -13.079   3.580  1.00  0.00     0.158 A 
HETATM   20  N   UNL     1      42.917 -14.051   2.718  1.00  0.00    -0.183 NA
HETATM   21  N   UNL     1      42.463 -15.050   3.499  1.00  0.00    -0.268 N 
HETATM   22  C   UNL     1      42.529 -14.762   4.850  1.00  0.00     0.052 A 
BRANCH  21  23
HETATM   23  C   UNL     1      41.943 -16.254   2.849  1.00  0.00     0.106 C 
HETATM   24  C   UNL     1      40.753 -15.913   1.942  1.00  0.00     0.034 C 
BRANCH  23  25
HETATM   25  C   UNL     1      43.028 -17.010   2.061  1.00  0.00     0.022 C 
HETATM   26  C   UNL     1      43.138 -18.476   2.455  1.00  0.00     0.007 C 
ENDBRANCH  23  25
ENDBRANCH  21  23
BRANCH  22  27
HETATM   27  C   UNL     1      42.211 -15.776   5.953  1.00  0.00     0.038 A 
HETATM   28  C   UNL     1      43.125 -16.952   6.200  1.00  0.00     0.011 A 
HETATM   29  C   UNL     1      43.046 -15.851   7.205  1.00  0.00     0.011 A 
ENDBRANCH  22  27
ENDBRANCH   1  18
TORSDOF 8
ENDMDL
MODEL 10
REMARK VINA RESULT:      -6.8      6.578     10.210
REMARK  8 active torsions:
REMARK  status: ('A' for Active; 'I' for Inactive)
REMARK    1  A    between atoms: C_2  and  C_3 
REMARK    2  A    between atoms: C_3  and  N_4 
REMARK    3  A    between atoms: C_7  and  C_8 
REMARK       I    between atoms: C_8  and  N_9 
REMARK    4  A    between atoms: N_9  and  N_10 
REMARK       I    between atoms: N_10  and  C_11 
REMARK    5  A    between atoms: C_11  and  C_12 
REMARK    6  A    between atoms: C_15  and  O_16 
REMARK    7  A    between atoms: O_16  and  C_17 
REMARK    8  A    between atoms: C_23  and  C_24 
ROOT
HETATM    1  C   UNL     1      40.079 -13.114   0.274  1.00  0.00     0.273 C 
HETATM    2  N   UNL     1      39.645 -14.363   0.679  1.00  0.00    -0.263 N 
HETATM    3  O   UNL     1      41.268 -12.807   0.324  1.00  0.00    -0.266 OA
HETATM    4  H   UNL     1      38.664 -14.622   0.773  1.00  0.00     0.190 HD
ENDROOT
BRANCH   2   5
HETATM    5  N   UNL     1      40.585 -15.279   1.165  1.00  0.00    -0.263 N 
HETATM    6  C   UNL     1      40.798 -15.329   2.526  1.00  0.00     0.270 C 
HETATM    7  O   UNL     1      40.181 -14.618   3.317  1.00  0.00    -0.266 OA
HETATM    8  H   UNL     1      41.191 -15.711   0.471  1.00  0.00     0.190 HD
BRANCH   6   9
HETATM    9  C   UNL     1      41.839 -16.280   3.003  1.00  0.00     0.033 A 
HETATM   10  C   UNL     1      42.214 -16.235   4.350  1.00  0.00     0.020 A 
HETATM   11  C   UNL     1      43.177 -17.121   4.839  1.00  0.00     0.038 A 
HETATM   12  C   UNL     1      43.766 -18.070   4.000  1.00  0.00     0.068 A 
HETATM   13  C   UNL     1      43.387 -18.123   2.658  1.00  0.00     0.038 A 
HETATM   14  C   UNL     1      42.424 -17.235   2.159  1.00  0.00     0.020 A 
BRANCH  12  15
HETATM   15  O   UNL     1      44.685 -18.878   4.609  1.00  0.00    -0.352 OA
BRANCH  15  16
HETATM   16  C   UNL     1      44.459 -20.286   4.545  1.00  0.00     0.171 C 
HETATM   17  C   UNL     1      43.682 -20.691   5.785  1.00  0.00     0.034 C 
ENDBRANCH  15  16
ENDBRANCH  12  15
ENDBRANCH   6   9
ENDBRANCH   2   5
BRANCH   1  18
HETATM   18  C   UNL     1      39.022 -12.255  -0.231  1.00  0.00     0.077 A 
HETATM   19  C   UNL     1      38.130 -11.507   0.578  1.00  0.00     0.158 A 
HETATM   20  N   UNL     1      37.246 -10.806  -0.122  1.00  0.00    -0.183 NA
HETATM   21  N   UNL     1      37.524 -11.124  -1.401  1.00  0.00    -0.268 N 
HETATM   22  C   UNL     1      38.626 -11.950  -1.531  1.00  0.00     0.052 A 
BRANCH  21  23
HETATM   23  C   UNL     1      36.642 -10.609  -2.449  1.00  0.00     0.106 C 
HETATM   24  C   UNL     1      37.406  -9.675  -3.395  1.00  0.00     0.034 C 
BRANCH  23  25
HETATM   25  C   UNL     1      35.949 -11.735  -3.238  1.00  0.00     0.022 C 
HETATM   26  C   UNL     1      34.779 -11.242  -4.078  1.00  0.00     0.007 C 
ENDBRANCH  23  25
ENDBRANCH  21  23
BRANCH  22  27
HETATM   27  C   UNL     1      39.239 -12.344  -2.879  1.00  0.00     0.038 A 
HETATM   28  C   UNL     1      40.688 -12.043  -3.179  1.00  0.00     0.011 A 
HETATM   29  C   UNL     1      40.251 -13.456  -2.976  1.00  0.00     0.011 A 
ENDBRANCH  22  27
ENDBRANCH   1  18
TORSDOF 8
ENDMDL
