MODEL 1
REMARK VINA RESULT:      -8.1      0.000      0.000
REMARK  5 active torsions:
REMARK  status: ('A' for Active; 'I' for Inactive)
REMARK    1  A    between atoms: C_2  and  C_3 
REMARK    2  A    between atoms: C_4  and  N_5 
REMARK       I    between atoms: N_5  and  C_6 
REMARK    3  A    between atoms: C_6  and  C_7 
REMARK    4  A    between atoms: C_10  and  O_11 
REMARK    5  A    between atoms: C_20  and  C_21 
ROOT
HETATM    1  C   UNL     1      42.476 -15.898   4.108  1.00  0.00     0.018 A 
HETATM    2  C   UNL     1      42.378 -14.694   3.435  1.00  0.00     0.133 A 
HETATM    3  N   UNL     1      43.016 -14.863   2.245  1.00  0.00    -0.261 N 
HETATM    4  H   UNL     1      43.162 -14.165   1.520  1.00  0.00     0.191 HD
HETATM    5  N   UNL     1      43.429 -16.113   2.038  1.00  0.00    -0.172 NA
HETATM    6  C   UNL     1      43.108 -16.791   3.157  1.00  0.00     0.097 A 
ENDROOT
BRANCH   2   7
HETATM    7  N   UNL     1      41.733 -13.555   3.895  1.00  0.00    -0.307 N 
HETATM    8  C   UNL     1      40.350 -13.313   3.615  1.00  0.00     0.260 C 
HETATM    9  O   UNL     1      39.749 -14.053   2.851  1.00  0.00    -0.267 OA
HETATM   10  H   UNL     1      42.250 -12.917   4.489  1.00  0.00     0.170 HD
BRANCH   8  11
HETATM   11  C   UNL     1      39.710 -12.152   4.265  1.00  0.00     0.073 A 
HETATM   12  C   UNL     1      39.498 -12.136   5.645  1.00  0.00     0.165 A 
HETATM   13  F   UNL     1      39.942 -13.165   6.385  1.00  0.00    -0.202 F 
HETATM   14  C   UNL     1      38.846 -11.060   6.251  1.00  0.00     0.107 A 
HETATM   15  C   UNL     1      38.457  -9.972   5.463  1.00  0.00     0.040 A 
HETATM   16  C   UNL     1      38.670  -9.979   4.083  1.00  0.00     0.004 A 
HETATM   17  C   UNL     1      39.284 -11.075   3.478  1.00  0.00     0.020 A 
BRANCH  14  18
HETATM   18  O   UNL     1      38.563 -10.935   7.582  1.00  0.00    -0.353 OA
HETATM   19  C   UNL     1      39.296  -9.942   8.294  1.00  0.00     0.210 C 
ENDBRANCH  14  18
ENDBRANCH   8  11
ENDBRANCH   2   7
BRANCH   1  20
HETATM   20  C   UNL     1      42.015 -16.144   5.507  1.00  0.00     0.040 C 
HETATM   21  C   UNL     1      40.517 -16.387   5.604  1.00  0.00     0.010 C 
ENDBRANCH   1  20
BRANCH   6  22
HETATM   22  C   UNL     1      43.421 -18.237   3.212  1.00  0.00    -0.002 A 
HETATM   23  C   UNL     1      43.127 -19.043   2.100  1.00  0.00     0.033 A 
HETATM   24  C   UNL     1      43.393 -20.402   2.146  1.00  0.00     0.117 A 
HETATM   25  N   UNL     1      43.932 -21.018   3.215  1.00  0.00    -0.273 NA
HETATM   26  C   UNL     1      44.211 -20.240   4.277  1.00  0.00     0.117 A 
HETATM   27  C   UNL     1      43.974 -18.871   4.325  1.00  0.00     0.033 A 
ENDBRANCH   6  22
TORSDOF 5
ENDMDL
MODEL 2
REMARK VINA RESULT:      -7.8      3.240      3.570
REMARK  5 active torsions:
REMARK  status: ('A' for Active; 'I' for Inactive)
REMARK    1  A    between atoms: C_2  and  C_3 
REMARK    2  A    between atoms: C_4  and  N_5 
REMARK       I    between atoms: N_5  and  C_6 
REMARK    3  A    between atoms: C_6  and  C_7 
REMARK    4  A    between atoms: C_10  and  O_11 
REMARK    5  A    between atoms: C_20  and  C_21 
ROOT
HETATM    1  C   UNL     1      43.731 -16.172   5.177  1.00  0.00     0.018 A 
HETATM    2  C   UNL     1      43.117 -14.952   4.962  1.00  0.00     0.133 A 
HETATM    3  N   UNL     1      42.501 -15.037   3.751  1.00  0.00    -0.261 N 
HETATM    4  H   UNL     1      41.985 -14.305   3.269  1.00  0.00     0.191 HD
HETATM    5  N   UNL     1      42.570 -16.251   3.206  1.00  0.00    -0.172 NA
HETATM    6  C   UNL     1      43.311 -16.989   4.056  1.00  0.00     0.097 A 
ENDROOT
BRANCH   2   7
HETATM    7  N   UNL     1      43.125 -13.872   5.832  1.00  0.00    -0.307 N 
HETATM    8  C   UNL     1      43.336 -12.534   5.366  1.00  0.00     0.260 C 
HETATM    9  O   UNL     1      43.643 -12.342   4.199  1.00  0.00    -0.267 OA
HETATM   10  H   UNL     1      42.918 -14.041   6.810  1.00  0.00     0.170 HD
BRANCH   8  11
HETATM   11  C   UNL     1      43.182 -11.435   6.339  1.00  0.00     0.073 A 
HETATM   12  C   UNL     1      44.180 -11.170   7.278  1.00  0.00     0.165 A 
HETATM   13  F   UNL     1      45.315 -11.888   7.244  1.00  0.00    -0.202 F 
HETATM   14  C   UNL     1      44.010 -10.163   8.231  1.00  0.00     0.107 A 
HETATM   15  C   UNL     1      42.847  -9.388   8.197  1.00  0.00     0.040 A 
HETATM   16  C   UNL     1      41.846  -9.644   7.258  1.00  0.00     0.004 A 
HETATM   17  C   UNL     1      42.005 -10.677   6.336  1.00  0.00     0.020 A 
BRANCH  14  18
HETATM   18  O   UNL     1      44.900  -9.821   9.211  1.00  0.00    -0.353 OA
HETATM   19  C   UNL     1      44.564 -10.220  10.536  1.00  0.00     0.210 C 
ENDBRANCH  14  18
ENDBRANCH   8  11
ENDBRANCH   2   7
BRANCH   1  20
HETATM   20  C   UNL     1      44.621 -16.498   6.331  1.00  0.00     0.040 C 
HETATM   21  C   UNL     1      43.852 -16.927   7.571  1.00  0.00     0.010 C 
ENDBRANCH   1  20
BRANCH   6  22
HETATM   22  C   UNL     1      43.539 -18.414   3.728  1.00  0.00    -0.002 A 
HETATM   23  C   UNL     1      43.297 -18.862   2.419  1.00  0.00     0.033 A 
HETATM   24  C   UNL     1      43.483 -20.198   2.103  1.00  0.00     0.117 A 
HETATM   25  N   UNL     1      43.896 -21.121   2.992  1.00  0.00    -0.273 NA
HETATM   26  C   UNL     1      44.127 -20.685   4.244  1.00  0.00     0.117 A 
HETATM   27  C   UNL     1      43.961 -19.368   4.654  1.00  0.00     0.033 A 
ENDBRANCH   6  22
TORSDOF 5
ENDMDL
MODEL 3
REMARK VINA RESULT:      -7.5      4.162      6.003
REMARK  5 active torsions:
REMARK  status: ('A' for Active; 'I' for Inactive)
REMARK    1  A    between atoms: C_2  and  C_3 
REMARK    2  A    between atoms: C_4  and  N_5 
REMARK       I    between atoms: N_5  and  C_6 
REMARK    3  A    between atoms: C_6  and  C_7 
REMARK    4  A    between atoms: C_10  and  O_11 
REMARK    5  A    between atoms: C_20  and  C_21 
ROOT
HETATM    1  C   UNL     1      41.069 -15.494   3.270  1.00  0.00     0.018 A 
HETATM    2  C   UNL     1      40.090 -14.589   2.903  1.00  0.00     0.133 A 
HETATM    3  N   UNL     1      39.781 -13.880   4.023  1.00  0.00    -0.261 N 
HETATM    4  H   UNL     1      39.073 -13.156   4.118  1.00  0.00     0.191 HD
HETATM    5  N   UNL     1      40.554 -14.174   5.067  1.00  0.00    -0.172 NA
HETATM    6  C   UNL     1      41.373 -15.158   4.646  1.00  0.00     0.097 A 
ENDROOT
BRANCH   2   7
HETATM    7  N   UNL     1      39.557 -14.437   1.632  1.00  0.00    -0.307 N 
HETATM    8  C   UNL     1      39.915 -13.329   0.797  1.00  0.00     0.260 C 
HETATM    9  O   UNL     1      40.603 -12.428   1.250  1.00  0.00    -0.267 OA
HETATM   10  H   UNL     1      38.946 -15.163   1.277  1.00  0.00     0.170 HD
BRANCH   8  11
HETATM   11  C   UNL     1      39.413 -13.326  -0.592  1.00  0.00     0.073 A 
HETATM   12  C   UNL     1      38.348 -12.505  -0.963  1.00  0.00     0.165 A 
HETATM   13  F   UNL     1      37.823 -11.666  -0.054  1.00  0.00    -0.202 F 
HETATM   14  C   UNL     1      37.841 -12.542  -2.264  1.00  0.00     0.107 A 
HETATM   15  C   UNL     1      38.453 -13.374  -3.206  1.00  0.00     0.040 A 
HETATM   16  C   UNL     1      39.523 -14.196  -2.843  1.00  0.00     0.004 A 
HETATM   17  C   UNL     1      39.996 -14.185  -1.532  1.00  0.00     0.020 A 
BRANCH  14  18
HETATM   18  O   UNL     1      36.795 -11.805  -2.744  1.00  0.00    -0.353 OA
HETATM   19  C   UNL     1      37.086 -10.462  -3.117  1.00  0.00     0.210 C 
ENDBRANCH  14  18
ENDBRANCH   8  11
ENDBRANCH   2   7
BRANCH   1  20
HETATM   20  C   UNL     1      41.634 -16.558   2.386  1.00  0.00     0.040 C 
HETATM   21  C   UNL     1      42.835 -16.086   1.582  1.00  0.00     0.010 C 
ENDBRANCH   1  20
BRANCH   6  22
HETATM   22  C   UNL     1      42.384 -15.679   5.594  1.00  0.00    -0.002 A 
HETATM   23  C   UNL     1      42.152 -15.563   6.975  1.00  0.00     0.033 A 
HETATM   24  C   UNL     1      43.100 -16.025   7.873  1.00  0.00     0.117 A 
HETATM   25  N   UNL     1      44.260 -16.597   7.501  1.00  0.00    -0.273 NA
HETATM   26  C   UNL     1      44.476 -16.706   6.176  1.00  0.00     0.117 A 
HETATM   27  C   UNL     1      43.587 -16.266   5.202  1.00  0.00     0.033 A 
ENDBRANCH   6  22
TORSDOF 5
ENDMDL
MODEL 4
REMARK VINA RESULT:      -7.3      3.343      4.437
REMARK  5 active torsions:
REMARK  status: ('A' for Active; 'I' for Inactive)
REMARK    1  A    between atoms: C_2  and  C_3 
REMARK    2  A    between atoms: C_4  and  N_5 
REMARK       I    between atoms: N_5  and  C_6 
REMARK    3  A    between atoms: C_6  and  C_7 
REMARK    4  A    between atoms: C_10  and  O_11 
REMARK    5  A    between atoms: C_20  and  C_21 
ROOT
HETATM    1  C   UNL     1      41.314 -16.128   2.572  1.00  0.00     0.018 A 
HETATM    2  C   UNL     1      41.241 -15.168   1.579  1.00  0.00     0.133 A 
HETATM    3  N   UNL     1      42.413 -15.233   0.891  1.00  0.00    -0.261 N 
HETATM    4  H   UNL     1      42.707 -14.642   0.117  1.00  0.00     0.191 HD
HETATM    5  N   UNL     1      43.204 -16.230   1.284  1.00  0.00    -0.172 NA
HETATM    6  C   UNL     1      42.562 -16.818   2.313  1.00  0.00     0.097 A 
ENDROOT
BRANCH   2   7
HETATM    7  N   UNL     1      40.164 -14.328   1.337  1.00  0.00    -0.307 N 
HETATM    8  C   UNL     1      40.346 -12.932   1.073  1.00  0.00     0.260 C 
HETATM    9  O   UNL     1      41.457 -12.436   1.186  1.00  0.00    -0.267 OA
HETATM   10  H   UNL     1      39.236 -14.736   1.293  1.00  0.00     0.170 HD
BRANCH   8  11
HETATM   11  C   UNL     1      39.159 -12.146   0.683  1.00  0.00     0.073 A 
HETATM   12  C   UNL     1      38.686 -12.174  -0.630  1.00  0.00     0.165 A 
HETATM   13  F   UNL     1      39.286 -12.978  -1.522  1.00  0.00    -0.202 F 
HETATM   14  C   UNL     1      37.595 -11.389  -1.009  1.00  0.00     0.107 A 
HETATM   15  C   UNL     1      36.948 -10.615  -0.041  1.00  0.00     0.040 A 
HETATM   16  C   UNL     1      37.413 -10.585   1.276  1.00  0.00     0.004 A 
HETATM   17  C   UNL     1      38.528 -11.338   1.638  1.00  0.00     0.020 A 
BRANCH  14  18
HETATM   18  O   UNL     1      37.051 -11.314  -2.261  1.00  0.00    -0.353 OA
HETATM   19  C   UNL     1      36.288 -10.147  -2.549  1.00  0.00     0.210 C 
ENDBRANCH  14  18
ENDBRANCH   8  11
ENDBRANCH   2   7
BRANCH   1  20
HETATM   20  C   UNL     1      40.295 -16.341   3.642  1.00  0.00     0.040 C 
HETATM   21  C   UNL     1      40.804 -15.974   5.027  1.00  0.00     0.010 C 
ENDBRANCH   1  20
BRANCH   6  22
HETATM   22  C   UNL     1      43.193 -17.997   2.948  1.00  0.00    -0.002 A 
HETATM   23  C   UNL     1      43.161 -19.233   2.281  1.00  0.00     0.033 A 
HETATM   24  C   UNL     1      43.727 -20.350   2.874  1.00  0.00     0.117 A 
HETATM   25  N   UNL     1      44.324 -20.329   4.080  1.00  0.00    -0.273 NA
HETATM   26  C   UNL     1      44.352 -19.141   4.714  1.00  0.00     0.117 A 
HETATM   27  C   UNL     1      43.806 -17.971   4.201  1.00  0.00     0.033 A 
ENDBRANCH   6  22
TORSDOF 5
ENDMDL
MODEL 5
REMARK VINA RESULT:      -7.3      1.878      2.194
REMARK  5 active torsions:
REMARK  status: ('A' for Active; 'I' for Inactive)
REMARK    1  A    between atoms: C_2  and  C_3 
REMARK    2  A    between atoms: C_4  and  N_5 
REMARK       I    between atoms: N_5  and  C_6 
REMARK    3  A    between atoms: C_6  and  C_7 
REMARK    4  A    between atoms: C_10  and  O_11 
REMARK    5  A    between atoms: C_20  and  C_21 
ROOT
HETATM    1  C   UNL     1      43.061 -16.014   4.577  1.00  0.00     0.018 A 
HETATM    2  C   UNL     1      42.852 -14.766   4.019  1.00  0.00     0.133 A 
HETATM    3  N   UNL     1      43.101 -14.892   2.687  1.00  0.00    -0.261 N 
HETATM    4  H   UNL     1      43.077 -14.158   1.984  1.00  0.00     0.191 HD
HETATM    5  N   UNL     1      43.351 -16.145   2.311  1.00  0.00    -0.172 NA
HETATM    6  C   UNL     1      43.326 -16.876   3.443  1.00  0.00     0.097 A 
ENDROOT
BRANCH   2   7
HETATM    7  N   UNL     1      42.447 -13.627   4.700  1.00  0.00    -0.307 N 
HETATM    8  C   UNL     1      41.287 -12.887   4.300  1.00  0.00     0.260 C 
HETATM    9  O   UNL     1      40.709 -13.183   3.265  1.00  0.00    -0.267 OA
HETATM   10  H   UNL     1      42.960 -13.356   5.531  1.00  0.00     0.170 HD
BRANCH   8  11
HETATM   11  C   UNL     1      40.848 -11.777   5.167  1.00  0.00     0.073 A 
HETATM   12  C   UNL     1      41.530 -10.559   5.166  1.00  0.00     0.165 A 
HETATM   13  F   UNL     1      42.556 -10.387   4.316  1.00  0.00    -0.202 F 
HETATM   14  C   UNL     1      41.145  -9.528   6.025  1.00  0.00     0.107 A 
HETATM   15  C   UNL     1      40.031  -9.713   6.850  1.00  0.00     0.040 A 
HETATM   16  C   UNL     1      39.341 -10.927   6.854  1.00  0.00     0.004 A 
HETATM   17  C   UNL     1      39.756 -11.967   6.023  1.00  0.00     0.020 A 
BRANCH  14  18
HETATM   18  O   UNL     1      41.741  -8.302   6.132  1.00  0.00    -0.353 OA
HETATM   19  C   UNL     1      41.345  -7.322   5.178  1.00  0.00     0.210 C 
ENDBRANCH  14  18
ENDBRANCH   8  11
ENDBRANCH   2   7
BRANCH   1  20
HETATM   20  C   UNL     1      43.012 -16.324   6.038  1.00  0.00     0.040 C 
HETATM   21  C   UNL     1      44.379 -16.271   6.702  1.00  0.00     0.010 C 
ENDBRANCH   1  20
BRANCH   6  22
HETATM   22  C   UNL     1      43.543 -18.336   3.337  1.00  0.00    -0.002 A 
HETATM   23  C   UNL     1      43.193 -18.996   2.148  1.00  0.00     0.033 A 
HETATM   24  C   UNL     1      43.369 -20.366   2.043  1.00  0.00     0.117 A 
HETATM   25  N   UNL     1      43.870 -21.129   3.033  1.00  0.00    -0.273 NA
HETATM   26  C   UNL     1      44.204 -20.490   4.170  1.00  0.00     0.117 A 
HETATM   27  C   UNL     1      44.058 -19.122   4.369  1.00  0.00     0.033 A 
ENDBRANCH   6  22
TORSDOF 5
ENDMDL
MODEL 6
REMARK VINA RESULT:      -7.2      2.468      2.687
REMARK  5 active torsions:
REMARK  status: ('A' for Active; 'I' for Inactive)
REMARK    1  A    between atoms: C_2  and  C_3 
REMARK    2  A    between atoms: C_4  and  N_5 
REMARK       I    between atoms: N_5  and  C_6 
REMARK    3  A    between atoms: C_6  and  C_7 
REMARK    4  A    between atoms: C_10  and  O_11 
REMARK    5  A    between atoms: C_20  and  C_21 
ROOT
HETATM    1  C   UNL     1      42.622 -15.480   3.558  1.00  0.00     0.018 A 
HETATM    2  C   UNL     1      42.598 -14.387   2.711  1.00  0.00     0.133 A 
HETATM    3  N   UNL     1      43.234 -14.769   1.570  1.00  0.00    -0.261 N 
HETATM    4  H   UNL     1      43.426 -14.197   0.751  1.00  0.00     0.191 HD
HETATM    5  N   UNL     1      43.576 -16.056   1.559  1.00  0.00    -0.172 NA
HETATM    6  C   UNL     1      43.208 -16.540   2.762  1.00  0.00     0.097 A 
ENDROOT
BRANCH   2   7
HETATM    7  N   UNL     1      42.016 -13.159   2.984  1.00  0.00    -0.307 N 
HETATM    8  C   UNL     1      42.798 -11.962   3.072  1.00  0.00     0.260 C 
HETATM    9  O   UNL     1      44.017 -12.032   3.033  1.00  0.00    -0.267 OA
HETATM   10  H   UNL     1      41.006 -13.112   3.066  1.00  0.00     0.170 HD
BRANCH   8  11
HETATM   11  C   UNL     1      42.079 -10.681   3.220  1.00  0.00     0.073 A 
HETATM   12  C   UNL     1      42.123  -9.974   4.424  1.00  0.00     0.165 A 
HETATM   13  F   UNL     1      42.883 -10.442   5.427  1.00  0.00    -0.202 F 
HETATM   14  C   UNL     1      41.401  -8.789   4.579  1.00  0.00     0.107 A 
HETATM   15  C   UNL     1      40.674  -8.291   3.493  1.00  0.00     0.040 A 
HETATM   16  C   UNL     1      40.628  -8.990   2.285  1.00  0.00     0.004 A 
HETATM   17  C   UNL     1      41.319 -10.194   2.150  1.00  0.00     0.020 A 
BRANCH  14  18
HETATM   18  O   UNL     1      41.346  -8.019   5.707  1.00  0.00    -0.353 OA
HETATM   19  C   UNL     1      41.540  -6.620   5.526  1.00  0.00     0.210 C 
ENDBRANCH  14  18
ENDBRANCH   8  11
ENDBRANCH   2   7
BRANCH   1  20
HETATM   20  C   UNL     1      42.136 -15.487   4.971  1.00  0.00     0.040 C 
HETATM   21  C   UNL     1      40.805 -16.203   5.137  1.00  0.00     0.010 C 
ENDBRANCH   1  20
BRANCH   6  22
HETATM   22  C   UNL     1      43.437 -17.976   3.038  1.00  0.00    -0.002 A 
HETATM   23  C   UNL     1      44.014 -18.355   4.261  1.00  0.00     0.033 A 
HETATM   24  C   UNL     1      44.256 -19.694   4.523  1.00  0.00     0.117 A 
HETATM   25  N   UNL     1      43.964 -20.684   3.659  1.00  0.00    -0.273 NA
HETATM   26  C   UNL     1      43.411 -20.314   2.488  1.00  0.00     0.117 A 
HETATM   27  C   UNL     1      43.138 -18.998   2.136  1.00  0.00     0.033 A 
ENDBRANCH   6  22
TORSDOF 5
ENDMDL
MODEL 7
REMARK VINA RESULT:      -7.2      2.499      2.897
REMARK  5 active torsions:
REMARK  status: ('A' for Active; 'I' for Inactive)
REMARK    1  A    between atoms: C_2  and  C_3 
REMARK    2  A    between atoms: C_4  and  N_5 
REMARK       I    between atoms: N_5  and  C_6 
REMARK    3  A    between atoms: C_6  and  C_7 
REMARK    4  A    between atoms: C_10  and  O_11 
REMARK    5  A    between atoms: C_20  and  C_21 
ROOT
HETATM    1  C   UNL     1      42.508 -16.380   5.346  1.00  0.00     0.018 A 
HETATM    2  C   UNL     1      43.090 -15.354   6.067  1.00  0.00     0.133 A 
HETATM    3  N   UNL     1      44.373 -15.735   6.316  1.00  0.00    -0.261 N 
HETATM    4  H   UNL     1      45.072 -15.231   6.855  1.00  0.00     0.191 HD
HETATM    5  N   UNL     1      44.709 -16.880   5.724  1.00  0.00    -0.172 NA
HETATM    6  C   UNL     1      43.592 -17.310   5.104  1.00  0.00     0.097 A 
ENDROOT
BRANCH   2   7
HETATM    7  N   UNL     1      42.474 -14.167   6.435  1.00  0.00    -0.307 N 
HETATM    8  C   UNL     1      42.501 -13.013   5.586  1.00  0.00     0.260 C 
HETATM    9  O   UNL     1      43.183 -13.024   4.573  1.00  0.00    -0.267 OA
HETATM   10  H   UNL     1      41.949 -14.146   7.302  1.00  0.00     0.170 HD
BRANCH   8  11
HETATM   11  C   UNL     1      41.697 -11.843   5.991  1.00  0.00     0.073 A 
HETATM   12  C   UNL     1      42.316 -10.650   6.368  1.00  0.00     0.165 A 
HETATM   13  F   UNL     1      43.654 -10.557   6.294  1.00  0.00    -0.202 F 
HETATM   14  C   UNL     1      41.556  -9.561   6.800  1.00  0.00     0.107 A 
HETATM   15  C   UNL     1      40.161  -9.665   6.800  1.00  0.00     0.040 A 
HETATM   16  C   UNL     1      39.535 -10.855   6.421  1.00  0.00     0.004 A 
HETATM   17  C   UNL     1      40.301 -11.951   6.030  1.00  0.00     0.020 A 
BRANCH  14  18
HETATM   18  O   UNL     1      42.040  -8.351   7.211  1.00  0.00    -0.353 OA
HETATM   19  C   UNL     1      42.550  -8.293   8.540  1.00  0.00     0.210 C 
ENDBRANCH  14  18
ENDBRANCH   8  11
ENDBRANCH   2   7
BRANCH   1  20
HETATM   20  C   UNL     1      41.070 -16.446   4.948  1.00  0.00     0.040 C 
HETATM   21  C   UNL     1      40.810 -15.868   3.566  1.00  0.00     0.010 C 
ENDBRANCH   1  20
BRANCH   6  22
HETATM   22  C   UNL     1      43.666 -18.565   4.322  1.00  0.00    -0.002 A 
HETATM   23  C   UNL     1      43.945 -19.771   4.987  1.00  0.00     0.033 A 
HETATM   24  C   UNL     1      44.040 -20.949   4.265  1.00  0.00     0.117 A 
HETATM   25  N   UNL     1      43.877 -21.018   2.930  1.00  0.00    -0.273 NA
HETATM   26  C   UNL     1      43.610 -19.859   2.299  1.00  0.00     0.117 A 
HETATM   27  C   UNL     1      43.502 -18.630   2.938  1.00  0.00     0.033 A 
ENDBRANCH   6  22
TORSDOF 5
ENDMDL
MODEL 8
REMARK VINA RESULT:      -7.2      2.660      3.244
REMARK  5 active torsions:
REMARK  status: ('A' for Active; 'I' for Inactive)
REMARK    1  A    between atoms: C_2  and  C_3 
REMARK    2  A    between atoms: C_4  and  N_5 
REMARK       I    between atoms: N_5  and  C_6 
REMARK    3  A    between atoms: C_6  and  C_7 
REMARK    4  A    between atoms: C_10  and  O_11 
REMARK    5  A    between atoms: C_20  and  C_21 
ROOT
HETATM    1  C   UNL     1      43.661 -16.184   5.018  1.00  0.00     0.018 A 
HETATM    2  C   UNL     1      43.047 -14.958   4.840  1.00  0.00     0.133 A 
HETATM    3  N   UNL     1      42.396 -15.021   3.646  1.00  0.00    -0.261 N 
HETATM    4  H   UNL     1      41.871 -14.279   3.191  1.00  0.00     0.191 HD
HETATM    5  N   UNL     1      42.445 -16.226   3.080  1.00  0.00    -0.172 NA
HETATM    6  C   UNL     1      43.206 -16.980   3.897  1.00  0.00     0.097 A 
ENDROOT
BRANCH   2   7
HETATM    7  N   UNL     1      43.083 -13.893   5.728  1.00  0.00    -0.307 N 
HETATM    8  C   UNL     1      43.328 -12.553   5.282  1.00  0.00     0.260 C 
HETATM    9  O   UNL     1      43.638 -12.351   4.118  1.00  0.00    -0.267 OA
HETATM   10  H   UNL     1      42.874 -14.072   6.703  1.00  0.00     0.170 HD
BRANCH   8  11
HETATM   11  C   UNL     1      43.204 -11.466   6.273  1.00  0.00     0.073 A 
HETATM   12  C   UNL     1      41.998 -10.781   6.431  1.00  0.00     0.165 A 
HETATM   13  F   UNL     1      40.930 -11.167   5.715  1.00  0.00    -0.202 F 
HETATM   14  C   UNL     1      41.898  -9.719   7.332  1.00  0.00     0.107 A 
HETATM   15  C   UNL     1      43.008  -9.385   8.113  1.00  0.00     0.040 A 
HETATM   16  C   UNL     1      44.217 -10.068   7.963  1.00  0.00     0.004 A 
HETATM   17  C   UNL     1      44.322 -11.101   7.032  1.00  0.00     0.020 A 
BRANCH  14  18
HETATM   18  O   UNL     1      40.784  -8.960   7.564  1.00  0.00    -0.353 OA
HETATM   19  C   UNL     1      40.575  -7.861   6.683  1.00  0.00     0.210 C 
ENDBRANCH  14  18
ENDBRANCH   8  11
ENDBRANCH   2   7
BRANCH   1  20
HETATM   20  C   UNL     1      44.582 -16.532   6.142  1.00  0.00     0.040 C 
HETATM   21  C   UNL     1      43.845 -16.901   7.420  1.00  0.00     0.010 C 
ENDBRANCH   1  20
BRANCH   6  22
HETATM   22  C   UNL     1      43.419 -18.401   3.538  1.00  0.00    -0.002 A 
HETATM   23  C   UNL     1      43.887 -19.292   4.518  1.00  0.00     0.033 A 
HETATM   24  C   UNL     1      44.113 -20.619   4.191  1.00  0.00     0.117 A 
HETATM   25  N   UNL     1      43.905 -21.127   2.962  1.00  0.00    -0.273 NA
HETATM   26  C   UNL     1      43.455 -20.268   2.027  1.00  0.00     0.117 A 
HETATM   27  C   UNL     1      43.207 -18.921   2.261  1.00  0.00     0.033 A 
ENDBRANCH   6  22
TORSDOF 5
ENDMDL
MODEL 9
REMARK VINA RESULT:      -7.2      3.573      4.489
REMARK  5 active torsions:
REMARK  status: ('A' for Active; 'I' for Inactive)
REMARK    1  A    between atoms: C_2  and  C_3 
REMARK    2  A    between atoms: C_4  and  N_5 
REMARK       I    between atoms: N_5  and  C_6 
REMARK    3  A    between atoms: C_6  and  C_7 
REMARK    4  A    between atoms: C_10  and  O_11 
REMARK    5  A    between atoms: C_20  and  C_21 
ROOT
HETATM    1  C   UNL     1      43.752 -15.114   5.803  1.00  0.00     0.018 A 
HETATM    2  C   UNL     1      43.288 -13.812   5.860  1.00  0.00     0.133 A 
HETATM    3  N   UNL     1      42.688 -13.564   4.664  1.00  0.00    -0.261 N 
HETATM    4  H   UNL     1      42.269 -12.691   4.354  1.00  0.00     0.191 HD
HETATM    5  N   UNL     1      42.626 -14.632   3.870  1.00  0.00    -0.172 NA
HETATM    6  C   UNL     1      43.261 -15.617   4.536  1.00  0.00     0.097 A 
ENDROOT
BRANCH   2   7
HETATM    7  N   UNL     1      43.405 -12.953   6.942  1.00  0.00    -0.307 N 
HETATM    8  C   UNL     1      44.230 -11.784   6.885  1.00  0.00     0.260 C 
HETATM    9  O   UNL     1      44.949 -11.598   5.915  1.00  0.00    -0.267 OA
HETATM   10  H   UNL     1      42.843 -13.138   7.766  1.00  0.00     0.170 HD
BRANCH   8  11
HETATM   11  C   UNL     1      44.180 -10.851   8.028  1.00  0.00     0.073 A 
HETATM   12  C   UNL     1      43.047 -10.069   8.260  1.00  0.00     0.165 A 
HETATM   13  F   UNL     1      41.975 -10.223   7.467  1.00  0.00    -0.202 F 
HETATM   14  C   UNL     1      43.021  -9.150   9.311  1.00  0.00     0.107 A 
HETATM   15  C   UNL     1      44.127  -9.062  10.162  1.00  0.00     0.040 A 
HETATM   16  C   UNL     1      45.263  -9.844   9.939  1.00  0.00     0.004 A 
HETATM   17  C   UNL     1      45.298 -10.729   8.863  1.00  0.00     0.020 A 
BRANCH  14  18
HETATM   18  O   UNL     1      41.985  -8.317   9.629  1.00  0.00    -0.353 OA
HETATM   19  C   UNL     1      40.941  -8.880  10.418  1.00  0.00     0.210 C 
ENDBRANCH  14  18
ENDBRANCH   8  11
ENDBRANCH   2   7
BRANCH   1  20
HETATM   20  C   UNL     1      44.578 -15.781   6.854  1.00  0.00     0.040 C 
HETATM   21  C   UNL     1      43.741 -16.533   7.877  1.00  0.00     0.010 C 
ENDBRANCH   1  20
BRANCH   6  22
HETATM   22  C   UNL     1      43.329 -16.955   3.907  1.00  0.00    -0.002 A 
HETATM   23  C   UNL     1      44.029 -17.983   4.559  1.00  0.00     0.033 A 
HETATM   24  C   UNL     1      44.120 -19.234   3.971  1.00  0.00     0.117 A 
HETATM   25  N   UNL     1      43.564 -19.539   2.783  1.00  0.00    -0.273 NA
HETATM   26  C   UNL     1      42.894 -18.549   2.164  1.00  0.00     0.117 A 
HETATM   27  C   UNL     1      42.755 -17.264   2.673  1.00  0.00     0.033 A 
ENDBRANCH   6  22
TORSDOF 5
ENDMDL
MODEL 10
REMARK VINA RESULT:      -7.1      4.442      8.121
REMARK  5 active torsions:
REMARK  status: ('A' for Active; 'I' for Inactive)
REMARK    1  A    between atoms: C_2  and  C_3 
REMARK    2  A    between atoms: C_4  and  N_5 
REMARK       I    between atoms: N_5  and  C_6 
REMARK    3  A    between atoms: C_6  and  C_7 
REMARK    4  A    between atoms: C_10  and  O_11 
REMARK    5  A    between atoms: C_20  and  C_21 
ROOT
HETATM    1  C   UNL     1      40.174 -13.028  -0.327  1.00  0.00     0.018 A 
HETATM    2  C   UNL     1      40.323 -14.381  -0.082  1.00  0.00     0.133 A 
HETATM    3  N   UNL     1      39.420 -15.019  -0.877  1.00  0.00    -0.261 N 
HETATM    4  H   UNL     1      39.237 -16.018  -0.922  1.00  0.00     0.191 HD
HETATM    5  N   UNL     1      38.768 -14.201  -1.701  1.00  0.00    -0.172 NA
HETATM    6  C   UNL     1      39.208 -12.962  -1.405  1.00  0.00     0.097 A 
ENDROOT
BRANCH   2   7
HETATM    7  N   UNL     1      41.235 -14.955   0.791  1.00  0.00    -0.307 N 
HETATM    8  C   UNL     1      40.807 -15.715   1.928  1.00  0.00     0.260 C 
HETATM    9  O   UNL     1      39.621 -15.760   2.214  1.00  0.00    -0.267 OA
HETATM   10  H   UNL     1      42.222 -14.875   0.577  1.00  0.00     0.170 HD
BRANCH   8  11
HETATM   11  C   UNL     1      41.843 -16.410   2.718  1.00  0.00     0.073 A 
HETATM   12  C   UNL     1      42.205 -15.946   3.983  1.00  0.00     0.165 A 
HETATM   13  F   UNL     1      41.552 -14.894   4.503  1.00  0.00    -0.202 F 
HETATM   14  C   UNL     1      43.221 -16.574   4.707  1.00  0.00     0.107 A 
HETATM   15  C   UNL     1      43.835 -17.709   4.169  1.00  0.00     0.040 A 
HETATM   16  C   UNL     1      43.475 -18.182   2.904  1.00  0.00     0.004 A 
HETATM   17  C   UNL     1      42.489 -17.526   2.170  1.00  0.00     0.020 A 
BRANCH  14  18
HETATM   18  O   UNL     1      43.678 -16.205   5.941  1.00  0.00    -0.353 OA
HETATM   19  C   UNL     1      42.842 -16.529   7.047  1.00  0.00     0.210 C 
ENDBRANCH  14  18
ENDBRANCH   8  11
ENDBRANCH   2   7
BRANCH   1  20
HETATM   20  C   UNL     1      40.884 -11.937   0.405  1.00  0.00     0.040 C 
HETATM   21  C   UNL     1      40.168 -11.514   1.679  1.00  0.00     0.010 C 
ENDBRANCH   1  20
BRANCH   6  22
HETATM   22  C   UNL     1      38.677 -11.825  -2.191  1.00  0.00    -0.002 A 
HETATM   23  C   UNL     1      39.562 -11.049  -2.958  1.00  0.00     0.033 A 
HETATM   24  C   UNL     1      39.082  -9.969  -3.679  1.00  0.00     0.117 A 
HETATM   25  N   UNL     1      37.787  -9.604  -3.698  1.00  0.00    -0.273 NA
HETATM   26  C   UNL     1      36.943 -10.352  -2.962  1.00  0.00     0.117 A 
HETATM   27  C   UNL     1      37.334 -11.448  -2.202  1.00  0.00     0.033 A 
ENDBRANCH   6  22
TORSDOF 5
ENDMDL
