MODEL 1
REMARK VINA RESULT:      -7.8      0.000      0.000
REMARK  2 active torsions:
REMARK  status: ('A' for Active; 'I' for Inactive)
REMARK    1  A    between atoms: C_4  and  C_5 
REMARK    2  A    between atoms: C_10  and  C_11 
ROOT
HETATM    1  C   UNL     1      42.320 -14.572   5.042  1.00  0.00     0.202 C 
HETATM    2  N   UNL     1      42.263 -14.858   3.610  1.00  0.00    -0.331 N 
HETATM    3  C   UNL     1      42.054 -13.777   2.657  1.00  0.00     0.155 C 
HETATM    4  C   UNL     1      43.040 -15.929   3.149  1.00  0.00     0.256 C 
HETATM    5  O   UNL     1      43.434 -16.046   1.991  1.00  0.00    -0.267 OA
HETATM    6  C   UNL     1      43.347 -16.992   4.131  1.00  0.00     0.053 A 
HETATM    7  C   UNL     1      42.778 -16.888   5.403  1.00  0.00     0.026 A 
HETATM    8  N   UNL     1      41.936 -15.808   5.739  1.00  0.00    -0.266 NA
HETATM    9  C   UNL     1      44.123 -18.100   3.777  1.00  0.00     0.019 A 
HETATM   10  C   UNL     1      44.306 -19.133   4.694  1.00  0.00     0.001 A 
HETATM   11  C   UNL     1      43.699 -19.063   5.949  1.00  0.00     0.002 A 
HETATM   12  C   UNL     1      42.925 -17.953   6.295  1.00  0.00     0.024 A 
HETATM   13  H   UNL     1      40.994 -16.045   5.435  1.00  0.00     0.130 HD
ENDROOT
BRANCH   1  14
HETATM   14  C   UNL     1      41.457 -13.403   5.435  1.00  0.00     0.029 A 
HETATM   15  C   UNL     1      41.866 -12.157   5.994  1.00  0.00     0.121 A 
HETATM   16  N   UNL     1      40.823 -11.350   6.239  1.00  0.00    -0.172 NA
HETATM   17  N   UNL     1      39.758 -12.068   5.858  1.00  0.00    -0.288 N 
HETATM   18  H   UNL     1      38.838 -11.654   5.965  1.00  0.00     0.188 HD
HETATM   19  C   UNL     1      40.077 -13.292   5.360  1.00  0.00     0.122 A 
BRANCH  15  20
HETATM   20  C   UNL     1      43.271 -11.719   6.269  1.00  0.00     0.106 A 
HETATM   21  O   UNL     1      43.730 -11.279   7.479  1.00  0.00    -0.313 OA
HETATM   22  C   UNL     1      45.057 -11.009   7.345  1.00  0.00     0.050 A 
HETATM   23  C   UNL     1      45.754 -10.524   8.553  1.00  0.00     0.076 C 
HETATM   24  C   UNL     1      45.461 -11.257   6.053  1.00  0.00     0.035 A 
HETATM   25  C   UNL     1      44.313 -11.715   5.361  1.00  0.00     0.042 A 
ENDBRANCH  15  20
ENDBRANCH   1  14
TORSDOF 2
ENDMDL
MODEL 2
REMARK VINA RESULT:      -7.8      3.277      6.420
REMARK  2 active torsions:
REMARK  status: ('A' for Active; 'I' for Inactive)
REMARK    1  A    between atoms: C_4  and  C_5 
REMARK    2  A    between atoms: C_10  and  C_11 
ROOT
HETATM    1  C   UNL     1      40.795 -13.578   2.065  1.00  0.00     0.202 C 
HETATM    2  N   UNL     1      40.914 -12.141   1.833  1.00  0.00    -0.331 N 
HETATM    3  C   UNL     1      41.473 -11.278   2.864  1.00  0.00     0.155 C 
HETATM    4  C   UNL     1      41.144 -11.732   0.513  1.00  0.00     0.256 C 
HETATM    5  O   UNL     1      41.668 -10.665   0.203  1.00  0.00    -0.267 OA
HETATM    6  C   UNL     1      40.671 -12.643  -0.552  1.00  0.00     0.053 A 
HETATM    7  C   UNL     1      39.968 -13.787  -0.166  1.00  0.00     0.026 A 
HETATM    8  N   UNL     1      39.714 -14.063   1.194  1.00  0.00    -0.266 NA
HETATM    9  C   UNL     1      40.858 -12.335  -1.903  1.00  0.00     0.019 A 
HETATM   10  C   UNL     1      40.309 -13.163  -2.881  1.00  0.00     0.001 A 
HETATM   11  C   UNL     1      39.560 -14.280  -2.504  1.00  0.00     0.002 A 
HETATM   12  C   UNL     1      39.378 -14.581  -1.152  1.00  0.00     0.024 A 
HETATM   13  H   UNL     1      38.868 -13.563   1.458  1.00  0.00     0.130 HD
ENDROOT
BRANCH   1  14
HETATM   14  C   UNL     1      40.556 -13.914   3.512  1.00  0.00     0.029 A 
HETATM   15  C   UNL     1      41.012 -15.053   4.238  1.00  0.00     0.121 A 
HETATM   16  N   UNL     1      40.594 -15.037   5.513  1.00  0.00    -0.172 NA
HETATM   17  N   UNL     1      39.869 -13.915   5.605  1.00  0.00    -0.288 N 
HETATM   18  H   UNL     1      39.434 -13.697   6.495  1.00  0.00     0.188 HD
HETATM   19  C   UNL     1      39.822 -13.201   4.448  1.00  0.00     0.122 A 
BRANCH  15  20
HETATM   20  C   UNL     1      41.883 -16.154   3.718  1.00  0.00     0.106 A 
HETATM   21  O   UNL     1      42.871 -16.772   4.432  1.00  0.00    -0.313 OA
HETATM   22  C   UNL     1      43.413 -17.737   3.638  1.00  0.00     0.050 A 
HETATM   23  C   UNL     1      44.503 -18.537   4.230  1.00  0.00     0.076 C 
HETATM   24  C   UNL     1      42.792 -17.741   2.410  1.00  0.00     0.035 A 
HETATM   25  C   UNL     1      41.808 -16.723   2.461  1.00  0.00     0.042 A 
ENDBRANCH  15  20
ENDBRANCH   1  14
TORSDOF 2
ENDMDL
MODEL 3
REMARK VINA RESULT:      -7.8      2.500      4.524
REMARK  2 active torsions:
REMARK  status: ('A' for Active; 'I' for Inactive)
REMARK    1  A    between atoms: C_4  and  C_5 
REMARK    2  A    between atoms: C_10  and  C_11 
ROOT
HETATM    1  C   UNL     1      41.525 -15.304   4.995  1.00  0.00     0.202 C 
HETATM    2  N   UNL     1      42.865 -15.103   5.540  1.00  0.00    -0.331 N 
HETATM    3  C   UNL     1      43.067 -14.209   6.672  1.00  0.00     0.155 C 
HETATM    4  C   UNL     1      43.748 -16.188   5.461  1.00  0.00     0.256 C 
HETATM    5  O   UNL     1      44.714 -16.345   6.202  1.00  0.00    -0.267 OA
HETATM    6  C   UNL     1      43.500 -17.163   4.376  1.00  0.00     0.053 A 
HETATM    7  C   UNL     1      42.468 -16.886   3.475  1.00  0.00     0.026 A 
HETATM    8  N   UNL     1      41.690 -15.716   3.594  1.00  0.00    -0.266 NA
HETATM    9  C   UNL     1      44.316 -18.286   4.214  1.00  0.00     0.019 A 
HETATM   10  C   UNL     1      44.119 -19.128   3.120  1.00  0.00     0.001 A 
HETATM   11  C   UNL     1      43.125 -18.832   2.186  1.00  0.00     0.002 A 
HETATM   12  C   UNL     1      42.314 -17.707   2.355  1.00  0.00     0.024 A 
HETATM   13  H   UNL     1      42.186 -14.966   3.117  1.00  0.00     0.130 HD
ENDROOT
BRANCH   1  14
HETATM   14  C   UNL     1      40.653 -14.086   5.133  1.00  0.00     0.029 A 
HETATM   15  C   UNL     1      40.207 -13.201   4.107  1.00  0.00     0.121 A 
HETATM   16  N   UNL     1      39.455 -12.204   4.596  1.00  0.00    -0.172 NA
HETATM   17  N   UNL     1      39.428 -12.431   5.915  1.00  0.00    -0.288 N 
HETATM   18  H   UNL     1      38.916 -11.781   6.504  1.00  0.00     0.188 HD
HETATM   19  C   UNL     1      40.113 -13.544   6.290  1.00  0.00     0.122 A 
BRANCH  15  20
HETATM   20  C   UNL     1      40.475 -13.328   2.641  1.00  0.00     0.106 A 
HETATM   21  O   UNL     1      39.841 -14.202   1.802  1.00  0.00    -0.313 OA
HETATM   22  C   UNL     1      40.326 -13.999   0.547  1.00  0.00     0.050 A 
HETATM   23  C   UNL     1      39.759 -14.845  -0.522  1.00  0.00     0.076 C 
HETATM   24  C   UNL     1      41.282 -13.008   0.566  1.00  0.00     0.035 A 
HETATM   25  C   UNL     1      41.378 -12.576   1.912  1.00  0.00     0.042 A 
ENDBRANCH  15  20
ENDBRANCH   1  14
TORSDOF 2
ENDMDL
MODEL 4
REMARK VINA RESULT:      -7.7      2.516      5.749
REMARK  2 active torsions:
REMARK  status: ('A' for Active; 'I' for Inactive)
REMARK    1  A    between atoms: C_4  and  C_5 
REMARK    2  A    between atoms: C_10  and  C_11 
ROOT
HETATM    1  C   UNL     1      42.426 -13.560   3.676  1.00  0.00     0.202 C 
HETATM    2  N   UNL     1      42.243 -12.140   3.385  1.00  0.00    -0.331 N 
HETATM    3  C   UNL     1      42.981 -11.139   4.143  1.00  0.00     0.155 C 
HETATM    4  C   UNL     1      41.951 -11.800   2.058  1.00  0.00     0.256 C 
HETATM    5  O   UNL     1      42.173 -10.697   1.564  1.00  0.00    -0.267 OA
HETATM    6  C   UNL     1      41.288 -12.840   1.241  1.00  0.00     0.053 A 
HETATM    7  C   UNL     1      40.936 -14.037   1.871  1.00  0.00     0.026 A 
HETATM    8  N   UNL     1      41.201 -14.246   3.240  1.00  0.00    -0.266 NA
HETATM    9  C   UNL     1      40.961 -12.608  -0.098  1.00  0.00     0.019 A 
HETATM   10  C   UNL     1      40.245 -13.570  -0.809  1.00  0.00     0.001 A 
HETATM   11  C   UNL     1      39.844 -14.746  -0.174  1.00  0.00     0.002 A 
HETATM   12  C   UNL     1      40.175 -14.971   1.165  1.00  0.00     0.024 A 
HETATM   13  H   UNL     1      40.428 -13.845   3.768  1.00  0.00     0.130 HD
ENDROOT
BRANCH   1  14
HETATM   14  C   UNL     1      42.742 -13.820   5.124  1.00  0.00     0.029 A 
HETATM   15  C   UNL     1      43.200 -15.031   5.721  1.00  0.00     0.121 A 
HETATM   16  N   UNL     1      43.362 -14.908   7.047  1.00  0.00    -0.172 NA
HETATM   17  N   UNL     1      43.002 -13.643   7.304  1.00  0.00    -0.288 N 
HETATM   18  H   UNL     1      43.034 -13.322   8.266  1.00  0.00     0.188 HD
HETATM   19  C   UNL     1      42.636 -12.946   6.195  1.00  0.00     0.122 A 
BRANCH  15  20
HETATM   20  C   UNL     1      43.515 -16.312   5.014  1.00  0.00     0.106 A 
HETATM   21  O   UNL     1      42.928 -16.728   3.851  1.00  0.00    -0.313 OA
HETATM   22  C   UNL     1      43.497 -17.914   3.501  1.00  0.00     0.050 A 
HETATM   23  C   UNL     1      43.005 -18.536   2.256  1.00  0.00     0.076 C 
HETATM   24  C   UNL     1      44.440 -18.278   4.435  1.00  0.00     0.035 A 
HETATM   25  C   UNL     1      44.452 -17.248   5.408  1.00  0.00     0.042 A 
ENDBRANCH  15  20
ENDBRANCH   1  14
TORSDOF 2
ENDMDL
MODEL 5
REMARK VINA RESULT:      -7.7      2.714      5.069
REMARK  2 active torsions:
REMARK  status: ('A' for Active; 'I' for Inactive)
REMARK    1  A    between atoms: C_4  and  C_5 
REMARK    2  A    between atoms: C_10  and  C_11 
ROOT
HETATM    1  C   UNL     1      42.748 -16.186   4.925  1.00  0.00     0.202 C 
HETATM    2  N   UNL     1      43.335 -16.587   6.201  1.00  0.00    -0.331 N 
HETATM    3  C   UNL     1      43.120 -15.775   7.391  1.00  0.00     0.155 C 
HETATM    4  C   UNL     1      43.478 -17.963   6.425  1.00  0.00     0.256 C 
HETATM    5  O   UNL     1      43.547 -18.475   7.539  1.00  0.00    -0.267 OA
HETATM    6  C   UNL     1      43.599 -18.818   5.224  1.00  0.00     0.053 A 
HETATM    7  C   UNL     1      43.643 -18.188   3.978  1.00  0.00     0.026 A 
HETATM    8  N   UNL     1      43.577 -16.783   3.868  1.00  0.00    -0.266 NA
HETATM    9  C   UNL     1      43.737 -20.205   5.336  1.00  0.00     0.019 A 
HETATM   10  C   UNL     1      43.953 -20.969   4.190  1.00  0.00     0.001 A 
HETATM   11  C   UNL     1      44.050 -20.343   2.946  1.00  0.00     0.002 A 
HETATM   12  C   UNL     1      43.912 -18.957   2.843  1.00  0.00     0.024 A 
HETATM   13  H   UNL     1      44.521 -16.420   3.984  1.00  0.00     0.130 HD
ENDROOT
BRANCH   1  14
HETATM   14  C   UNL     1      42.632 -14.692   4.784  1.00  0.00     0.029 A 
HETATM   15  C   UNL     1      41.938 -13.955   3.779  1.00  0.00     0.121 A 
HETATM   16  N   UNL     1      42.062 -12.631   3.954  1.00  0.00    -0.172 NA
HETATM   17  N   UNL     1      42.832 -12.514   5.043  1.00  0.00    -0.288 N 
HETATM   18  H   UNL     1      43.074 -11.582   5.363  1.00  0.00     0.188 HD
HETATM   19  C   UNL     1      43.191 -13.709   5.585  1.00  0.00     0.122 A 
BRANCH  15  20
HETATM   20  C   UNL     1      41.123 -14.520   2.659  1.00  0.00     0.106 A 
HETATM   21  O   UNL     1      40.998 -13.955   1.421  1.00  0.00    -0.313 OA
HETATM   22  C   UNL     1      40.211 -14.773   0.670  1.00  0.00     0.050 A 
HETATM   23  C   UNL     1      39.956 -14.344  -0.720  1.00  0.00     0.076 C 
HETATM   24  C   UNL     1      39.813 -15.859   1.415  1.00  0.00     0.035 A 
HETATM   25  C   UNL     1      40.399 -15.698   2.694  1.00  0.00     0.042 A 
ENDBRANCH  15  20
ENDBRANCH   1  14
TORSDOF 2
ENDMDL
MODEL 6
REMARK VINA RESULT:      -7.3      4.024      6.698
REMARK  2 active torsions:
REMARK  status: ('A' for Active; 'I' for Inactive)
REMARK    1  A    between atoms: C_4  and  C_5 
REMARK    2  A    between atoms: C_10  and  C_11 
ROOT
HETATM    1  C   UNL     1      41.195 -13.017   1.738  1.00  0.00     0.202 C 
HETATM    2  N   UNL     1      40.989 -12.982   3.183  1.00  0.00    -0.331 N 
HETATM    3  C   UNL     1      40.149 -11.951   3.776  1.00  0.00     0.155 C 
HETATM    4  C   UNL     1      40.999 -14.213   3.852  1.00  0.00     0.256 C 
HETATM    5  O   UNL     1      40.450 -14.414   4.933  1.00  0.00    -0.267 OA
HETATM    6  C   UNL     1      41.768 -15.304   3.215  1.00  0.00     0.053 A 
HETATM    7  C   UNL     1      42.482 -15.005   2.052  1.00  0.00     0.026 A 
HETATM    8  N   UNL     1      42.474 -13.705   1.505  1.00  0.00    -0.266 NA
HETATM    9  C   UNL     1      41.835 -16.575   3.795  1.00  0.00     0.019 A 
HETATM   10  C   UNL     1      42.652 -17.549   3.223  1.00  0.00     0.001 A 
HETATM   11  C   UNL     1      43.410 -17.244   2.091  1.00  0.00     0.002 A 
HETATM   12  C   UNL     1      43.337 -15.972   1.518  1.00  0.00     0.024 A 
HETATM   13  H   UNL     1      43.195 -13.166   1.980  1.00  0.00     0.130 HD
ENDROOT
BRANCH   1  14
HETATM   14  C   UNL     1      41.161 -11.649   1.113  1.00  0.00     0.029 A 
HETATM   15  C   UNL     1      40.426 -11.223  -0.033  1.00  0.00     0.121 A 
HETATM   16  N   UNL     1      40.649  -9.932  -0.320  1.00  0.00    -0.172 NA
HETATM   17  N   UNL     1      41.522  -9.534   0.614  1.00  0.00    -0.288 N 
HETATM   18  H   UNL     1      41.850  -8.574   0.587  1.00  0.00     0.188 HD
HETATM   19  C   UNL     1      41.852 -10.511   1.500  1.00  0.00     0.122 A 
BRANCH  15  20
HETATM   20  C   UNL     1      39.478 -12.049  -0.844  1.00  0.00     0.106 A 
HETATM   21  O   UNL     1      39.792 -13.237  -1.443  1.00  0.00    -0.313 OA
HETATM   22  C   UNL     1      38.669 -13.702  -2.055  1.00  0.00     0.050 A 
HETATM   23  C   UNL     1      38.792 -14.993  -2.761  1.00  0.00     0.076 C 
HETATM   24  C   UNL     1      37.630 -12.818  -1.869  1.00  0.00     0.035 A 
HETATM   25  C   UNL     1      38.150 -11.755  -1.090  1.00  0.00     0.042 A 
ENDBRANCH  15  20
ENDBRANCH   1  14
TORSDOF 2
ENDMDL
MODEL 7
REMARK VINA RESULT:      -7.3     15.827     17.266
REMARK  2 active torsions:
REMARK  status: ('A' for Active; 'I' for Inactive)
REMARK    1  A    between atoms: C_4  and  C_5 
REMARK    2  A    between atoms: C_10  and  C_11 
ROOT
HETATM    1  C   UNL     1      45.917 -30.030   1.562  1.00  0.00     0.202 C 
HETATM    2  N   UNL     1      46.213 -31.438   1.308  1.00  0.00    -0.331 N 
HETATM    3  C   UNL     1      45.354 -32.219   0.430  1.00  0.00     0.155 C 
HETATM    4  C   UNL     1      47.564 -31.811   1.320  1.00  0.00     0.256 C 
HETATM    5  O   UNL     1      48.011 -32.797   0.741  1.00  0.00    -0.267 OA
HETATM    6  C   UNL     1      48.473 -30.970   2.130  1.00  0.00     0.053 A 
HETATM    7  C   UNL     1      47.909 -29.932   2.875  1.00  0.00     0.026 A 
HETATM    8  N   UNL     1      46.519 -29.694   2.860  1.00  0.00    -0.266 NA
HETATM    9  C   UNL     1      49.841 -31.249   2.203  1.00  0.00     0.019 A 
HETATM   10  C   UNL     1      50.651 -30.501   3.056  1.00  0.00     0.001 A 
HETATM   11  C   UNL     1      50.088 -29.495   3.844  1.00  0.00     0.002 A 
HETATM   12  C   UNL     1      48.720 -29.224   3.765  1.00  0.00     0.024 A 
HETATM   13  H   UNL     1      46.094 -30.304   3.555  1.00  0.00     0.130 HD
ENDROOT
BRANCH   1  14
HETATM   14  C   UNL     1      44.443 -29.731   1.521  1.00  0.00     0.029 A 
HETATM   15  C   UNL     1      43.673 -29.248   0.422  1.00  0.00     0.121 A 
HETATM   16  N   UNL     1      42.384 -29.076   0.750  1.00  0.00    -0.172 NA
HETATM   17  N   UNL     1      42.324 -29.428   2.040  1.00  0.00    -0.288 N 
HETATM   18  H   UNL     1      41.429 -29.366   2.514  1.00  0.00     0.188 HD
HETATM   19  C   UNL     1      43.517 -29.838   2.548  1.00  0.00     0.122 A 
BRANCH  15  20
HETATM   20  C   UNL     1      44.167 -28.977  -0.964  1.00  0.00     0.106 A 
HETATM   21  O   UNL     1      43.801 -29.682  -2.077  1.00  0.00    -0.313 OA
HETATM   22  C   UNL     1      44.427 -29.121  -3.147  1.00  0.00     0.050 A 
HETATM   23  C   UNL     1      44.155 -29.734  -4.463  1.00  0.00     0.076 C 
HETATM   24  C   UNL     1      45.208 -28.064  -2.737  1.00  0.00     0.035 A 
HETATM   25  C   UNL     1      45.041 -27.971  -1.333  1.00  0.00     0.042 A 
ENDBRANCH  15  20
ENDBRANCH   1  14
TORSDOF 2
ENDMDL
MODEL 8
REMARK VINA RESULT:      -6.9     16.310     18.051
REMARK  2 active torsions:
REMARK  status: ('A' for Active; 'I' for Inactive)
REMARK    1  A    between atoms: C_4  and  C_5 
REMARK    2  A    between atoms: C_10  and  C_11 
ROOT
HETATM    1  C   UNL     1      47.074 -29.469   1.126  1.00  0.00     0.202 C 
HETATM    2  N   UNL     1      46.531 -30.814   0.945  1.00  0.00    -0.331 N 
HETATM    3  C   UNL     1      46.533 -31.757   2.055  1.00  0.00     0.155 C 
HETATM    4  C   UNL     1      45.474 -30.951   0.036  1.00  0.00     0.256 C 
HETATM    5  O   UNL     1      44.655 -31.865   0.066  1.00  0.00    -0.267 OA
HETATM    6  C   UNL     1      45.398 -29.943  -1.044  1.00  0.00     0.053 A 
HETATM    7  C   UNL     1      46.419 -28.992  -1.121  1.00  0.00     0.026 A 
HETATM    8  N   UNL     1      47.489 -28.995  -0.202  1.00  0.00    -0.266 NA
HETATM    9  C   UNL     1      44.377 -29.982  -1.998  1.00  0.00     0.019 A 
HETATM   10  C   UNL     1      44.394 -29.081  -3.062  1.00  0.00     0.001 A 
HETATM   11  C   UNL     1      45.438 -28.161  -3.176  1.00  0.00     0.002 A 
HETATM   12  C   UNL     1      46.454 -28.129  -2.218  1.00  0.00     0.024 A 
HETATM   13  H   UNL     1      48.191 -29.646  -0.548  1.00  0.00     0.130 HD
ENDROOT
BRANCH   1  14
HETATM   14  C   UNL     1      48.198 -29.427   2.125  1.00  0.00     0.029 A 
HETATM   15  C   UNL     1      49.512 -29.967   1.996  1.00  0.00     0.121 A 
HETATM   16  N   UNL     1      50.250 -29.759   3.097  1.00  0.00    -0.172 NA
HETATM   17  N   UNL     1      49.425 -29.109   3.927  1.00  0.00    -0.288 N 
HETATM   18  H   UNL     1      49.772 -28.853   4.845  1.00  0.00     0.188 HD
HETATM   19  C   UNL     1      48.195 -28.873   3.397  1.00  0.00     0.122 A 
BRANCH  15  20
HETATM   20  C   UNL     1      50.077 -30.662   0.798  1.00  0.00     0.106 A 
HETATM   21  O   UNL     1      50.581 -30.031  -0.306  1.00  0.00    -0.313 OA
HETATM   22  C   UNL     1      51.031 -30.990  -1.161  1.00  0.00     0.050 A 
HETATM   23  C   UNL     1      51.628 -30.515  -2.425  1.00  0.00     0.076 C 
HETATM   24  C   UNL     1      50.811 -32.240  -0.627  1.00  0.00     0.035 A 
HETATM   25  C   UNL     1      50.198 -32.029   0.633  1.00  0.00     0.042 A 
ENDBRANCH  15  20
ENDBRANCH   1  14
TORSDOF 2
ENDMDL
MODEL 9
REMARK VINA RESULT:      -6.7     15.659     17.878
REMARK  2 active torsions:
REMARK  status: ('A' for Active; 'I' for Inactive)
REMARK    1  A    between atoms: C_4  and  C_5 
REMARK    2  A    between atoms: C_10  and  C_11 
ROOT
HETATM    1  C   UNL     1      43.898 -30.882  -0.537  1.00  0.00     0.202 C 
HETATM    2  N   UNL     1      44.745 -32.063  -0.683  1.00  0.00    -0.331 N 
HETATM    3  C   UNL     1      45.009 -32.918   0.465  1.00  0.00     0.155 C 
HETATM    4  C   UNL     1      44.717 -32.710  -1.925  1.00  0.00     0.256 C 
HETATM    5  O   UNL     1      45.011 -33.891  -2.094  1.00  0.00    -0.267 OA
HETATM    6  C   UNL     1      44.354 -31.879  -3.094  1.00  0.00     0.053 A 
HETATM    7  C   UNL     1      44.149 -30.513  -2.884  1.00  0.00     0.026 A 
HETATM    8  N   UNL     1      44.287 -29.944  -1.601  1.00  0.00    -0.266 NA
HETATM    9  C   UNL     1      44.288 -32.428  -4.378  1.00  0.00     0.019 A 
HETATM   10  C   UNL     1      44.045 -31.597  -5.471  1.00  0.00     0.001 A 
HETATM   11  C   UNL     1      43.890 -30.223  -5.277  1.00  0.00     0.002 A 
HETATM   12  C   UNL     1      43.958 -29.682  -3.990  1.00  0.00     0.024 A 
HETATM   13  H   UNL     1      45.271 -29.726  -1.464  1.00  0.00     0.130 HD
ENDROOT
BRANCH   1  14
HETATM   14  C   UNL     1      43.993 -30.265   0.832  1.00  0.00     0.029 A 
HETATM   15  C   UNL     1      45.075 -29.520   1.388  1.00  0.00     0.121 A 
HETATM   16  N   UNL     1      44.824 -29.135   2.648  1.00  0.00    -0.172 NA
HETATM   17  N   UNL     1      43.608 -29.634   2.906  1.00  0.00    -0.288 N 
HETATM   18  H   UNL     1      43.209 -29.475   3.826  1.00  0.00     0.188 HD
HETATM   19  C   UNL     1      43.061 -30.305   1.857  1.00  0.00     0.122 A 
BRANCH  15  20
HETATM   20  C   UNL     1      46.349 -29.145   0.698  1.00  0.00     0.106 A 
HETATM   21  O   UNL     1      47.456 -29.943   0.614  1.00  0.00    -0.313 OA
HETATM   22  C   UNL     1      48.392 -29.276  -0.114  1.00  0.00     0.050 A 
HETATM   23  C   UNL     1      49.675 -29.974  -0.333  1.00  0.00     0.076 C 
HETATM   24  C   UNL     1      47.907 -28.045  -0.494  1.00  0.00     0.035 A 
HETATM   25  C   UNL     1      46.592 -27.961   0.029  1.00  0.00     0.042 A 
ENDBRANCH  15  20
ENDBRANCH   1  14
TORSDOF 2
ENDMDL
MODEL 10
REMARK VINA RESULT:      -6.7      3.797      6.916
REMARK  2 active torsions:
REMARK  status: ('A' for Active; 'I' for Inactive)
REMARK    1  A    between atoms: C_4  and  C_5 
REMARK    2  A    between atoms: C_10  and  C_11 
ROOT
HETATM    1  C   UNL     1      41.069 -11.958   1.439  1.00  0.00     0.202 C 
HETATM    2  N   UNL     1      39.696 -11.972   1.939  1.00  0.00    -0.331 N 
HETATM    3  C   UNL     1      39.376 -11.342   3.212  1.00  0.00     0.155 C 
HETATM    4  C   UNL     1      38.675 -11.951   0.979  1.00  0.00     0.256 C 
HETATM    5  O   UNL     1      37.535 -11.549   1.196  1.00  0.00    -0.267 OA
HETATM    6  C   UNL     1      39.011 -12.497  -0.354  1.00  0.00     0.053 A 
HETATM    7  C   UNL     1      40.278 -13.060  -0.527  1.00  0.00     0.026 A 
HETATM    8  N   UNL     1      41.205 -13.109   0.534  1.00  0.00    -0.266 NA
HETATM    9  C   UNL     1      38.068 -12.515  -1.386  1.00  0.00     0.019 A 
HETATM   10  C   UNL     1      38.383 -13.131  -2.596  1.00  0.00     0.001 A 
HETATM   11  C   UNL     1      39.627 -13.742  -2.761  1.00  0.00     0.002 A 
HETATM   12  C   UNL     1      40.564 -13.720  -1.724  1.00  0.00     0.024 A 
HETATM   13  H   UNL     1      41.007 -13.945   1.080  1.00  0.00     0.130 HD
ENDROOT
BRANCH   1  14
HETATM   14  C   UNL     1      42.089 -11.977   2.545  1.00  0.00     0.029 A 
HETATM   15  C   UNL     1      42.494 -13.082   3.351  1.00  0.00     0.121 A 
HETATM   16  N   UNL     1      43.417 -12.730   4.258  1.00  0.00    -0.172 NA
HETATM   17  N   UNL     1      43.596 -11.419   4.051  1.00  0.00    -0.288 N 
HETATM   18  H   UNL     1      44.256 -10.925   4.644  1.00  0.00     0.188 HD
HETATM   19  C   UNL     1      42.840 -10.920   3.037  1.00  0.00     0.122 A 
BRANCH  15  20
HETATM   20  C   UNL     1      42.017 -14.495   3.232  1.00  0.00     0.106 A 
HETATM   21  O   UNL     1      42.753 -15.529   2.724  1.00  0.00    -0.313 OA
HETATM   22  C   UNL     1      41.999 -16.658   2.814  1.00  0.00     0.050 A 
HETATM   23  C   UNL     1      42.620 -17.904   2.321  1.00  0.00     0.076 C 
HETATM   24  C   UNL     1      40.773 -16.364   3.365  1.00  0.00     0.035 A 
HETATM   25  C   UNL     1      40.784 -14.973   3.635  1.00  0.00     0.042 A 
ENDBRANCH  15  20
ENDBRANCH   1  14
TORSDOF 2
ENDMDL
