MODEL 1
REMARK VINA RESULT:      -7.6      0.000      0.000
REMARK  2 active torsions:
REMARK  status: ('A' for Active; 'I' for Inactive)
REMARK    1  A    between atoms: C_8  and  S_9 
REMARK    2  A    between atoms: S_9  and  C_10 
ROOT
HETATM    1  C   UNL     1      43.546 -20.567   2.323  1.00  0.00     0.002 A 
HETATM    2  C   UNL     1      43.221 -19.223   2.136  1.00  0.00     0.034 A 
HETATM    3  C   UNL     1      43.401 -18.290   3.148  1.00  0.00     0.087 A 
HETATM    4  C   UNL     1      43.928 -18.718   4.397  1.00  0.00     0.087 A 
HETATM    5  N   UNL     1      44.122 -17.854   5.412  1.00  0.00    -0.232 NA
HETATM    6  C   UNL     1      43.820 -16.562   5.170  1.00  0.00     0.164 A 
HETATM    7 CL   UNL     1      44.085 -15.518   6.505  1.00  0.00    -0.059 Cl
HETATM    8  C   UNL     1      43.304 -16.144   3.957  1.00  0.00     0.165 A 
HETATM    9  N   UNL     1      43.066 -17.001   2.932  1.00  0.00    -0.234 NA
HETATM   10  C   UNL     1      44.244 -20.059   4.570  1.00  0.00     0.034 A 
HETATM   11  C   UNL     1      44.057 -20.987   3.544  1.00  0.00     0.002 A 
ENDROOT
BRANCH   8  12
HETATM   12  S   UNL     1      42.863 -14.451   3.585  1.00  0.00     0.076 S 
HETATM   13  O   UNL     1      43.389 -14.123   2.218  1.00  0.00    -0.251 OA
BRANCH  12  14
HETATM   14  C   UNL     1      41.041 -14.635   3.416  1.00  0.00     0.089 C 
HETATM   15  C   UNL     1      40.276 -13.310   3.319  1.00  0.00     0.045 C 
HETATM   16  C   UNL     1      40.247 -12.525   4.622  1.00  0.00     0.233 C 
HETATM   17  N   UNL     1      39.716 -13.398   5.713  1.00  0.00    -0.075 N 
HETATM   18  H   UNL     1      38.717 -13.587   5.560  1.00  0.00     0.277 HD
HETATM   19  H   UNL     1      39.766 -12.863   6.593  1.00  0.00     0.277 HD
HETATM   20  C   UNL     1      40.460 -14.676   5.909  1.00  0.00     0.233 C 
HETATM   21  C   UNL     1      40.509 -15.458   4.600  1.00  0.00     0.045 C 
ENDBRANCH  12  14
ENDBRANCH   8  12
TORSDOF 2
ENDMDL
MODEL 2
REMARK VINA RESULT:      -7.5      1.614      1.966
REMARK  2 active torsions:
REMARK  status: ('A' for Active; 'I' for Inactive)
REMARK    1  A    between atoms: C_8  and  S_9 
REMARK    2  A    between atoms: S_9  and  C_10 
ROOT
HETATM    1  C   UNL     1      43.859 -20.903   3.252  1.00  0.00     0.002 A 
HETATM    2  C   UNL     1      43.552 -19.698   2.620  1.00  0.00     0.034 A 
HETATM    3  C   UNL     1      43.493 -18.505   3.329  1.00  0.00     0.087 A 
HETATM    4  C   UNL     1      43.756 -18.519   4.726  1.00  0.00     0.087 A 
HETATM    5  N   UNL     1      43.713 -17.390   5.462  1.00  0.00    -0.232 NA
HETATM    6  C   UNL     1      43.439 -16.249   4.798  1.00  0.00     0.164 A 
HETATM    7 CL   UNL     1      43.394 -14.853   5.793  1.00  0.00    -0.059 Cl
HETATM    8  C   UNL     1      43.181 -16.234   3.439  1.00  0.00     0.165 A 
HETATM    9  N   UNL     1      43.183 -17.362   2.685  1.00  0.00    -0.234 NA
HETATM   10  C   UNL     1      44.058 -19.726   5.343  1.00  0.00     0.034 A 
HETATM   11  C   UNL     1      44.111 -20.918   4.618  1.00  0.00     0.002 A 
ENDROOT
BRANCH   8  12
HETATM   12  S   UNL     1      42.791 -14.757   2.509  1.00  0.00     0.076 S 
HETATM   13  O   UNL     1      43.866 -14.557   1.481  1.00  0.00    -0.251 OA
BRANCH  12  14
HETATM   14  C   UNL     1      41.302 -15.345   1.603  1.00  0.00     0.089 C 
HETATM   15  C   UNL     1      40.983 -14.556   0.328  1.00  0.00     0.045 C 
HETATM   16  C   UNL     1      40.474 -13.146   0.593  1.00  0.00     0.233 C 
HETATM   17  N   UNL     1      39.304 -13.209   1.519  1.00  0.00    -0.075 N 
HETATM   18  H   UNL     1      38.498 -13.636   1.042  1.00  0.00     0.277 HD
HETATM   19  H   UNL     1      39.020 -12.241   1.730  1.00  0.00     0.277 HD
HETATM   20  C   UNL     1      39.565 -13.903   2.812  1.00  0.00     0.233 C 
HETATM   21  C   UNL     1      40.093 -15.311   2.553  1.00  0.00     0.045 C 
ENDBRANCH  12  14
ENDBRANCH   8  12
TORSDOF 2
ENDMDL
MODEL 3
REMARK VINA RESULT:      -7.1      2.762      3.569
REMARK  2 active torsions:
REMARK  status: ('A' for Active; 'I' for Inactive)
REMARK    1  A    between atoms: C_8  and  S_9 
REMARK    2  A    between atoms: S_9  and  C_10 
ROOT
HETATM    1  C   UNL     1      44.461 -18.923   4.057  1.00  0.00     0.002 A 
HETATM    2  C   UNL     1      44.033 -17.728   4.636  1.00  0.00     0.034 A 
HETATM    3  C   UNL     1      43.052 -16.948   4.037  1.00  0.00     0.087 A 
HETATM    4  C   UNL     1      42.474 -17.383   2.814  1.00  0.00     0.087 A 
HETATM    5  N   UNL     1      41.519 -16.664   2.192  1.00  0.00    -0.232 NA
HETATM    6  C   UNL     1      41.121 -15.532   2.806  1.00  0.00     0.164 A 
HETATM    7 CL   UNL     1      39.908 -14.663   1.959  1.00  0.00    -0.059 Cl
HETATM    8  C   UNL     1      41.684 -15.105   3.995  1.00  0.00     0.165 A 
HETATM    9  N   UNL     1      42.672 -15.793   4.622  1.00  0.00    -0.234 NA
HETATM   10  C   UNL     1      42.911 -18.574   2.248  1.00  0.00     0.034 A 
HETATM   11  C   UNL     1      43.900 -19.347   2.860  1.00  0.00     0.002 A 
ENDROOT
BRANCH   8  12
HETATM   12  S   UNL     1      41.214 -13.603   4.845  1.00  0.00     0.076 S 
HETATM   13  O   UNL     1      41.010 -13.933   6.295  1.00  0.00    -0.251 OA
BRANCH  12  14
HETATM   14  C   UNL     1      42.798 -12.676   4.736  1.00  0.00     0.089 C 
HETATM   15  C   UNL     1      42.806 -11.341   5.490  1.00  0.00     0.045 C 
HETATM   16  C   UNL     1      41.939 -10.270   4.843  1.00  0.00     0.233 C 
HETATM   17  N   UNL     1      42.339 -10.107   3.413  1.00  0.00    -0.075 N 
HETATM   18  H   UNL     1      43.274  -9.682   3.353  1.00  0.00     0.277 HD
HETATM   19  H   UNL     1      41.697  -9.424   2.985  1.00  0.00     0.277 HD
HETATM   20  C   UNL     1      42.286 -11.357   2.602  1.00  0.00     0.233 C 
HETATM   21  C   UNL     1      43.139 -12.440   3.255  1.00  0.00     0.045 C 
ENDBRANCH  12  14
ENDBRANCH   8  12
TORSDOF 2
ENDMDL
MODEL 4
REMARK VINA RESULT:      -7.0      2.147      2.793
REMARK  2 active torsions:
REMARK  status: ('A' for Active; 'I' for Inactive)
REMARK    1  A    between atoms: C_8  and  S_9 
REMARK    2  A    between atoms: S_9  and  C_10 
ROOT
HETATM    1  C   UNL     1      43.830 -20.201   6.014  1.00  0.00     0.002 A 
HETATM    2  C   UNL     1      43.548 -18.836   6.076  1.00  0.00     0.034 A 
HETATM    3  C   UNL     1      43.475 -18.062   4.925  1.00  0.00     0.087 A 
HETATM    4  C   UNL     1      43.689 -18.679   3.663  1.00  0.00     0.087 A 
HETATM    5  N   UNL     1      43.629 -17.973   2.515  1.00  0.00    -0.232 NA
HETATM    6  C   UNL     1      43.326 -16.665   2.628  1.00  0.00     0.164 A 
HETATM    7 CL   UNL     1      43.272 -15.826   1.132  1.00  0.00    -0.059 Cl
HETATM    8  C   UNL     1      43.120 -16.062   3.856  1.00  0.00     0.165 A 
HETATM    9  N   UNL     1      43.210 -16.743   5.026  1.00  0.00    -0.234 NA
HETATM   10  C   UNL     1      43.971 -20.038   3.616  1.00  0.00     0.034 A 
HETATM   11  C   UNL     1      44.044 -20.803   4.781  1.00  0.00     0.002 A 
ENDROOT
BRANCH   8  12
HETATM   12  S   UNL     1      42.737 -14.328   4.070  1.00  0.00     0.076 S 
HETATM   13  O   UNL     1      41.504 -14.021   3.272  1.00  0.00    -0.251 OA
BRANCH  12  14
HETATM   14  C   UNL     1      42.230 -14.338   5.837  1.00  0.00     0.089 C 
HETATM   15  C   UNL     1      40.867 -13.691   6.110  1.00  0.00     0.045 C 
HETATM   16  C   UNL     1      40.865 -12.178   5.942  1.00  0.00     0.233 C 
HETATM   17  N   UNL     1      41.944 -11.585   6.788  1.00  0.00    -0.075 N 
HETATM   18  H   UNL     1      41.708 -11.685   7.784  1.00  0.00     0.277 HD
HETATM   19  H   UNL     1      41.961 -10.571   6.608  1.00  0.00     0.277 HD
HETATM   20  C   UNL     1      43.311 -12.121   6.525  1.00  0.00     0.233 C 
HETATM   21  C   UNL     1      43.315 -13.640   6.674  1.00  0.00     0.045 C 
ENDBRANCH  12  14
ENDBRANCH   8  12
TORSDOF 2
ENDMDL
MODEL 5
REMARK VINA RESULT:      -6.9      2.070      2.329
REMARK  2 active torsions:
REMARK  status: ('A' for Active; 'I' for Inactive)
REMARK    1  A    between atoms: C_8  and  S_9 
REMARK    2  A    between atoms: S_9  and  C_10 
ROOT
HETATM    1  C   UNL     1      43.900 -19.345   2.823  1.00  0.00     0.002 A 
HETATM    2  C   UNL     1      43.600 -17.988   2.942  1.00  0.00     0.034 A 
HETATM    3  C   UNL     1      43.467 -17.385   4.186  1.00  0.00     0.087 A 
HETATM    4  C   UNL     1      43.643 -18.171   5.357  1.00  0.00     0.087 A 
HETATM    5  N   UNL     1      43.525 -17.636   6.588  1.00  0.00    -0.232 NA
HETATM    6  C   UNL     1      43.262 -16.315   6.648  1.00  0.00     0.164 A 
HETATM    7 CL   UNL     1      43.119 -15.700   8.243  1.00  0.00    -0.059 Cl
HETATM    8  C   UNL     1      43.087 -15.549   5.510  1.00  0.00     0.165 A 
HETATM    9  N   UNL     1      43.166 -16.072   4.260  1.00  0.00    -0.234 NA
HETATM   10  C   UNL     1      43.939 -19.522   5.223  1.00  0.00     0.034 A 
HETATM   11  C   UNL     1      44.069 -20.115   3.967  1.00  0.00     0.002 A 
ENDROOT
BRANCH   8  12
HETATM   12  S   UNL     1      42.716 -13.800   5.526  1.00  0.00     0.076 S 
HETATM   13  O   UNL     1      43.913 -13.074   6.067  1.00  0.00    -0.251 OA
BRANCH  12  14
HETATM   14  C   UNL     1      42.679 -13.474   3.716  1.00  0.00     0.089 C 
HETATM   15  C   UNL     1      43.467 -12.234   3.279  1.00  0.00     0.045 C 
HETATM   16  C   UNL     1      42.824 -10.921   3.701  1.00  0.00     0.233 C 
HETATM   17  N   UNL     1      41.411 -10.884   3.216  1.00  0.00    -0.075 N 
HETATM   18  H   UNL     1      41.391 -10.807   2.190  1.00  0.00     0.277 HD
HETATM   19  H   UNL     1      40.982 -10.016   3.568  1.00  0.00     0.277 HD
HETATM   20  C   UNL     1      40.566 -12.028   3.664  1.00  0.00     0.233 C 
HETATM   21  C   UNL     1      41.215 -13.348   3.260  1.00  0.00     0.045 C 
ENDBRANCH  12  14
ENDBRANCH   8  12
TORSDOF 2
ENDMDL
MODEL 6
REMARK VINA RESULT:      -6.7      2.548      3.150
REMARK  2 active torsions:
REMARK  status: ('A' for Active; 'I' for Inactive)
REMARK    1  A    between atoms: C_8  and  S_9 
REMARK    2  A    between atoms: S_9  and  C_10 
ROOT
HETATM    1  C   UNL     1      43.385 -18.540   2.465  1.00  0.00     0.002 A 
HETATM    2  C   UNL     1      42.652 -17.355   2.542  1.00  0.00     0.034 A 
HETATM    3  C   UNL     1      42.782 -16.496   3.626  1.00  0.00     0.087 A 
HETATM    4  C   UNL     1      43.682 -16.836   4.672  1.00  0.00     0.087 A 
HETATM    5  N   UNL     1      43.846 -16.038   5.747  1.00  0.00    -0.232 NA
HETATM    6  C   UNL     1      43.136 -14.892   5.759  1.00  0.00     0.164 A 
HETATM    7 CL   UNL     1      43.387 -13.927   7.156  1.00  0.00    -0.059 Cl
HETATM    8  C   UNL     1      42.258 -14.561   4.743  1.00  0.00     0.165 A 
HETATM    9  N   UNL     1      42.049 -15.365   3.670  1.00  0.00    -0.234 NA
HETATM   10  C   UNL     1      44.403 -18.020   4.584  1.00  0.00     0.034 A 
HETATM   11  C   UNL     1      44.261 -18.874   3.489  1.00  0.00     0.002 A 
ENDROOT
BRANCH   8  12
HETATM   12  S   UNL     1      41.275 -13.068   4.715  1.00  0.00     0.076 S 
HETATM   13  O   UNL     1      40.650 -12.895   6.069  1.00  0.00    -0.251 OA
BRANCH  12  14
HETATM   14  C   UNL     1      42.616 -11.815   4.593  1.00  0.00     0.089 C 
HETATM   15  C   UNL     1      42.232 -10.422   5.104  1.00  0.00     0.045 C 
HETATM   16  C   UNL     1      41.239  -9.695   4.208  1.00  0.00     0.233 C 
HETATM   17  N   UNL     1      41.773  -9.651   2.813  1.00  0.00    -0.075 N 
HETATM   18  H   UNL     1      42.591  -9.029   2.766  1.00  0.00     0.277 HD
HETATM   19  H   UNL     1      41.056  -9.210   2.218  1.00  0.00     0.277 HD
HETATM   20  C   UNL     1      42.102 -10.982   2.226  1.00  0.00     0.233 C 
HETATM   21  C   UNL     1      43.083 -11.723   3.130  1.00  0.00     0.045 C 
ENDBRANCH  12  14
ENDBRANCH   8  12
TORSDOF 2
ENDMDL
MODEL 7
REMARK VINA RESULT:      -6.6      1.798      2.318
REMARK  2 active torsions:
REMARK  status: ('A' for Active; 'I' for Inactive)
REMARK    1  A    between atoms: C_8  and  S_9 
REMARK    2  A    between atoms: S_9  and  C_10 
ROOT
HETATM    1  C   UNL     1      43.606 -18.476   2.879  1.00  0.00     0.002 A 
HETATM    2  C   UNL     1      43.072 -17.203   2.678  1.00  0.00     0.034 A 
HETATM    3  C   UNL     1      43.109 -16.240   3.678  1.00  0.00     0.087 A 
HETATM    4  C   UNL     1      43.706 -16.563   4.927  1.00  0.00     0.087 A 
HETATM    5  N   UNL     1      43.768 -15.665   5.930  1.00  0.00    -0.232 NA
HETATM    6  C   UNL     1      43.263 -14.442   5.676  1.00  0.00     0.164 A 
HETATM    7 CL   UNL     1      43.369 -13.351   6.996  1.00  0.00    -0.059 Cl
HETATM    8  C   UNL     1      42.678 -14.127   4.463  1.00  0.00     0.165 A 
HETATM    9  N   UNL     1      42.572 -15.024   3.450  1.00  0.00    -0.234 NA
HETATM   10  C   UNL     1      44.232 -17.835   5.113  1.00  0.00     0.034 A 
HETATM   11  C   UNL     1      44.187 -18.794   4.100  1.00  0.00     0.002 A 
ENDROOT
BRANCH   8  12
HETATM   12  S   UNL     1      41.973 -12.530   4.075  1.00  0.00     0.076 S 
HETATM   13  O   UNL     1      42.230 -12.246   2.624  1.00  0.00    -0.251 OA
BRANCH  12  14
HETATM   14  C   UNL     1      40.185 -12.937   4.220  1.00  0.00     0.089 C 
HETATM   15  C   UNL     1      39.253 -11.980   3.467  1.00  0.00     0.045 C 
HETATM   16  C   UNL     1      39.162 -10.597   4.094  1.00  0.00     0.233 C 
HETATM   17  N   UNL     1      38.783 -10.730   5.533  1.00  0.00    -0.075 N 
HETATM   18  H   UNL     1      37.812 -11.060   5.614  1.00  0.00     0.277 HD
HETATM   19  H   UNL     1      38.790  -9.786   5.947  1.00  0.00     0.277 HD
HETATM   20  C   UNL     1      39.691 -11.593   6.343  1.00  0.00     0.233 C 
HETATM   21  C   UNL     1      39.800 -12.976   5.708  1.00  0.00     0.045 C 
ENDBRANCH  12  14
ENDBRANCH   8  12
TORSDOF 2
ENDMDL
MODEL 8
REMARK VINA RESULT:      -6.4     14.475     15.554
REMARK  2 active torsions:
REMARK  status: ('A' for Active; 'I' for Inactive)
REMARK    1  A    between atoms: C_8  and  S_9 
REMARK    2  A    between atoms: S_9  and  C_10 
ROOT
HETATM    1  C   UNL     1      48.719 -29.722   4.013  1.00  0.00     0.002 A 
HETATM    2  C   UNL     1      48.010 -29.682   2.812  1.00  0.00     0.034 A 
HETATM    3  C   UNL     1      48.653 -29.833   1.590  1.00  0.00     0.087 A 
HETATM    4  C   UNL     1      50.059 -30.034   1.570  1.00  0.00     0.087 A 
HETATM    5  N   UNL     1      50.732 -30.186   0.411  1.00  0.00    -0.232 NA
HETATM    6  C   UNL     1      49.997 -30.168  -0.719  1.00  0.00     0.164 A 
HETATM    7 CL   UNL     1      50.915 -30.360  -2.155  1.00  0.00    -0.059 Cl
HETATM    8  C   UNL     1      48.629 -29.968  -0.701  1.00  0.00     0.165 A 
HETATM    9  N   UNL     1      47.935 -29.777   0.449  1.00  0.00    -0.234 NA
HETATM   10  C   UNL     1      50.753 -30.070   2.773  1.00  0.00     0.034 A 
HETATM   11  C   UNL     1      50.094 -29.915   3.993  1.00  0.00     0.002 A 
ENDROOT
BRANCH   8  12
HETATM   12  S   UNL     1      47.605 -29.911  -2.167  1.00  0.00     0.076 S 
HETATM   13  O   UNL     1      47.485 -31.307  -2.706  1.00  0.00    -0.251 OA
BRANCH  12  14
HETATM   14  C   UNL     1      45.984 -29.505  -1.398  1.00  0.00     0.089 C 
HETATM   15  C   UNL     1      44.861 -30.497  -1.724  1.00  0.00     0.045 C 
HETATM   16  C   UNL     1      44.385 -30.427  -3.168  1.00  0.00     0.233 C 
HETATM   17  N   UNL     1      44.002 -29.020  -3.494  1.00  0.00    -0.075 N 
HETATM   18  H   UNL     1      43.150 -28.757  -2.981  1.00  0.00     0.277 HD
HETATM   19  H   UNL     1      43.744 -28.990  -4.492  1.00  0.00     0.277 HD
HETATM   20  C   UNL     1      45.075 -28.010  -3.267  1.00  0.00     0.233 C 
HETATM   21  C   UNL     1      45.569 -28.088  -1.825  1.00  0.00     0.045 C 
ENDBRANCH  12  14
ENDBRANCH   8  12
TORSDOF 2
ENDMDL
MODEL 9
REMARK VINA RESULT:      -6.4      3.009      3.652
REMARK  2 active torsions:
REMARK  status: ('A' for Active; 'I' for Inactive)
REMARK    1  A    between atoms: C_8  and  S_9 
REMARK    2  A    between atoms: S_9  and  C_10 
ROOT
HETATM    1  C   UNL     1      43.814 -19.177   2.795  1.00  0.00     0.002 A 
HETATM    2  C   UNL     1      42.791 -18.384   2.274  1.00  0.00     0.034 A 
HETATM    3  C   UNL     1      42.423 -17.191   2.883  1.00  0.00     0.087 A 
HETATM    4  C   UNL     1      43.108 -16.774   4.056  1.00  0.00     0.087 A 
HETATM    5  N   UNL     1      42.791 -15.625   4.686  1.00  0.00    -0.232 NA
HETATM    6  C   UNL     1      41.815 -14.882   4.127  1.00  0.00     0.164 A 
HETATM    7 CL   UNL     1      41.457 -13.438   4.980  1.00  0.00    -0.059 Cl
HETATM    8  C   UNL     1      41.145 -15.288   2.987  1.00  0.00     0.165 A 
HETATM    9  N   UNL     1      41.422 -16.457   2.356  1.00  0.00    -0.234 NA
HETATM   10  C   UNL     1      44.123 -17.575   4.564  1.00  0.00     0.034 A 
HETATM   11  C   UNL     1      44.481 -18.772   3.943  1.00  0.00     0.002 A 
ENDROOT
BRANCH   8  12
HETATM   12  S   UNL     1      39.828 -14.357   2.213  1.00  0.00     0.076 S 
HETATM   13  O   UNL     1      39.352 -13.323   3.190  1.00  0.00    -0.251 OA
BRANCH  12  14
HETATM   14  C   UNL     1      40.794 -13.461   0.930  1.00  0.00     0.089 C 
HETATM   15  C   UNL     1      40.399 -11.991   0.750  1.00  0.00     0.045 C 
HETATM   16  C   UNL     1      39.037 -11.800   0.099  1.00  0.00     0.233 C 
HETATM   17  N   UNL     1      38.995 -12.552  -1.191  1.00  0.00    -0.075 N 
HETATM   18  H   UNL     1      39.619 -12.110  -1.879  1.00  0.00     0.277 HD
HETATM   19  H   UNL     1      38.044 -12.457  -1.578  1.00  0.00     0.277 HD
HETATM   20  C   UNL     1      39.301 -14.008  -1.078  1.00  0.00     0.233 C 
HETATM   21  C   UNL     1      40.659 -14.205  -0.409  1.00  0.00     0.045 C 
ENDBRANCH  12  14
ENDBRANCH   8  12
TORSDOF 2
ENDMDL
MODEL 10
REMARK VINA RESULT:      -6.3      4.055      6.446
REMARK  2 active torsions:
REMARK  status: ('A' for Active; 'I' for Inactive)
REMARK    1  A    between atoms: C_8  and  S_9 
REMARK    2  A    between atoms: S_9  and  C_10 
ROOT
HETATM    1  C   UNL     1      38.915 -14.756  -2.496  1.00  0.00     0.002 A 
HETATM    2  C   UNL     1      39.340 -15.031  -1.196  1.00  0.00     0.034 A 
HETATM    3  C   UNL     1      39.990 -14.070  -0.432  1.00  0.00     0.087 A 
HETATM    4  C   UNL     1      40.221 -12.784  -0.990  1.00  0.00     0.087 A 
HETATM    5  N   UNL     1      40.848 -11.816  -0.291  1.00  0.00    -0.232 NA
HETATM    6  C   UNL     1      41.213 -12.124   0.970  1.00  0.00     0.164 A 
HETATM    7 CL   UNL     1      42.010 -10.851   1.799  1.00  0.00    -0.059 Cl
HETATM    8  C   UNL     1      40.992 -13.376   1.513  1.00  0.00     0.165 A 
HETATM    9  N   UNL     1      40.395 -14.377   0.818  1.00  0.00    -0.234 NA
HETATM   10  C   UNL     1      39.795 -12.525  -2.286  1.00  0.00     0.034 A 
HETATM   11  C   UNL     1      39.144 -13.500  -3.043  1.00  0.00     0.002 A 
ENDROOT
BRANCH   8  12
HETATM   12  S   UNL     1      41.472 -13.850   3.169  1.00  0.00     0.076 S 
HETATM   13  O   UNL     1      40.445 -13.314   4.124  1.00  0.00    -0.251 OA
BRANCH  12  14
HETATM   14  C   UNL     1      41.196 -15.665   3.066  1.00  0.00     0.089 C 
HETATM   15  C   UNL     1      40.567 -16.284   4.320  1.00  0.00     0.045 C 
HETATM   16  C   UNL     1      41.505 -16.323   5.518  1.00  0.00     0.233 C 
HETATM   17  N   UNL     1      42.773 -17.013   5.130  1.00  0.00    -0.075 N 
HETATM   18  H   UNL     1      42.597 -18.014   4.969  1.00  0.00     0.277 HD
HETATM   19  H   UNL     1      43.412 -16.970   5.937  1.00  0.00     0.277 HD
HETATM   20  C   UNL     1      43.476 -16.418   3.957  1.00  0.00     0.233 C 
HETATM   21  C   UNL     1      42.534 -16.358   2.758  1.00  0.00     0.045 C 
ENDBRANCH  12  14
ENDBRANCH   8  12
TORSDOF 2
ENDMDL
