MODEL 1
REMARK VINA RESULT:      -8.9      0.000      0.000
REMARK  2 active torsions:
REMARK  status: ('A' for Active; 'I' for Inactive)
REMARK    1  A    between atoms: C_4  and  C_5 
REMARK    2  A    between atoms: N_11  and  C_12 
ROOT
HETATM    1  C   UNL     1      43.715 -12.290   6.835  1.00  0.00     0.069 A 
HETATM    2  N   UNL     1      44.330 -13.529   6.782  1.00  0.00    -0.343 N 
HETATM    3  C   UNL     1      43.743 -14.597   6.166  1.00  0.00     0.119 A 
HETATM    4  C   UNL     1      42.573 -14.462   5.518  1.00  0.00     0.125 A 
HETATM    5  C   UNL     1      42.275 -15.765   4.901  1.00  0.00     0.280 A 
HETATM    6  O   UNL     1      41.297 -16.005   4.215  1.00  0.00    -0.265 OA
HETATM    7  N   UNL     1      43.340 -16.601   5.269  1.00  0.00    -0.236 N 
HETATM    8  N   UNL     1      44.239 -15.883   6.087  1.00  0.00    -0.179 NA
HETATM    9  C   UNL     1      41.875 -13.171   5.469  1.00  0.00     0.215 A 
HETATM   10  O   UNL     1      40.825 -13.020   4.856  1.00  0.00    -0.285 OA
HETATM   11  C   UNL     1      42.535 -12.044   6.224  1.00  0.00     0.112 A 
HETATM   12 CL   UNL     1      41.719 -10.526   6.248  1.00  0.00    -0.077 Cl
HETATM   13  H   UNL     1      45.134 -13.695   7.379  1.00  0.00     0.167 HD
HETATM   14  H   UNL     1      45.188 -15.883   5.712  1.00  0.00     0.155 HD
ENDROOT
BRANCH   1  15
HETATM   15  C   UNL     1      44.433 -11.261   7.606  1.00  0.00    -0.008 A 
HETATM   16  C   UNL     1      43.932 -10.826   8.840  1.00  0.00     0.014 A 
HETATM   17  C   UNL     1      44.619  -9.858   9.573  1.00  0.00     0.001 A 
HETATM   18  C   UNL     1      45.809  -9.321   9.080  1.00  0.00     0.000 A 
HETATM   19  C   UNL     1      46.314  -9.751   7.854  1.00  0.00     0.001 A 
HETATM   20  C   UNL     1      45.630 -10.721   7.118  1.00  0.00     0.014 A 
ENDBRANCH   1  15
BRANCH   7  21
HETATM   21  C   UNL     1      43.563 -17.964   4.977  1.00  0.00     0.055 A 
HETATM   22  C   UNL     1      43.598 -18.928   5.992  1.00  0.00     0.031 A 
HETATM   23  C   UNL     1      43.807 -20.280   5.693  1.00  0.00     0.002 A 
HETATM   24  C   UNL     1      43.988 -20.686   4.375  1.00  0.00     0.000 A 
HETATM   25  C   UNL     1      43.963 -19.743   3.354  1.00  0.00     0.002 A 
HETATM   26  C   UNL     1      43.753 -18.392   3.652  1.00  0.00     0.031 A 
ENDBRANCH   7  21
TORSDOF 2
ENDMDL
MODEL 2
REMARK VINA RESULT:      -8.8      1.598      7.588
REMARK  2 active torsions:
REMARK  status: ('A' for Active; 'I' for Inactive)
REMARK    1  A    between atoms: C_4  and  C_5 
REMARK    2  A    between atoms: N_11  and  C_12 
ROOT
HETATM    1  C   UNL     1      42.869 -15.957   4.852  1.00  0.00     0.069 A 
HETATM    2  N   UNL     1      43.785 -15.317   5.670  1.00  0.00    -0.343 N 
HETATM    3  C   UNL     1      43.605 -14.028   6.081  1.00  0.00     0.119 A 
HETATM    4  C   UNL     1      42.487 -13.354   5.767  1.00  0.00     0.125 A 
HETATM    5  C   UNL     1      42.577 -12.044   6.434  1.00  0.00     0.280 A 
HETATM    6  O   UNL     1      41.723 -11.177   6.386  1.00  0.00    -0.265 OA
HETATM    7  N   UNL     1      43.808 -12.055   7.106  1.00  0.00    -0.236 N 
HETATM    8  N   UNL     1      44.467 -13.278   6.858  1.00  0.00    -0.179 NA
HETATM    9  C   UNL     1      41.431 -13.969   4.952  1.00  0.00     0.215 A 
HETATM   10  O   UNL     1      40.389 -13.383   4.683  1.00  0.00    -0.285 OA
HETATM   11  C   UNL     1      41.713 -15.370   4.470  1.00  0.00     0.112 A 
HETATM   12 CL   UNL     1      40.530 -16.110   3.458  1.00  0.00    -0.077 Cl
HETATM   13  H   UNL     1      44.696 -15.747   5.802  1.00  0.00     0.167 HD
HETATM   14  H   UNL     1      44.701 -13.773   7.719  1.00  0.00     0.155 HD
ENDROOT
BRANCH   1  15
HETATM   15  C   UNL     1      43.243 -17.315   4.426  1.00  0.00    -0.008 A 
HETATM   16  C   UNL     1      43.203 -17.665   3.070  1.00  0.00     0.014 A 
HETATM   17  C   UNL     1      43.566 -18.951   2.667  1.00  0.00     0.001 A 
HETATM   18  C   UNL     1      43.973 -19.891   3.614  1.00  0.00     0.000 A 
HETATM   19  C   UNL     1      44.017 -19.549   4.965  1.00  0.00     0.001 A 
HETATM   20  C   UNL     1      43.655 -18.263   5.371  1.00  0.00     0.014 A 
ENDBRANCH   1  15
BRANCH   7  21
HETATM   21  C   UNL     1      44.421 -11.052   7.888  1.00  0.00     0.055 A 
HETATM   22  C   UNL     1      43.917 -10.703   9.146  1.00  0.00     0.031 A 
HETATM   23  C   UNL     1      44.537  -9.715   9.921  1.00  0.00     0.002 A 
HETATM   24  C   UNL     1      45.669  -9.060   9.446  1.00  0.00     0.000 A 
HETATM   25  C   UNL     1      46.180  -9.388   8.195  1.00  0.00     0.002 A 
HETATM   26  C   UNL     1      45.561 -10.376   7.422  1.00  0.00     0.031 A 
ENDBRANCH   7  21
TORSDOF 2
ENDMDL
MODEL 3
REMARK VINA RESULT:      -8.4      4.753      8.370
REMARK  2 active torsions:
REMARK  status: ('A' for Active; 'I' for Inactive)
REMARK    1  A    between atoms: C_4  and  C_5 
REMARK    2  A    between atoms: N_11  and  C_12 
ROOT
HETATM    1  C   UNL     1      42.954 -16.673   2.982  1.00  0.00     0.069 A 
HETATM    2  N   UNL     1      42.353 -16.394   1.767  1.00  0.00    -0.343 N 
HETATM    3  C   UNL     1      41.898 -15.144   1.460  1.00  0.00     0.119 A 
HETATM    4  C   UNL     1      42.087 -14.115   2.302  1.00  0.00     0.125 A 
HETATM    5  C   UNL     1      41.562 -12.913   1.633  1.00  0.00     0.280 A 
HETATM    6  O   UNL     1      41.587 -11.788   2.098  1.00  0.00    -0.265 OA
HETATM    7  N   UNL     1      41.071 -13.363   0.398  1.00  0.00    -0.236 N 
HETATM    8  N   UNL     1      41.247 -14.760   0.303  1.00  0.00    -0.179 NA
HETATM    9  C   UNL     1      42.768 -14.301   3.590  1.00  0.00     0.215 A 
HETATM   10  O   UNL     1      42.980 -13.370   4.357  1.00  0.00    -0.285 OA
HETATM   11  C   UNL     1      43.189 -15.714   3.906  1.00  0.00     0.112 A 
HETATM   12 CL   UNL     1      43.935 -15.994   5.435  1.00  0.00    -0.077 Cl
HETATM   13  H   UNL     1      42.070 -17.172   1.179  1.00  0.00     0.167 HD
HETATM   14  H   UNL     1      41.787 -15.026  -0.521  1.00  0.00     0.155 HD
ENDROOT
BRANCH   1  15
HETATM   15  C   UNL     1      43.315 -18.083   3.199  1.00  0.00    -0.008 A 
HETATM   16  C   UNL     1      43.853 -18.494   4.426  1.00  0.00     0.014 A 
HETATM   17  C   UNL     1      44.186 -19.833   4.632  1.00  0.00     0.001 A 
HETATM   18  C   UNL     1      43.983 -20.768   3.617  1.00  0.00     0.000 A 
HETATM   19  C   UNL     1      43.447 -20.367   2.394  1.00  0.00     0.001 A 
HETATM   20  C   UNL     1      43.112 -19.028   2.184  1.00  0.00     0.014 A 
ENDBRANCH   1  15
BRANCH   7  21
HETATM   21  C   UNL     1      40.436 -12.644  -0.639  1.00  0.00     0.055 A 
HETATM   22  C   UNL     1      41.152 -11.757  -1.451  1.00  0.00     0.031 A 
HETATM   23  C   UNL     1      40.518 -11.057  -2.485  1.00  0.00     0.002 A 
HETATM   24  C   UNL     1      39.158 -11.232  -2.718  1.00  0.00     0.000 A 
HETATM   25  C   UNL     1      38.428 -12.104  -1.918  1.00  0.00     0.002 A 
HETATM   26  C   UNL     1      39.062 -12.804  -0.885  1.00  0.00     0.031 A 
ENDBRANCH   7  21
TORSDOF 2
ENDMDL
MODEL 4
REMARK VINA RESULT:      -8.2      5.007      8.444
REMARK  2 active torsions:
REMARK  status: ('A' for Active; 'I' for Inactive)
REMARK    1  A    between atoms: C_4  and  C_5 
REMARK    2  A    between atoms: N_11  and  C_12 
ROOT
HETATM    1  C   UNL     1      42.096 -16.443   2.962  1.00  0.00     0.069 A 
HETATM    2  N   UNL     1      42.051 -15.990   1.655  1.00  0.00    -0.343 N 
HETATM    3  C   UNL     1      41.337 -14.882   1.302  1.00  0.00     0.119 A 
HETATM    4  C   UNL     1      40.710 -14.140   2.230  1.00  0.00     0.125 A 
HETATM    5  C   UNL     1      40.122 -12.987   1.529  1.00  0.00     0.280 A 
HETATM    6  O   UNL     1      39.495 -12.090   2.065  1.00  0.00    -0.265 OA
HETATM    7  N   UNL     1      40.458 -13.164   0.178  1.00  0.00    -0.236 N 
HETATM    8  N   UNL     1      41.186 -14.364   0.030  1.00  0.00    -0.179 NA
HETATM    9  C   UNL     1      40.750 -14.508   3.651  1.00  0.00     0.215 A 
HETATM   10  O   UNL     1      40.214 -13.827   4.517  1.00  0.00    -0.285 OA
HETATM   11  C   UNL     1      41.496 -15.778   3.975  1.00  0.00     0.112 A 
HETATM   12 CL   UNL     1      41.517 -16.284   5.623  1.00  0.00    -0.077 Cl
HETATM   13  H   UNL     1      42.391 -16.604   0.920  1.00  0.00     0.167 HD
HETATM   14  H   UNL     1      42.094 -14.214  -0.410  1.00  0.00     0.155 HD
ENDROOT
BRANCH   1  15
HETATM   15  C   UNL     1      42.837 -17.697   3.171  1.00  0.00    -0.008 A 
HETATM   16  C   UNL     1      42.788 -18.715   2.209  1.00  0.00     0.014 A 
HETATM   17  C   UNL     1      43.499 -19.900   2.406  1.00  0.00     0.001 A 
HETATM   18  C   UNL     1      44.262 -20.074   3.560  1.00  0.00     0.000 A 
HETATM   19  C   UNL     1      44.317 -19.064   4.521  1.00  0.00     0.001 A 
HETATM   20  C   UNL     1      43.608 -17.877   4.327  1.00  0.00     0.014 A 
ENDBRANCH   1  15
BRANCH   7  21
HETATM   21  C   UNL     1      40.135 -12.373  -0.945  1.00  0.00     0.055 A 
HETATM   22  C   UNL     1      38.822 -12.296  -1.427  1.00  0.00     0.031 A 
HETATM   23  C   UNL     1      38.508 -11.501  -2.534  1.00  0.00     0.002 A 
HETATM   24  C   UNL     1      39.502 -10.771  -3.179  1.00  0.00     0.000 A 
HETATM   25  C   UNL     1      40.813 -10.840  -2.719  1.00  0.00     0.002 A 
HETATM   26  C   UNL     1      41.127 -11.635  -1.612  1.00  0.00     0.031 A 
ENDBRANCH   7  21
TORSDOF 2
ENDMDL
MODEL 5
REMARK VINA RESULT:      -8.1      1.632      2.199
REMARK  2 active torsions:
REMARK  status: ('A' for Active; 'I' for Inactive)
REMARK    1  A    between atoms: C_4  and  C_5 
REMARK    2  A    between atoms: N_11  and  C_12 
ROOT
HETATM    1  C   UNL     1      43.312 -12.321   5.505  1.00  0.00     0.069 A 
HETATM    2  N   UNL     1      43.633 -13.646   5.747  1.00  0.00    -0.343 N 
HETATM    3  C   UNL     1      43.389 -14.624   4.828  1.00  0.00     0.119 A 
HETATM    4  C   UNL     1      42.895 -14.324   3.615  1.00  0.00     0.125 A 
HETATM    5  C   UNL     1      42.840 -15.583   2.853  1.00  0.00     0.280 A 
HETATM    6  O   UNL     1      42.460 -15.684   1.700  1.00  0.00    -0.265 OA
HETATM    7  N   UNL     1      43.317 -16.568   3.731  1.00  0.00    -0.236 N 
HETATM    8  N   UNL     1      43.627 -15.977   4.975  1.00  0.00    -0.179 NA
HETATM    9  C   UNL     1      42.578 -12.939   3.245  1.00  0.00     0.215 A 
HETATM   10  O   UNL     1      42.158 -12.640   2.133  1.00  0.00    -0.285 OA
HETATM   11  C   UNL     1      42.803 -11.908   4.322  1.00  0.00     0.112 A 
HETATM   12 CL   UNL     1      42.386 -10.277   3.956  1.00  0.00    -0.077 Cl
HETATM   13  H   UNL     1      43.870 -13.919   6.696  1.00  0.00     0.167 HD
HETATM   14  H   UNL     1      44.594 -16.147   5.253  1.00  0.00     0.155 HD
ENDROOT
BRANCH   1  15
HETATM   15  C   UNL     1      43.558 -11.397   6.624  1.00  0.00    -0.008 A 
HETATM   16  C   UNL     1      44.832 -11.310   7.201  1.00  0.00     0.014 A 
HETATM   17  C   UNL     1      45.064 -10.426   8.256  1.00  0.00     0.001 A 
HETATM   18  C   UNL     1      44.029  -9.626   8.739  1.00  0.00     0.000 A 
HETATM   19  C   UNL     1      42.759  -9.707   8.168  1.00  0.00     0.001 A 
HETATM   20  C   UNL     1      42.523 -10.589   7.112  1.00  0.00     0.014 A 
ENDBRANCH   1  15
BRANCH   7  21
HETATM   21  C   UNL     1      43.460 -17.959   3.537  1.00  0.00     0.055 A 
HETATM   22  C   UNL     1      43.109 -18.564   2.325  1.00  0.00     0.031 A 
HETATM   23  C   UNL     1      43.264 -19.942   2.136  1.00  0.00     0.002 A 
HETATM   24  C   UNL     1      43.771 -20.736   3.160  1.00  0.00     0.000 A 
HETATM   25  C   UNL     1      44.120 -20.155   4.374  1.00  0.00     0.002 A 
HETATM   26  C   UNL     1      43.965 -18.777   4.562  1.00  0.00     0.031 A 
ENDBRANCH   7  21
TORSDOF 2
ENDMDL
MODEL 6
REMARK VINA RESULT:      -8.0      3.977      8.060
REMARK  2 active torsions:
REMARK  status: ('A' for Active; 'I' for Inactive)
REMARK    1  A    between atoms: C_4  and  C_5 
REMARK    2  A    between atoms: N_11  and  C_12 
ROOT
HETATM    1  C   UNL     1      42.933 -16.975   3.831  1.00  0.00     0.069 A 
HETATM    2  N   UNL     1      41.998 -16.594   2.883  1.00  0.00    -0.343 N 
HETATM    3  C   UNL     1      41.462 -15.339   2.865  1.00  0.00     0.119 A 
HETATM    4  C   UNL     1      41.882 -14.397   3.726  1.00  0.00     0.125 A 
HETATM    5  C   UNL     1      41.173 -13.155   3.377  1.00  0.00     0.280 A 
HETATM    6  O   UNL     1      41.324 -12.084   3.939  1.00  0.00    -0.265 OA
HETATM    7  N   UNL     1      40.345 -13.492   2.297  1.00  0.00    -0.236 N 
HETATM    8  N   UNL     1      40.498 -14.863   1.998  1.00  0.00    -0.179 NA
HETATM    9  C   UNL     1      42.913 -14.690   4.730  1.00  0.00     0.215 A 
HETATM   10  O   UNL     1      43.333 -13.836   5.501  1.00  0.00    -0.285 OA
HETATM   11  C   UNL     1      43.420 -16.110   4.749  1.00  0.00     0.112 A 
HETATM   12 CL   UNL     1      44.585 -16.517   5.952  1.00  0.00    -0.077 Cl
HETATM   13  H   UNL     1      41.562 -17.318   2.319  1.00  0.00     0.167 HD
HETATM   14  H   UNL     1      40.773 -15.019   1.029  1.00  0.00     0.155 HD
ENDROOT
BRANCH   1  15
HETATM   15  C   UNL     1      43.353 -18.384   3.773  1.00  0.00    -0.008 A 
HETATM   16  C   UNL     1      43.393 -19.059   2.546  1.00  0.00     0.014 A 
HETATM   17  C   UNL     1      43.801 -20.393   2.493  1.00  0.00     0.001 A 
HETATM   18  C   UNL     1      44.172 -21.058   3.661  1.00  0.00     0.000 A 
HETATM   19  C   UNL     1      44.136 -20.391   4.886  1.00  0.00     0.001 A 
HETATM   20  C   UNL     1      43.730 -19.057   4.943  1.00  0.00     0.014 A 
ENDBRANCH   1  15
BRANCH   7  21
HETATM   21  C   UNL     1      39.428 -12.695   1.577  1.00  0.00     0.055 A 
HETATM   22  C   UNL     1      38.432 -11.962   2.233  1.00  0.00     0.031 A 
HETATM   23  C   UNL     1      37.533 -11.165   1.515  1.00  0.00     0.002 A 
HETATM   24  C   UNL     1      37.616 -11.093   0.127  1.00  0.00     0.000 A 
HETATM   25  C   UNL     1      38.594 -11.819  -0.543  1.00  0.00     0.002 A 
HETATM   26  C   UNL     1      39.492 -12.615   0.176  1.00  0.00     0.031 A 
ENDBRANCH   7  21
TORSDOF 2
ENDMDL
MODEL 7
REMARK VINA RESULT:      -7.9      1.793      2.575
REMARK  2 active torsions:
REMARK  status: ('A' for Active; 'I' for Inactive)
REMARK    1  A    between atoms: C_4  and  C_5 
REMARK    2  A    between atoms: N_11  and  C_12 
ROOT
HETATM    1  C   UNL     1      43.238 -10.815   7.528  1.00  0.00     0.069 A 
HETATM    2  N   UNL     1      43.578 -12.149   7.376  1.00  0.00    -0.343 N 
HETATM    3  C   UNL     1      43.254 -12.849   6.250  1.00  0.00     0.119 A 
HETATM    4  C   UNL     1      42.658 -12.245   5.209  1.00  0.00     0.125 A 
HETATM    5  C   UNL     1      42.536 -13.254   4.143  1.00  0.00     0.280 A 
HETATM    6  O   UNL     1      42.059 -13.050   3.041  1.00  0.00    -0.265 OA
HETATM    7  N   UNL     1      43.086 -14.428   4.680  1.00  0.00    -0.236 N 
HETATM    8  N   UNL     1      43.502 -14.186   6.007  1.00  0.00    -0.179 NA
HETATM    9  C   UNL     1      42.312 -10.819   5.254  1.00  0.00     0.215 A 
HETATM   10  O   UNL     1      41.799 -10.242   4.303  1.00  0.00    -0.285 OA
HETATM   11  C   UNL     1      42.630 -10.111   6.546  1.00  0.00     0.112 A 
HETATM   12 CL   UNL     1      42.185  -8.450   6.669  1.00  0.00    -0.077 Cl
HETATM   13  H   UNL     1      43.895 -12.661   8.194  1.00  0.00     0.167 HD
HETATM   14  H   UNL     1      44.489 -14.403   6.148  1.00  0.00     0.155 HD
ENDROOT
BRANCH   1  15
HETATM   15  C   UNL     1      43.580 -10.220   8.830  1.00  0.00    -0.008 A 
HETATM   16  C   UNL     1      44.920 -10.112   9.227  1.00  0.00     0.014 A 
HETATM   17  C   UNL     1      45.242  -9.539  10.458  1.00  0.00     0.001 A 
HETATM   18  C   UNL     1      44.230  -9.072  11.298  1.00  0.00     0.000 A 
HETATM   19  C   UNL     1      42.895  -9.176  10.909  1.00  0.00     0.001 A 
HETATM   20  C   UNL     1      42.569  -9.747   9.677  1.00  0.00     0.014 A 
ENDBRANCH   1  15
BRANCH   7  21
HETATM   21  C   UNL     1      43.210 -15.712   4.108  1.00  0.00     0.055 A 
HETATM   22  C   UNL     1      43.816 -16.763   4.807  1.00  0.00     0.031 A 
HETATM   23  C   UNL     1      43.926 -18.037   4.237  1.00  0.00     0.002 A 
HETATM   24  C   UNL     1      43.433 -18.278   2.958  1.00  0.00     0.000 A 
HETATM   25  C   UNL     1      42.834 -17.245   2.246  1.00  0.00     0.002 A 
HETATM   26  C   UNL     1      42.724 -15.972   2.816  1.00  0.00     0.031 A 
ENDBRANCH   7  21
TORSDOF 2
ENDMDL
MODEL 8
REMARK VINA RESULT:      -7.7      2.533      3.255
REMARK  2 active torsions:
REMARK  status: ('A' for Active; 'I' for Inactive)
REMARK    1  A    between atoms: C_4  and  C_5 
REMARK    2  A    between atoms: N_11  and  C_12 
ROOT
HETATM    1  C   UNL     1      41.742 -10.993   5.947  1.00  0.00     0.069 A 
HETATM    2  N   UNL     1      41.957 -12.337   6.200  1.00  0.00    -0.343 N 
HETATM    3  C   UNL     1      42.324 -13.205   5.212  1.00  0.00     0.119 A 
HETATM    4  C   UNL     1      42.565 -12.768   3.965  1.00  0.00     0.125 A 
HETATM    5  C   UNL     1      43.019 -13.933   3.186  1.00  0.00     0.280 A 
HETATM    6  O   UNL     1      43.348 -13.902   2.013  1.00  0.00    -0.265 OA
HETATM    7  N   UNL     1      42.991 -15.011   4.083  1.00  0.00    -0.236 N 
HETATM    8  N   UNL     1      42.523 -14.566   5.338  1.00  0.00    -0.179 NA
HETATM    9  C   UNL     1      42.421 -11.350   3.614  1.00  0.00     0.215 A 
HETATM   10  O   UNL     1      42.669 -10.927   2.492  1.00  0.00    -0.285 OA
HETATM   11  C   UNL     1      41.949 -10.448   4.727  1.00  0.00     0.112 A 
HETATM   12 CL   UNL     1      41.704  -8.785   4.346  1.00  0.00    -0.077 Cl
HETATM   13  H   UNL     1      41.646 -12.716   7.089  1.00  0.00     0.167 HD
HETATM   14  H   UNL     1      43.183 -14.767   6.089  1.00  0.00     0.155 HD
ENDROOT
BRANCH   1  15
HETATM   15  C   UNL     1      41.270 -10.201   7.095  1.00  0.00    -0.008 A 
HETATM   16  C   UNL     1      39.898 -10.062   7.339  1.00  0.00     0.014 A 
HETATM   17  C   UNL     1      39.453  -9.319   8.433  1.00  0.00     0.001 A 
HETATM   18  C   UNL     1      40.374  -8.713   9.289  1.00  0.00     0.000 A 
HETATM   19  C   UNL     1      41.741  -8.850   9.052  1.00  0.00     0.001 A 
HETATM   20  C   UNL     1      42.190  -9.593   7.959  1.00  0.00     0.014 A 
ENDBRANCH   1  15
BRANCH   7  21
HETATM   21  C   UNL     1      43.302 -16.372   3.871  1.00  0.00     0.055 A 
HETATM   22  C   UNL     1      42.899 -17.037   2.707  1.00  0.00     0.031 A 
HETATM   23  C   UNL     1      43.222 -18.383   2.498  1.00  0.00     0.002 A 
HETATM   24  C   UNL     1      43.951 -19.084   3.453  1.00  0.00     0.000 A 
HETATM   25  C   UNL     1      44.354 -18.443   4.619  1.00  0.00     0.002 A 
HETATM   26  C   UNL     1      44.032 -17.098   4.826  1.00  0.00     0.031 A 
ENDBRANCH   7  21
TORSDOF 2
ENDMDL
MODEL 9
REMARK VINA RESULT:      -7.7      4.060      5.369
REMARK  2 active torsions:
REMARK  status: ('A' for Active; 'I' for Inactive)
REMARK    1  A    between atoms: C_4  and  C_5 
REMARK    2  A    between atoms: N_11  and  C_12 
ROOT
HETATM    1  C   UNL     1      42.924 -12.636   5.604  1.00  0.00     0.069 A 
HETATM    2  N   UNL     1      42.463 -12.126   4.402  1.00  0.00    -0.343 N 
HETATM    3  C   UNL     1      41.729 -12.882   3.534  1.00  0.00     0.119 A 
HETATM    4  C   UNL     1      41.359 -14.134   3.853  1.00  0.00     0.125 A 
HETATM    5  C   UNL     1      40.514 -14.623   2.750  1.00  0.00     0.280 A 
HETATM    6  O   UNL     1      39.983 -15.718   2.711  1.00  0.00    -0.265 OA
HETATM    7  N   UNL     1      40.469 -13.570   1.824  1.00  0.00    -0.236 N 
HETATM    8  N   UNL     1      41.255 -12.497   2.295  1.00  0.00    -0.179 NA
HETATM    9  C   UNL     1      41.750 -14.740   5.132  1.00  0.00     0.215 A 
HETATM   10  O   UNL     1      41.394 -15.867   5.455  1.00  0.00    -0.285 OA
HETATM   11  C   UNL     1      42.617 -13.885   6.021  1.00  0.00     0.112 A 
HETATM   12 CL   UNL     1      43.153 -14.578   7.505  1.00  0.00    -0.077 Cl
HETATM   13  H   UNL     1      42.845 -11.244   4.074  1.00  0.00     0.167 HD
HETATM   14  H   UNL     1      40.723 -11.629   2.366  1.00  0.00     0.155 HD
ENDROOT
BRANCH   1  15
HETATM   15  C   UNL     1      43.772 -11.727   6.391  1.00  0.00    -0.008 A 
HETATM   16  C   UNL     1      43.191 -10.728   7.184  1.00  0.00     0.014 A 
HETATM   17  C   UNL     1      43.997  -9.873   7.937  1.00  0.00     0.001 A 
HETATM   18  C   UNL     1      45.385 -10.012   7.904  1.00  0.00     0.000 A 
HETATM   19  C   UNL     1      45.969 -11.004   7.118  1.00  0.00     0.001 A 
HETATM   20  C   UNL     1      45.166 -11.862   6.364  1.00  0.00     0.014 A 
ENDBRANCH   1  15
BRANCH   7  21
HETATM   21  C   UNL     1      39.824 -13.495   0.571  1.00  0.00     0.055 A 
HETATM   22  C   UNL     1      39.928 -14.533  -0.363  1.00  0.00     0.031 A 
HETATM   23  C   UNL     1      39.276 -14.457  -1.599  1.00  0.00     0.002 A 
HETATM   24  C   UNL     1      38.512 -13.339  -1.921  1.00  0.00     0.000 A 
HETATM   25  C   UNL     1      38.402 -12.295  -1.009  1.00  0.00     0.002 A 
HETATM   26  C   UNL     1      39.053 -12.372   0.227  1.00  0.00     0.031 A 
ENDBRANCH   7  21
TORSDOF 2
ENDMDL
MODEL 10
REMARK VINA RESULT:      -7.6      2.251      7.669
REMARK  2 active torsions:
REMARK  status: ('A' for Active; 'I' for Inactive)
REMARK    1  A    between atoms: C_4  and  C_5 
REMARK    2  A    between atoms: N_11  and  C_12 
ROOT
HETATM    1  C   UNL     1      42.556 -14.175   4.356  1.00  0.00     0.069 A 
HETATM    2  N   UNL     1      43.240 -13.872   5.522  1.00  0.00    -0.343 N 
HETATM    3  C   UNL     1      43.080 -12.675   6.159  1.00  0.00     0.119 A 
HETATM    4  C   UNL     1      42.190 -11.772   5.716  1.00  0.00     0.125 A 
HETATM    5  C   UNL     1      42.209 -10.651   6.671  1.00  0.00     0.280 A 
HETATM    6  O   UNL     1      41.508  -9.658   6.595  1.00  0.00    -0.265 OA
HETATM    7  N   UNL     1      43.166 -11.002   7.635  1.00  0.00    -0.236 N 
HETATM    8  N   UNL     1      43.736 -12.249   7.297  1.00  0.00    -0.179 NA
HETATM    9  C   UNL     1      41.376 -12.028   4.521  1.00  0.00     0.215 A 
HETATM   10  O   UNL     1      40.536 -11.231   4.121  1.00  0.00    -0.285 OA
HETATM   11  C   UNL     1      41.642 -13.336   3.819  1.00  0.00     0.112 A 
HETATM   12 CL   UNL     1      40.756 -13.653   2.375  1.00  0.00    -0.077 Cl
HETATM   13  H   UNL     1      44.015 -14.468   5.795  1.00  0.00     0.167 HD
HETATM   14  H   UNL     1      43.641 -12.933   8.048  1.00  0.00     0.155 HD
ENDROOT
BRANCH   1  15
HETATM   15  C   UNL     1      42.897 -15.468   3.742  1.00  0.00    -0.008 A 
HETATM   16  C   UNL     1      43.052 -16.610   4.540  1.00  0.00     0.014 A 
HETATM   17  C   UNL     1      43.367 -17.837   3.955  1.00  0.00     0.001 A 
HETATM   18  C   UNL     1      43.526 -17.931   2.572  1.00  0.00     0.000 A 
HETATM   19  C   UNL     1      43.372 -16.800   1.772  1.00  0.00     0.001 A 
HETATM   20  C   UNL     1      43.057 -15.571   2.354  1.00  0.00     0.014 A 
ENDBRANCH   1  15
BRANCH   7  21
HETATM   21  C   UNL     1      43.612 -10.289   8.769  1.00  0.00     0.055 A 
HETATM   22  C   UNL     1      42.722  -9.552   9.559  1.00  0.00     0.031 A 
HETATM   23  C   UNL     1      43.170  -8.857  10.689  1.00  0.00     0.002 A 
HETATM   24  C   UNL     1      44.515  -8.887  11.042  1.00  0.00     0.000 A 
HETATM   25  C   UNL     1      45.415  -9.608  10.265  1.00  0.00     0.002 A 
HETATM   26  C   UNL     1      44.967 -10.303   9.137  1.00  0.00     0.031 A 
ENDBRANCH   7  21
TORSDOF 2
ENDMDL
