MODEL 1
REMARK VINA RESULT:      -9.9      0.000      0.000
REMARK  8 active torsions:
REMARK  status: ('A' for Active; 'I' for Inactive)
REMARK    1  A    between atoms: C_4  and  N_5 
REMARK    2  A    between atoms: N_5  and  C_6 
REMARK    3  A    between atoms: C_8  and  N_9 
REMARK    4  A    between atoms: N_12  and  C_14 
REMARK    5  A    between atoms: C_14  and  C_15 
REMARK       I    between atoms: C_15  and  N_16 
REMARK    6  A    between atoms: N_16  and  C_17 
REMARK    7  A    between atoms: C_26  and  N_27 
REMARK    8  A    between atoms: N_27  and  C_28 
ROOT
HETATM    1  C   UNL     1      40.307 -15.120   1.919  1.00  0.00     0.758 A 
HETATM    2  N   UNL     1      39.941 -14.565   3.070  1.00  0.00     0.131 NA
HETATM    3  C   UNL     1      40.729 -14.792   4.108  1.00  0.00     0.756 A 
HETATM    4  N   UNL     1      41.776 -15.602   4.064  1.00  0.00     0.131 NA
HETATM    5  C   UNL     1      42.085 -16.114   2.877  1.00  0.00     0.758 A 
HETATM    6  N   UNL     1      41.380 -15.881   1.781  1.00  0.00     0.131 NA
ENDROOT
BRANCH   3   7
HETATM    7  N   UNL     1      40.484 -14.114   5.301  1.00  0.00    -0.210 N 
HETATM    8  C   UNL     1      39.870 -12.788   5.144  1.00  0.00     0.169 C 
HETATM    9  C   UNL     1      40.950 -11.684   5.036  1.00  0.00     0.256 C 
HETATM   10  N   UNL     1      41.898 -11.792   6.232  1.00  0.00    -0.060 N 
HETATM   11  H   UNL     1      41.305 -11.766   7.070  1.00  0.00     0.280 HD
HETATM   12  C   UNL     1      42.586 -13.161   6.241  1.00  0.00     0.256 C 
HETATM   13  C   UNL     1      41.504 -14.255   6.352  1.00  0.00     0.169 C 
BRANCH  10  14
HETATM   14  C   UNL     1      42.857 -10.609   6.391  1.00  0.00     0.337 C 
BRANCH  14  15
HETATM   15  C   UNL     1      44.356 -10.924   6.293  1.00  0.00     0.249 C 
HETATM   16  N   UNL     1      45.144 -10.829   7.404  1.00  0.00    -0.304 N 
HETATM   17  H   UNL     1      46.128 -11.046   7.302  1.00  0.00     0.171 HD
HETATM   18  O   UNL     1      44.868 -11.267   5.223  1.00  0.00    -0.271 OA
BRANCH  16  19
HETATM   19  C   UNL     1      44.704 -10.462   8.642  1.00  0.00     0.172 A 
HETATM   20  S   UNL     1      44.883  -8.811   9.013  1.00  0.00    -0.062 SA
HETATM   21  C   UNL     1      44.187  -9.109  10.554  1.00  0.00     0.072 A 
HETATM   22  C   UNL     1      43.872 -10.448  10.666  1.00  0.00     0.126 A 
HETATM   23  N   UNL     1      44.171 -11.228   9.560  1.00  0.00    -0.236 NA
ENDBRANCH  16  19
ENDBRANCH  14  15
ENDBRANCH  10  14
ENDBRANCH   3   7
BRANCH   1  24
HETATM   24  N   UNL     1      39.603 -14.856   0.748  1.00  0.00    -0.187 N 
HETATM   25  H   UNL     1      38.616 -15.033   0.889  1.00  0.00     0.184 HD
BRANCH  24  26
HETATM   26  C   UNL     1      39.920 -14.088  -0.379  1.00  0.00     0.049 A 
HETATM   27  C   UNL     1      39.506 -14.543  -1.640  1.00  0.00     0.030 A 
HETATM   28  C   UNL     1      39.815 -13.832  -2.801  1.00  0.00     0.002 A 
HETATM   29  C   UNL     1      40.549 -12.652  -2.719  1.00  0.00     0.000 A 
HETATM   30  C   UNL     1      40.982 -12.193  -1.477  1.00  0.00     0.002 A 
HETATM   31  C   UNL     1      40.680 -12.916  -0.319  1.00  0.00     0.030 A 
ENDBRANCH  24  26
ENDBRANCH   1  24
BRANCH   5  32
HETATM   32  N   UNL     1      43.247 -16.883   2.844  1.00  0.00    -0.187 N 
HETATM   33  H   UNL     1      44.002 -16.356   2.431  1.00  0.00     0.184 HD
BRANCH  32  34
HETATM   34  C   UNL     1      43.519 -18.220   3.154  1.00  0.00     0.049 A 
HETATM   35  C   UNL     1      43.266 -19.201   2.180  1.00  0.00     0.030 A 
HETATM   36  C   UNL     1      43.485 -20.558   2.439  1.00  0.00     0.002 A 
HETATM   37  C   UNL     1      43.965 -20.960   3.681  1.00  0.00     0.000 A 
HETATM   38  C   UNL     1      44.223 -20.005   4.660  1.00  0.00     0.002 A 
HETATM   39  C   UNL     1      43.997 -18.649   4.398  1.00  0.00     0.030 A 
ENDBRANCH  32  34
ENDBRANCH   5  32
TORSDOF 8
ENDMDL
MODEL 2
REMARK VINA RESULT:      -9.8      0.408      5.475
REMARK  8 active torsions:
REMARK  status: ('A' for Active; 'I' for Inactive)
REMARK    1  A    between atoms: C_4  and  N_5 
REMARK    2  A    between atoms: N_5  and  C_6 
REMARK    3  A    between atoms: C_8  and  N_9 
REMARK    4  A    between atoms: N_12  and  C_14 
REMARK    5  A    between atoms: C_14  and  C_15 
REMARK       I    between atoms: C_15  and  N_16 
REMARK    6  A    between atoms: N_16  and  C_17 
REMARK    7  A    between atoms: C_26  and  N_27 
REMARK    8  A    between atoms: N_27  and  C_28 
ROOT
HETATM    1  C   UNL     1      42.491 -16.026   2.854  1.00  0.00     0.758 A 
HETATM    2  N   UNL     1      42.235 -15.345   3.967  1.00  0.00     0.131 NA
HETATM    3  C   UNL     1      41.130 -14.619   3.970  1.00  0.00     0.756 A 
HETATM    4  N   UNL     1      40.349 -14.476   2.909  1.00  0.00     0.131 NA
HETATM    5  C   UNL     1      40.663 -15.194   1.836  1.00  0.00     0.758 A 
HETATM    6  N   UNL     1      41.719 -15.991   1.780  1.00  0.00     0.131 NA
ENDROOT
BRANCH   3   7
HETATM    7  N   UNL     1      40.728 -14.007   5.157  1.00  0.00    -0.210 N 
HETATM    8  C   UNL     1      40.108 -12.685   4.992  1.00  0.00     0.169 C 
HETATM    9  C   UNL     1      41.169 -11.560   5.070  1.00  0.00     0.256 C 
HETATM   10  N   UNL     1      41.968 -11.714   6.366  1.00  0.00    -0.060 N 
HETATM   11  H   UNL     1      41.278 -11.741   7.126  1.00  0.00     0.280 HD
HETATM   12  C   UNL     1      42.680 -13.071   6.391  1.00  0.00     0.256 C 
HETATM   13  C   UNL     1      41.617 -14.186   6.315  1.00  0.00     0.169 C 
BRANCH  10  14
HETATM   14  C   UNL     1      42.874 -10.525   6.698  1.00  0.00     0.337 C 
BRANCH  14  15
HETATM   15  C   UNL     1      44.385 -10.798   6.705  1.00  0.00     0.249 C 
HETATM   16  N   UNL     1      45.086 -10.707   7.873  1.00  0.00    -0.304 N 
HETATM   17  H   UNL     1      46.081 -10.895   7.841  1.00  0.00     0.171 HD
HETATM   18  O   UNL     1      44.984 -11.100   5.670  1.00  0.00    -0.271 OA
BRANCH  16  19
HETATM   19  C   UNL     1      44.545 -10.382   9.083  1.00  0.00     0.172 A 
HETATM   20  S   UNL     1      44.462  -8.714   9.413  1.00  0.00    -0.062 SA
HETATM   21  C   UNL     1      43.755  -9.078  10.934  1.00  0.00     0.072 A 
HETATM   22  C   UNL     1      43.635 -10.445  11.072  1.00  0.00     0.126 A 
HETATM   23  N   UNL     1      44.093 -11.197  10.001  1.00  0.00    -0.236 NA
ENDBRANCH  16  19
ENDBRANCH  14  15
ENDBRANCH  10  14
ENDBRANCH   3   7
BRANCH   1  24
HETATM   24  N   UNL     1      43.572 -16.899   2.788  1.00  0.00    -0.187 N 
HETATM   25  H   UNL     1      44.434 -16.377   2.692  1.00  0.00     0.184 HD
BRANCH  24  26
HETATM   26  C   UNL     1      43.721 -18.234   3.183  1.00  0.00     0.049 A 
HETATM   27  C   UNL     1      43.437 -19.245   2.254  1.00  0.00     0.030 A 
HETATM   28  C   UNL     1      43.542 -20.594   2.601  1.00  0.00     0.002 A 
HETATM   29  C   UNL     1      43.933 -20.953   3.887  1.00  0.00     0.000 A 
HETATM   30  C   UNL     1      44.204 -19.962   4.827  1.00  0.00     0.002 A 
HETATM   31  C   UNL     1      44.084 -18.613   4.480  1.00  0.00     0.030 A 
ENDBRANCH  24  26
ENDBRANCH   1  24
BRANCH   5  32
HETATM   32  N   UNL     1      39.769 -15.097   0.771  1.00  0.00    -0.187 N 
HETATM   33  H   UNL     1      38.975 -15.699   0.927  1.00  0.00     0.184 HD
BRANCH  32  34
HETATM   34  C   UNL     1      39.820 -14.441  -0.465  1.00  0.00     0.049 A 
HETATM   35  C   UNL     1      40.503 -13.216  -0.548  1.00  0.00     0.030 A 
HETATM   36  C   UNL     1      40.561 -12.495  -1.745  1.00  0.00     0.002 A 
HETATM   37  C   UNL     1      39.937 -12.989  -2.885  1.00  0.00     0.000 A 
HETATM   38  C   UNL     1      39.256 -14.201  -2.825  1.00  0.00     0.002 A 
HETATM   39  C   UNL     1      39.196 -14.916  -1.624  1.00  0.00     0.030 A 
ENDBRANCH  32  34
ENDBRANCH   5  32
TORSDOF 8
ENDMDL
MODEL 3
REMARK VINA RESULT:      -9.6      1.712      2.110
REMARK  8 active torsions:
REMARK  status: ('A' for Active; 'I' for Inactive)
REMARK    1  A    between atoms: C_4  and  N_5 
REMARK    2  A    between atoms: N_5  and  C_6 
REMARK    3  A    between atoms: C_8  and  N_9 
REMARK    4  A    between atoms: N_12  and  C_14 
REMARK    5  A    between atoms: C_14  and  C_15 
REMARK       I    between atoms: C_15  and  N_16 
REMARK    6  A    between atoms: N_16  and  C_17 
REMARK    7  A    between atoms: C_26  and  N_27 
REMARK    8  A    between atoms: N_27  and  C_28 
ROOT
HETATM    1  C   UNL     1      40.393 -14.558   2.244  1.00  0.00     0.758 A 
HETATM    2  N   UNL     1      40.185 -14.169   3.498  1.00  0.00     0.131 NA
HETATM    3  C   UNL     1      41.021 -14.642   4.406  1.00  0.00     0.756 A 
HETATM    4  N   UNL     1      41.963 -15.534   4.134  1.00  0.00     0.131 NA
HETATM    5  C   UNL     1      42.117 -15.869   2.857  1.00  0.00     0.758 A 
HETATM    6  N   UNL     1      41.359 -15.388   1.885  1.00  0.00     0.131 NA
ENDROOT
BRANCH   3   7
HETATM    7  N   UNL     1      40.951 -14.152   5.709  1.00  0.00    -0.210 N 
HETATM    8  C   UNL     1      40.322 -12.830   5.838  1.00  0.00     0.169 C 
HETATM    9  C   UNL     1      41.377 -11.700   5.743  1.00  0.00     0.256 C 
HETATM   10  N   UNL     1      42.486 -11.963   6.763  1.00  0.00    -0.060 N 
HETATM   11  H   UNL     1      42.019 -12.073   7.671  1.00  0.00     0.280 HD
HETATM   12  C   UNL     1      43.166 -13.306   6.473  1.00  0.00     0.256 C 
HETATM   13  C   UNL     1      42.110 -14.425   6.572  1.00  0.00     0.169 C 
BRANCH  10  14
HETATM   14  C   UNL     1      43.459 -10.798   6.958  1.00  0.00     0.337 C 
BRANCH  14  15
HETATM   15  C   UNL     1      43.863 -10.477   8.405  1.00  0.00     0.249 C 
HETATM   16  N   UNL     1      43.423  -9.326   8.993  1.00  0.00    -0.304 N 
HETATM   17  H   UNL     1      43.708  -9.148   9.948  1.00  0.00     0.171 HD
HETATM   18  O   UNL     1      44.580 -11.244   9.052  1.00  0.00    -0.271 OA
BRANCH  16  19
HETATM   19  C   UNL     1      42.629  -8.396   8.388  1.00  0.00     0.172 A 
HETATM   20  S   UNL     1      40.956  -8.669   8.532  1.00  0.00    -0.062 SA
HETATM   21  C   UNL     1      40.671  -7.245   7.617  1.00  0.00     0.072 A 
HETATM   22  C   UNL     1      41.877  -6.670   7.272  1.00  0.00     0.126 A 
HETATM   23  N   UNL     1      43.007  -7.336   7.719  1.00  0.00    -0.236 NA
ENDBRANCH  16  19
ENDBRANCH  14  15
ENDBRANCH  10  14
ENDBRANCH   3   7
BRANCH   1  24
HETATM   24  N   UNL     1      39.634 -14.034   1.202  1.00  0.00    -0.187 N 
HETATM   25  H   UNL     1      38.818 -13.561   1.571  1.00  0.00     0.184 HD
BRANCH  24  26
HETATM   26  C   UNL     1      39.955 -13.728  -0.126  1.00  0.00     0.049 A 
HETATM   27  C   UNL     1      40.667 -12.549  -0.391  1.00  0.00     0.030 A 
HETATM   28  C   UNL     1      40.992 -12.179  -1.697  1.00  0.00     0.002 A 
HETATM   29  C   UNL     1      40.608 -12.986  -2.764  1.00  0.00     0.000 A 
HETATM   30  C   UNL     1      39.887 -14.153  -2.522  1.00  0.00     0.002 A 
HETATM   31  C   UNL     1      39.552 -14.512  -1.212  1.00  0.00     0.030 A 
ENDBRANCH  24  26
ENDBRANCH   1  24
BRANCH   5  32
HETATM   32  N   UNL     1      43.178 -16.733   2.592  1.00  0.00    -0.187 N 
HETATM   33  H   UNL     1      43.804 -16.319   1.918  1.00  0.00     0.184 HD
BRANCH  32  34
HETATM   34  C   UNL     1      43.461 -18.048   2.979  1.00  0.00     0.049 A 
HETATM   35  C   UNL     1      43.145 -19.092   2.093  1.00  0.00     0.030 A 
HETATM   36  C   UNL     1      43.372 -20.430   2.433  1.00  0.00     0.002 A 
HETATM   37  C   UNL     1      43.924 -20.748   3.669  1.00  0.00     0.000 A 
HETATM   38  C   UNL     1      44.245 -19.730   4.562  1.00  0.00     0.002 A 
HETATM   39  C   UNL     1      44.011 -18.394   4.219  1.00  0.00     0.030 A 
ENDBRANCH  32  34
ENDBRANCH   5  32
TORSDOF 8
ENDMDL
MODEL 4
REMARK VINA RESULT:      -9.4      3.343      8.499
REMARK  8 active torsions:
REMARK  status: ('A' for Active; 'I' for Inactive)
REMARK    1  A    between atoms: C_4  and  N_5 
REMARK    2  A    between atoms: N_5  and  C_6 
REMARK    3  A    between atoms: C_8  and  N_9 
REMARK    4  A    between atoms: N_12  and  C_14 
REMARK    5  A    between atoms: C_14  and  C_15 
REMARK       I    between atoms: C_15  and  N_16 
REMARK    6  A    between atoms: N_16  and  C_17 
REMARK    7  A    between atoms: C_26  and  N_27 
REMARK    8  A    between atoms: N_27  and  C_28 
ROOT
HETATM    1  C   UNL     1      42.974 -15.733   4.673  1.00  0.00     0.758 A 
HETATM    2  N   UNL     1      41.818 -15.732   4.017  1.00  0.00     0.131 NA
HETATM    3  C   UNL     1      41.005 -14.718   4.261  1.00  0.00     0.756 A 
HETATM    4  N   UNL     1      41.251 -13.791   5.175  1.00  0.00     0.131 NA
HETATM    5  C   UNL     1      42.430 -13.852   5.785  1.00  0.00     0.758 A 
HETATM    6  N   UNL     1      43.321 -14.802   5.547  1.00  0.00     0.131 NA
ENDROOT
BRANCH   3   7
HETATM    7  N   UNL     1      39.850 -14.580   3.493  1.00  0.00    -0.210 N 
HETATM    8  C   UNL     1      39.556 -15.717   2.609  1.00  0.00     0.169 C 
HETATM    9  C   UNL     1      40.200 -15.518   1.215  1.00  0.00     0.256 C 
HETATM   10  N   UNL     1      39.766 -14.164   0.650  1.00  0.00    -0.060 N 
HETATM   11  H   UNL     1      38.740 -14.157   0.682  1.00  0.00     0.280 HD
HETATM   12  C   UNL     1      40.226 -13.032   1.576  1.00  0.00     0.256 C 
HETATM   13  C   UNL     1      39.578 -13.235   2.961  1.00  0.00     0.169 C 
BRANCH  10  14
HETATM   14  C   UNL     1      40.118 -13.949  -0.824  1.00  0.00     0.337 C 
BRANCH  14  15
HETATM   15  C   UNL     1      39.003 -14.226  -1.842  1.00  0.00     0.249 C 
HETATM   16  N   UNL     1      38.081 -13.257  -2.120  1.00  0.00    -0.304 N 
HETATM   17  H   UNL     1      37.361 -13.475  -2.798  1.00  0.00     0.171 HD
HETATM   18  O   UNL     1      38.921 -15.313  -2.419  1.00  0.00    -0.271 OA
BRANCH  16  19
HETATM   19  C   UNL     1      38.059 -12.017  -1.552  1.00  0.00     0.172 A 
HETATM   20  S   UNL     1      38.706 -10.770  -2.512  1.00  0.00    -0.062 SA
HETATM   21  C   UNL     1      38.362  -9.657  -1.251  1.00  0.00     0.072 A 
HETATM   22  C   UNL     1      37.778 -10.325  -0.193  1.00  0.00     0.126 A 
HETATM   23  N   UNL     1      37.604 -11.688  -0.370  1.00  0.00    -0.236 NA
ENDBRANCH  16  19
ENDBRANCH  14  15
ENDBRANCH  10  14
ENDBRANCH   3   7
BRANCH   1  24
HETATM   24  N   UNL     1      43.941 -16.698   4.409  1.00  0.00    -0.187 N 
HETATM   25  H   UNL     1      44.815 -16.443   4.853  1.00  0.00     0.184 HD
BRANCH  24  26
HETATM   26  C   UNL     1      43.841 -18.034   4.004  1.00  0.00     0.049 A 
HETATM   27  C   UNL     1      44.099 -19.043   4.943  1.00  0.00     0.030 A 
HETATM   28  C   UNL     1      44.040 -20.392   4.589  1.00  0.00     0.002 A 
HETATM   29  C   UNL     1      43.722 -20.754   3.284  1.00  0.00     0.000 A 
HETATM   30  C   UNL     1      43.478 -19.766   2.333  1.00  0.00     0.002 A 
HETATM   31  C   UNL     1      43.552 -18.417   2.690  1.00  0.00     0.030 A 
ENDBRANCH  24  26
ENDBRANCH   1  24
BRANCH   5  32
HETATM   32  N   UNL     1      42.698 -12.809   6.669  1.00  0.00    -0.187 N 
HETATM   33  H   UNL     1      41.847 -12.504   7.117  1.00  0.00     0.184 HD
BRANCH  32  34
HETATM   34  C   UNL     1      43.850 -12.065   6.952  1.00  0.00     0.049 A 
HETATM   35  C   UNL     1      43.914 -11.361   8.166  1.00  0.00     0.030 A 
HETATM   36  C   UNL     1      45.023 -10.572   8.493  1.00  0.00     0.002 A 
HETATM   37  C   UNL     1      46.091 -10.475   7.608  1.00  0.00     0.000 A 
HETATM   38  C   UNL     1      46.048 -11.164   6.400  1.00  0.00     0.002 A 
HETATM   39  C   UNL     1      44.935 -11.948   6.075  1.00  0.00     0.030 A 
ENDBRANCH  32  34
ENDBRANCH   5  32
TORSDOF 8
ENDMDL
MODEL 5
REMARK VINA RESULT:      -9.4      1.771      5.777
REMARK  8 active torsions:
REMARK  status: ('A' for Active; 'I' for Inactive)
REMARK    1  A    between atoms: C_4  and  N_5 
REMARK    2  A    between atoms: N_5  and  C_6 
REMARK    3  A    between atoms: C_8  and  N_9 
REMARK    4  A    between atoms: N_12  and  C_14 
REMARK    5  A    between atoms: C_14  and  C_15 
REMARK       I    between atoms: C_15  and  N_16 
REMARK    6  A    between atoms: N_16  and  C_17 
REMARK    7  A    between atoms: C_26  and  N_27 
REMARK    8  A    between atoms: N_27  and  C_28 
ROOT
HETATM    1  C   UNL     1      42.568 -15.860   2.840  1.00  0.00     0.758 A 
HETATM    2  N   UNL     1      42.488 -15.317   4.051  1.00  0.00     0.131 NA
HETATM    3  C   UNL     1      41.497 -14.464   4.249  1.00  0.00     0.756 A 
HETATM    4  N   UNL     1      40.671 -14.073   3.289  1.00  0.00     0.131 NA
HETATM    5  C   UNL     1      40.807 -14.665   2.107  1.00  0.00     0.758 A 
HETATM    6  N   UNL     1      41.735 -15.574   1.853  1.00  0.00     0.131 NA
ENDROOT
BRANCH   3   7
HETATM    7  N   UNL     1      41.269 -13.982   5.536  1.00  0.00    -0.210 N 
HETATM    8  C   UNL     1      40.647 -12.652   5.597  1.00  0.00     0.169 C 
HETATM    9  C   UNL     1      41.722 -11.537   5.646  1.00  0.00     0.256 C 
HETATM   10  N   UNL     1      42.688 -11.824   6.796  1.00  0.00    -0.060 N 
HETATM   11  H   UNL     1      42.109 -11.934   7.637  1.00  0.00     0.280 HD
HETATM   12  C   UNL     1      43.382 -13.175   6.582  1.00  0.00     0.256 C 
HETATM   13  C   UNL     1      42.305 -14.279   6.537  1.00  0.00     0.169 C 
BRANCH  10  14
HETATM   14  C   UNL     1      43.645 -10.675   7.123  1.00  0.00     0.337 C 
BRANCH  14  15
HETATM   15  C   UNL     1      43.883 -10.384   8.612  1.00  0.00     0.249 C 
HETATM   16  N   UNL     1      43.358  -9.257   9.177  1.00  0.00    -0.304 N 
HETATM   17  H   UNL     1      43.534  -9.099  10.161  1.00  0.00     0.171 HD
HETATM   18  O   UNL     1      44.542 -11.154   9.315  1.00  0.00    -0.271 OA
BRANCH  16  19
HETATM   19  C   UNL     1      42.614  -8.327   8.511  1.00  0.00     0.172 A 
HETATM   20  S   UNL     1      40.933  -8.590   8.540  1.00  0.00    -0.062 SA
HETATM   21  C   UNL     1      40.722  -7.171   7.598  1.00  0.00     0.072 A 
HETATM   22  C   UNL     1      41.952  -6.605   7.334  1.00  0.00     0.126 A 
HETATM   23  N   UNL     1      43.045  -7.274   7.863  1.00  0.00    -0.236 NA
ENDBRANCH  16  19
ENDBRANCH  14  15
ENDBRANCH  10  14
ENDBRANCH   3   7
BRANCH   1  24
HETATM   24  N   UNL     1      43.510 -16.846   2.564  1.00  0.00    -0.187 N 
HETATM   25  H   UNL     1      44.379 -16.421   2.263  1.00  0.00     0.184 HD
BRANCH  24  26
HETATM   26  C   UNL     1      43.603 -18.186   2.958  1.00  0.00     0.049 A 
HETATM   27  C   UNL     1      44.071 -18.476   4.248  1.00  0.00     0.030 A 
HETATM   28  C   UNL     1      44.209 -19.794   4.687  1.00  0.00     0.002 A 
HETATM   29  C   UNL     1      43.882 -20.847   3.838  1.00  0.00     0.000 A 
HETATM   30  C   UNL     1      43.431 -20.579   2.548  1.00  0.00     0.002 A 
HETATM   31  C   UNL     1      43.307 -19.257   2.109  1.00  0.00     0.030 A 
ENDBRANCH  24  26
ENDBRANCH   1  24
BRANCH   5  32
HETATM   32  N   UNL     1      39.863 -14.303   1.148  1.00  0.00    -0.187 N 
HETATM   33  H   UNL     1      38.931 -14.483   1.491  1.00  0.00     0.184 HD
BRANCH  32  34
HETATM   34  C   UNL     1      39.963 -13.867  -0.178  1.00  0.00     0.049 A 
HETATM   35  C   UNL     1      39.412 -14.668  -1.193  1.00  0.00     0.030 A 
HETATM   36  C   UNL     1      39.509 -14.306  -2.541  1.00  0.00     0.002 A 
HETATM   37  C   UNL     1      40.159 -13.130  -2.898  1.00  0.00     0.000 A 
HETATM   38  C   UNL     1      40.712 -12.321  -1.910  1.00  0.00     0.002 A 
HETATM   39  C   UNL     1      40.617 -12.691  -0.564  1.00  0.00     0.030 A 
ENDBRANCH  32  34
ENDBRANCH   5  32
TORSDOF 8
ENDMDL
MODEL 6
REMARK VINA RESULT:      -9.3      1.981      5.872
REMARK  8 active torsions:
REMARK  status: ('A' for Active; 'I' for Inactive)
REMARK    1  A    between atoms: C_4  and  N_5 
REMARK    2  A    between atoms: N_5  and  C_6 
REMARK    3  A    between atoms: C_8  and  N_9 
REMARK    4  A    between atoms: N_12  and  C_14 
REMARK    5  A    between atoms: C_14  and  C_15 
REMARK       I    between atoms: C_15  and  N_16 
REMARK    6  A    between atoms: N_16  and  C_17 
REMARK    7  A    between atoms: C_26  and  N_27 
REMARK    8  A    between atoms: N_27  and  C_28 
ROOT
HETATM    1  C   UNL     1      42.418 -15.953   2.769  1.00  0.00     0.758 A 
HETATM    2  N   UNL     1      42.222 -15.409   3.966  1.00  0.00     0.131 NA
HETATM    3  C   UNL     1      41.159 -14.632   4.092  1.00  0.00     0.756 A 
HETATM    4  N   UNL     1      40.367 -14.312   3.078  1.00  0.00     0.131 NA
HETATM    5  C   UNL     1      40.620 -14.901   1.914  1.00  0.00     0.758 A 
HETATM    6  N   UNL     1      41.629 -15.739   1.729  1.00  0.00     0.131 NA
ENDROOT
BRANCH   3   7
HETATM    7  N   UNL     1      40.815 -14.159   5.357  1.00  0.00    -0.210 N 
HETATM    8  C   UNL     1      39.827 -13.071   5.362  1.00  0.00     0.169 C 
HETATM    9  C   UNL     1      40.524 -11.688   5.315  1.00  0.00     0.256 C 
HETATM   10  N   UNL     1      41.547 -11.604   6.449  1.00  0.00    -0.060 N 
HETATM   11  H   UNL     1      41.037 -11.827   7.312  1.00  0.00     0.280 HD
HETATM   12  C   UNL     1      42.607 -12.700   6.289  1.00  0.00     0.256 C 
HETATM   13  C   UNL     1      41.906 -14.073   6.339  1.00  0.00     0.169 C 
BRANCH  10  14
HETATM   14  C   UNL     1      42.124 -10.205   6.681  1.00  0.00     0.337 C 
BRANCH  14  15
HETATM   15  C   UNL     1      41.287  -9.025   6.166  1.00  0.00     0.249 C 
HETATM   16  N   UNL     1      40.223  -8.578   6.895  1.00  0.00    -0.304 N 
HETATM   17  H   UNL     1      39.694  -7.797   6.526  1.00  0.00     0.171 HD
HETATM   18  O   UNL     1      41.558  -8.466   5.100  1.00  0.00    -0.271 OA
BRANCH  16  19
HETATM   19  C   UNL     1      39.817  -9.107   8.086  1.00  0.00     0.172 A 
HETATM   20  S   UNL     1      40.449  -8.344   9.470  1.00  0.00    -0.062 SA
HETATM   21  C   UNL     1      39.579  -9.456  10.447  1.00  0.00     0.072 A 
HETATM   22  C   UNL     1      38.873 -10.324   9.641  1.00  0.00     0.126 A 
HETATM   23  N   UNL     1      39.012 -10.121   8.276  1.00  0.00    -0.236 NA
ENDBRANCH  16  19
ENDBRANCH  14  15
ENDBRANCH  10  14
ENDBRANCH   3   7
BRANCH   1  24
HETATM   24  N   UNL     1      43.447 -16.867   2.563  1.00  0.00    -0.187 N 
HETATM   25  H   UNL     1      44.291 -16.381   2.286  1.00  0.00     0.184 HD
BRANCH  24  26
HETATM   26  C   UNL     1      43.630 -18.183   3.003  1.00  0.00     0.049 A 
HETATM   27  C   UNL     1      43.308 -19.234   2.132  1.00  0.00     0.030 A 
HETATM   28  C   UNL     1      43.446 -20.566   2.526  1.00  0.00     0.002 A 
HETATM   29  C   UNL     1      43.907 -20.869   3.803  1.00  0.00     0.000 A 
HETATM   30  C   UNL     1      44.217 -19.839   4.687  1.00  0.00     0.002 A 
HETATM   31  C   UNL     1      44.065 -18.506   4.293  1.00  0.00     0.030 A 
ENDBRANCH  24  26
ENDBRANCH   1  24
BRANCH   5  32
HETATM   32  N   UNL     1      39.713 -14.620   0.894  1.00  0.00    -0.187 N 
HETATM   33  H   UNL     1      38.802 -14.984   1.129  1.00  0.00     0.184 HD
BRANCH  32  34
HETATM   34  C   UNL     1      39.849 -14.057  -0.380  1.00  0.00     0.049 A 
HETATM   35  C   UNL     1      39.280 -14.729  -1.475  1.00  0.00     0.030 A 
HETATM   36  C   UNL     1      39.409 -14.237  -2.779  1.00  0.00     0.002 A 
HETATM   37  C   UNL     1      40.111 -13.060  -3.010  1.00  0.00     0.000 A 
HETATM   38  C   UNL     1      40.683 -12.378  -1.940  1.00  0.00     0.002 A 
HETATM   39  C   UNL     1      40.555 -12.876  -0.639  1.00  0.00     0.030 A 
ENDBRANCH  32  34
ENDBRANCH   5  32
TORSDOF 8
ENDMDL
MODEL 7
REMARK VINA RESULT:      -9.3      1.902      2.374
REMARK  8 active torsions:
REMARK  status: ('A' for Active; 'I' for Inactive)
REMARK    1  A    between atoms: C_4  and  N_5 
REMARK    2  A    between atoms: N_5  and  C_6 
REMARK    3  A    between atoms: C_8  and  N_9 
REMARK    4  A    between atoms: N_12  and  C_14 
REMARK    5  A    between atoms: C_14  and  C_15 
REMARK       I    between atoms: C_15  and  N_16 
REMARK    6  A    between atoms: N_16  and  C_17 
REMARK    7  A    between atoms: C_26  and  N_27 
REMARK    8  A    between atoms: N_27  and  C_28 
ROOT
HETATM    1  C   UNL     1      40.307 -14.668   2.143  1.00  0.00     0.758 A 
HETATM    2  N   UNL     1      40.064 -14.286   3.392  1.00  0.00     0.131 NA
HETATM    3  C   UNL     1      40.888 -14.746   4.318  1.00  0.00     0.756 A 
HETATM    4  N   UNL     1      41.851 -15.620   4.066  1.00  0.00     0.131 NA
HETATM    5  C   UNL     1      42.040 -15.950   2.792  1.00  0.00     0.758 A 
HETATM    6  N   UNL     1      41.294 -15.480   1.804  1.00  0.00     0.131 NA
ENDROOT
BRANCH   3   7
HETATM    7  N   UNL     1      40.780 -14.260   5.620  1.00  0.00    -0.210 N 
HETATM    8  C   UNL     1      39.790 -13.188   5.799  1.00  0.00     0.169 C 
HETATM    9  C   UNL     1      40.438 -11.795   5.605  1.00  0.00     0.256 C 
HETATM   10  N   UNL     1      41.655 -11.677   6.524  1.00  0.00    -0.060 N 
HETATM   11  H   UNL     1      41.321 -11.895   7.471  1.00  0.00     0.280 HD
HETATM   12  C   UNL     1      42.687 -12.757   6.180  1.00  0.00     0.256 C 
HETATM   13  C   UNL     1      42.034 -14.141   6.378  1.00  0.00     0.169 C 
BRANCH  10  14
HETATM   14  C   UNL     1      42.239 -10.265   6.627  1.00  0.00     0.337 C 
BRANCH  14  15
HETATM   15  C   UNL     1      41.405  -9.133   6.008  1.00  0.00     0.249 C 
HETATM   16  N   UNL     1      40.386  -8.572   6.723  1.00  0.00    -0.304 N 
HETATM   17  H   UNL     1      39.859  -7.827   6.284  1.00  0.00     0.171 HD
HETATM   18  O   UNL     1      41.640  -8.715   4.871  1.00  0.00    -0.271 OA
BRANCH  16  19
HETATM   19  C   UNL     1      40.024  -8.941   7.985  1.00  0.00     0.172 A 
HETATM   20  S   UNL     1      40.922  -8.219   9.237  1.00  0.00    -0.062 SA
HETATM   21  C   UNL     1      39.982  -9.089  10.379  1.00  0.00     0.072 A 
HETATM   22  C   UNL     1      39.054  -9.865   9.716  1.00  0.00     0.126 A 
HETATM   23  N   UNL     1      39.079  -9.778   8.333  1.00  0.00    -0.236 NA
ENDBRANCH  16  19
ENDBRANCH  14  15
ENDBRANCH  10  14
ENDBRANCH   3   7
BRANCH   1  24
HETATM   24  N   UNL     1      39.562 -14.156   1.085  1.00  0.00    -0.187 N 
HETATM   25  H   UNL     1      38.703 -13.747   1.432  1.00  0.00     0.184 HD
BRANCH  24  26
HETATM   26  C   UNL     1      39.920 -13.783  -0.216  1.00  0.00     0.049 A 
HETATM   27  C   UNL     1      40.650 -12.599  -0.399  1.00  0.00     0.030 A 
HETATM   28  C   UNL     1      41.012 -12.165  -1.675  1.00  0.00     0.002 A 
HETATM   29  C   UNL     1      40.648 -12.910  -2.793  1.00  0.00     0.000 A 
HETATM   30  C   UNL     1      39.911 -14.080  -2.632  1.00  0.00     0.002 A 
HETATM   31  C   UNL     1      39.538 -14.504  -1.353  1.00  0.00     0.030 A 
ENDBRANCH  24  26
ENDBRANCH   1  24
BRANCH   5  32
HETATM   32  N   UNL     1      43.121 -16.795   2.549  1.00  0.00    -0.187 N 
HETATM   33  H   UNL     1      43.742 -16.380   1.870  1.00  0.00     0.184 HD
BRANCH  32  34
HETATM   34  C   UNL     1      43.432 -18.096   2.962  1.00  0.00     0.049 A 
HETATM   35  C   UNL     1      43.162 -19.161   2.088  1.00  0.00     0.030 A 
HETATM   36  C   UNL     1      43.418 -20.487   2.454  1.00  0.00     0.002 A 
HETATM   37  C   UNL     1      43.953 -20.771   3.705  1.00  0.00     0.000 A 
HETATM   38  C   UNL     1      44.229 -19.731   4.587  1.00  0.00     0.002 A 
HETATM   39  C   UNL     1      43.966 -18.406   4.219  1.00  0.00     0.030 A 
ENDBRANCH  32  34
ENDBRANCH   5  32
TORSDOF 8
ENDMDL
MODEL 8
REMARK VINA RESULT:      -9.2      1.675      2.170
REMARK  8 active torsions:
REMARK  status: ('A' for Active; 'I' for Inactive)
REMARK    1  A    between atoms: C_4  and  N_5 
REMARK    2  A    between atoms: N_5  and  C_6 
REMARK    3  A    between atoms: C_8  and  N_9 
REMARK    4  A    between atoms: N_12  and  C_14 
REMARK    5  A    between atoms: C_14  and  C_15 
REMARK       I    between atoms: C_15  and  N_16 
REMARK    6  A    between atoms: N_16  and  C_17 
REMARK    7  A    between atoms: C_26  and  N_27 
REMARK    8  A    between atoms: N_27  and  C_28 
ROOT
HETATM    1  C   UNL     1      41.028 -13.464   0.926  1.00  0.00     0.758 A 
HETATM    2  N   UNL     1      41.185 -12.364   1.655  1.00  0.00     0.131 NA
HETATM    3  C   UNL     1      41.423 -12.542   2.944  1.00  0.00     0.756 A 
HETATM    4  N   UNL     1      41.414 -13.731   3.529  1.00  0.00     0.131 NA
HETATM    5  C   UNL     1      41.259 -14.785   2.735  1.00  0.00     0.758 A 
HETATM    6  N   UNL     1      41.079 -14.688   1.427  1.00  0.00     0.131 NA
ENDROOT
BRANCH   3   7
HETATM    7  N   UNL     1      41.748 -11.437   3.729  1.00  0.00    -0.210 N 
HETATM    8  C   UNL     1      43.162 -11.040   3.682  1.00  0.00     0.169 C 
HETATM    9  C   UNL     1      43.975 -11.747   4.794  1.00  0.00     0.256 C 
HETATM   10  N   UNL     1      43.303 -11.493   6.144  1.00  0.00    -0.060 N 
HETATM   11  H   UNL     1      43.208 -10.474   6.229  1.00  0.00     0.280 HD
HETATM   12  C   UNL     1      41.876 -12.052   6.140  1.00  0.00     0.256 C 
HETATM   13  C   UNL     1      41.072 -11.341   5.032  1.00  0.00     0.169 C 
BRANCH  10  14
HETATM   14  C   UNL     1      44.137 -11.914   7.357  1.00  0.00     0.337 C 
BRANCH  14  15
HETATM   15  C   UNL     1      45.384 -11.070   7.658  1.00  0.00     0.249 C 
HETATM   16  N   UNL     1      45.419 -10.285   8.775  1.00  0.00    -0.304 N 
HETATM   17  H   UNL     1      46.258  -9.743   8.942  1.00  0.00     0.171 HD
HETATM   18  O   UNL     1      46.363 -11.088   6.908  1.00  0.00    -0.271 OA
BRANCH  16  19
HETATM   19  C   UNL     1      44.406 -10.175   9.682  1.00  0.00     0.172 A 
HETATM   20  S   UNL     1      43.228  -9.003   9.313  1.00  0.00    -0.062 SA
HETATM   21  C   UNL     1      42.398  -9.420  10.756  1.00  0.00     0.072 A 
HETATM   22  C   UNL     1      43.085 -10.424  11.409  1.00  0.00     0.126 A 
HETATM   23  N   UNL     1      44.244 -10.858  10.786  1.00  0.00    -0.236 NA
ENDBRANCH  16  19
ENDBRANCH  14  15
ENDBRANCH  10  14
ENDBRANCH   3   7
BRANCH   1  24
HETATM   24  N   UNL     1      40.878 -13.387  -0.455  1.00  0.00    -0.187 N 
HETATM   25  H   UNL     1      41.762 -13.573  -0.911  1.00  0.00     0.184 HD
BRANCH  24  26
HETATM   26  C   UNL     1      39.749 -13.474  -1.278  1.00  0.00     0.049 A 
HETATM   27  C   UNL     1      39.729 -14.443  -2.291  1.00  0.00     0.030 A 
HETATM   28  C   UNL     1      38.641 -14.559  -3.158  1.00  0.00     0.002 A 
HETATM   29  C   UNL     1      37.552 -13.702  -3.026  1.00  0.00     0.000 A 
HETATM   30  C   UNL     1      37.561 -12.723  -2.036  1.00  0.00     0.002 A 
HETATM   31  C   UNL     1      38.659 -12.603  -1.179  1.00  0.00     0.030 A 
ENDBRANCH  24  26
ENDBRANCH   1  24
BRANCH   5  32
HETATM   32  N   UNL     1      41.351 -16.024   3.365  1.00  0.00    -0.187 N 
HETATM   33  H   UNL     1      40.493 -16.232   3.853  1.00  0.00     0.184 HD
BRANCH  32  34
HETATM   34  C   UNL     1      42.400 -16.936   3.537  1.00  0.00     0.049 A 
HETATM   35  C   UNL     1      42.695 -17.826   2.490  1.00  0.00     0.030 A 
HETATM   36  C   UNL     1      43.708 -18.783   2.611  1.00  0.00     0.002 A 
HETATM   37  C   UNL     1      44.447 -18.866   3.786  1.00  0.00     0.000 A 
HETATM   38  C   UNL     1      44.173 -17.994   4.835  1.00  0.00     0.002 A 
HETATM   39  C   UNL     1      43.155 -17.042   4.711  1.00  0.00     0.030 A 
ENDBRANCH  32  34
ENDBRANCH   5  32
TORSDOF 8
ENDMDL
MODEL 9
REMARK VINA RESULT:      -9.1      1.822      2.333
REMARK  8 active torsions:
REMARK  status: ('A' for Active; 'I' for Inactive)
REMARK    1  A    between atoms: C_4  and  N_5 
REMARK    2  A    between atoms: N_5  and  C_6 
REMARK    3  A    between atoms: C_8  and  N_9 
REMARK    4  A    between atoms: N_12  and  C_14 
REMARK    5  A    between atoms: C_14  and  C_15 
REMARK       I    between atoms: C_15  and  N_16 
REMARK    6  A    between atoms: N_16  and  C_17 
REMARK    7  A    between atoms: C_26  and  N_27 
REMARK    8  A    between atoms: N_27  and  C_28 
ROOT
HETATM    1  C   UNL     1      40.906 -13.829   1.189  1.00  0.00     0.758 A 
HETATM    2  N   UNL     1      40.095 -13.197   2.032  1.00  0.00     0.131 NA
HETATM    3  C   UNL     1      40.314 -13.399   3.320  1.00  0.00     0.756 A 
HETATM    4  N   UNL     1      41.218 -14.253   3.781  1.00  0.00     0.131 NA
HETATM    5  C   UNL     1      41.997 -14.841   2.878  1.00  0.00     0.758 A 
HETATM    6  N   UNL     1      41.877 -14.640   1.575  1.00  0.00     0.131 NA
ENDROOT
BRANCH   3   7
HETATM    7  N   UNL     1      39.600 -12.647   4.252  1.00  0.00    -0.210 N 
HETATM    8  C   UNL     1      39.426 -11.231   3.900  1.00  0.00     0.169 C 
HETATM    9  C   UNL     1      40.580 -10.370   4.472  1.00  0.00     0.256 C 
HETATM   10  N   UNL     1      40.699 -10.627   5.975  1.00  0.00    -0.060 N 
HETATM   11  H   UNL     1      39.766 -10.456   6.369  1.00  0.00     0.280 HD
HETATM   12  C   UNL     1      41.005 -12.106   6.238  1.00  0.00     0.256 C 
HETATM   13  C   UNL     1      39.851 -12.956   5.668  1.00  0.00     0.169 C 
BRANCH  10  14
HETATM   14  C   UNL     1      41.624  -9.656   6.713  1.00  0.00     0.337 C 
BRANCH  14  15
HETATM   15  C   UNL     1      41.475  -9.595   8.240  1.00  0.00     0.249 C 
HETATM   16  N   UNL     1      42.567  -9.788   9.037  1.00  0.00    -0.304 N 
HETATM   17  H   UNL     1      42.432  -9.740  10.040  1.00  0.00     0.171 HD
HETATM   18  O   UNL     1      40.382  -9.373   8.767  1.00  0.00    -0.271 OA
BRANCH  16  19
HETATM   19  C   UNL     1      43.828 -10.042   8.582  1.00  0.00     0.172 A 
HETATM   20  S   UNL     1      44.859  -8.690   8.513  1.00  0.00    -0.062 SA
HETATM   21  C   UNL     1      46.106  -9.704   7.911  1.00  0.00     0.072 A 
HETATM   22  C   UNL     1      45.639 -10.998   7.810  1.00  0.00     0.126 A 
HETATM   23  N   UNL     1      44.322 -11.192   8.199  1.00  0.00    -0.236 NA
ENDBRANCH  16  19
ENDBRANCH  14  15
ENDBRANCH  10  14
ENDBRANCH   3   7
BRANCH   1  24
HETATM   24  N   UNL     1      40.824 -13.601  -0.181  1.00  0.00    -0.187 N 
HETATM   25  H   UNL     1      41.736 -13.714  -0.607  1.00  0.00     0.184 HD
BRANCH  24  26
HETATM   26  C   UNL     1      39.742 -13.623  -1.069  1.00  0.00     0.049 A 
HETATM   27  C   UNL     1      39.639 -14.686  -1.978  1.00  0.00     0.030 A 
HETATM   28  C   UNL     1      38.596 -14.747  -2.904  1.00  0.00     0.002 A 
HETATM   29  C   UNL     1      37.635 -13.740  -2.936  1.00  0.00     0.000 A 
HETATM   30  C   UNL     1      37.729 -12.669  -2.051  1.00  0.00     0.002 A 
HETATM   31  C   UNL     1      38.784 -12.606  -1.135  1.00  0.00     0.030 A 
ENDBRANCH  24  26
ENDBRANCH   1  24
BRANCH   5  32
HETATM   32  N   UNL     1      42.999 -15.657   3.399  1.00  0.00    -0.187 N 
HETATM   33  H   UNL     1      43.705 -15.097   3.852  1.00  0.00     0.184 HD
BRANCH  32  34
HETATM   34  C   UNL     1      43.256 -17.031   3.314  1.00  0.00     0.049 A 
HETATM   35  C   UNL     1      43.992 -17.642   4.343  1.00  0.00     0.030 A 
HETATM   36  C   UNL     1      44.311 -19.003   4.301  1.00  0.00     0.002 A 
HETATM   37  C   UNL     1      43.895 -19.781   3.226  1.00  0.00     0.000 A 
HETATM   38  C   UNL     1      43.164 -19.197   2.196  1.00  0.00     0.002 A 
HETATM   39  C   UNL     1      42.852 -17.833   2.240  1.00  0.00     0.030 A 
ENDBRANCH  32  34
ENDBRANCH   5  32
TORSDOF 8
ENDMDL
MODEL 10
REMARK VINA RESULT:      -9.1      3.524      8.197
REMARK  8 active torsions:
REMARK  status: ('A' for Active; 'I' for Inactive)
REMARK    1  A    between atoms: C_4  and  N_5 
REMARK    2  A    between atoms: N_5  and  C_6 
REMARK    3  A    between atoms: C_8  and  N_9 
REMARK    4  A    between atoms: N_12  and  C_14 
REMARK    5  A    between atoms: C_14  and  C_15 
REMARK       I    between atoms: C_15  and  N_16 
REMARK    6  A    between atoms: N_16  and  C_17 
REMARK    7  A    between atoms: C_26  and  N_27 
REMARK    8  A    between atoms: N_27  and  C_28 
ROOT
HETATM    1  C   UNL     1      42.913 -12.833   4.389  1.00  0.00     0.758 A 
HETATM    2  N   UNL     1      41.830 -12.769   3.621  1.00  0.00     0.131 NA
HETATM    3  C   UNL     1      41.223 -13.916   3.364  1.00  0.00     0.756 A 
HETATM    4  N   UNL     1      41.695 -15.092   3.750  1.00  0.00     0.131 NA
HETATM    5  C   UNL     1      42.777 -15.077   4.522  1.00  0.00     0.758 A 
HETATM    6  N   UNL     1      43.403 -13.963   4.873  1.00  0.00     0.131 NA
ENDROOT
BRANCH   3   7
HETATM    7  N   UNL     1      40.001 -13.896   2.696  1.00  0.00    -0.210 N 
HETATM    8  C   UNL     1      39.652 -15.148   2.009  1.00  0.00     0.169 C 
HETATM    9  C   UNL     1      40.161 -15.139   0.546  1.00  0.00     0.256 C 
HETATM   10  N   UNL     1      39.647 -13.881  -0.156  1.00  0.00    -0.060 N 
HETATM   11  H   UNL     1      38.627 -13.879  -0.030  1.00  0.00     0.280 HD
HETATM   12  C   UNL     1      40.164 -12.627   0.558  1.00  0.00     0.256 C 
HETATM   13  C   UNL     1      39.651 -12.642   2.012  1.00  0.00     0.169 C 
BRANCH  10  14
HETATM   14  C   UNL     1      39.856 -13.870  -1.673  1.00  0.00     0.337 C 
BRANCH  14  15
HETATM   15  C   UNL     1      38.602 -14.049  -2.539  1.00  0.00     0.249 C 
HETATM   16  N   UNL     1      37.906 -12.953  -2.963  1.00  0.00    -0.304 N 
HETATM   17  H   UNL     1      37.084 -13.110  -3.533  1.00  0.00     0.171 HD
HETATM   18  O   UNL     1      38.206 -15.172  -2.864  1.00  0.00    -0.271 OA
BRANCH  16  19
HETATM   19  C   UNL     1      38.236 -11.662  -2.673  1.00  0.00     0.172 A 
HETATM   20  S   UNL     1      37.356 -10.958  -1.398  1.00  0.00    -0.062 SA
HETATM   21  C   UNL     1      38.242  -9.506  -1.621  1.00  0.00     0.072 A 
HETATM   22  C   UNL     1      39.144  -9.670  -2.653  1.00  0.00     0.126 A 
HETATM   23  N   UNL     1      39.139 -10.917  -3.259  1.00  0.00    -0.236 NA
ENDBRANCH  16  19
ENDBRANCH  14  15
ENDBRANCH  10  14
ENDBRANCH   3   7
BRANCH   1  24
HETATM   24  N   UNL     1      43.562 -11.673   4.802  1.00  0.00    -0.187 N 
HETATM   25  H   UNL     1      43.294 -10.897   4.210  1.00  0.00     0.184 HD
BRANCH  24  26
HETATM   26  C   UNL     1      44.164 -11.322   6.016  1.00  0.00     0.049 A 
HETATM   27  C   UNL     1      43.342 -10.995   7.105  1.00  0.00     0.030 A 
HETATM   28  C   UNL     1      43.887 -10.613   8.331  1.00  0.00     0.002 A 
HETATM   29  C   UNL     1      45.268 -10.547   8.489  1.00  0.00     0.000 A 
HETATM   30  C   UNL     1      46.100 -10.853   7.415  1.00  0.00     0.002 A 
HETATM   31  C   UNL     1      45.549 -11.223   6.184  1.00  0.00     0.030 A 
ENDBRANCH  24  26
ENDBRANCH   1  24
BRANCH   5  32
HETATM   32  N   UNL     1      43.192 -16.321   4.992  1.00  0.00    -0.187 N 
HETATM   33  H   UNL     1      43.468 -16.254   5.960  1.00  0.00     0.184 HD
BRANCH  32  34
HETATM   34  C   UNL     1      43.397 -17.559   4.371  1.00  0.00     0.049 A 
HETATM   35  C   UNL     1      43.851 -18.635   5.151  1.00  0.00     0.030 A 
HETATM   36  C   UNL     1      44.107 -19.889   4.585  1.00  0.00     0.002 A 
HETATM   37  C   UNL     1      43.910 -20.089   3.224  1.00  0.00     0.000 A 
HETATM   38  C   UNL     1      43.460 -19.037   2.432  1.00  0.00     0.002 A 
HETATM   39  C   UNL     1      43.210 -17.784   3.002  1.00  0.00     0.030 A 
ENDBRANCH  32  34
ENDBRANCH   5  32
TORSDOF 8
ENDMDL
