MODEL 1
REMARK VINA RESULT:      -7.9      0.000      0.000
REMARK  6 active torsions:
REMARK  status: ('A' for Active; 'I' for Inactive)
REMARK    1  A    between atoms: C_4  and  C_5 
REMARK    2  A    between atoms: C_5  and  N_6 
REMARK       I    between atoms: N_6  and  C_7 
REMARK       I    between atoms: C_7  and  N_8 
REMARK    3  A    between atoms: N_8  and  C_9 
REMARK    4  A    between atoms: C_9  and  C_10 
REMARK    5  A    between atoms: C_12  and  O_13 
REMARK    6  A    between atoms: O_13  and  C_14 
ROOT
HETATM    1  N   UNL     1      42.284 -16.361   3.711  1.00  0.00    -0.333 N 
HETATM    2  C   UNL     1      41.145 -15.689   4.006  1.00  0.00     0.317 C 
HETATM    3  N   UNL     1      41.092 -15.107   5.229  1.00  0.00    -0.339 N 
HETATM    4  O   UNL     1      40.197 -15.576   3.236  1.00  0.00    -0.247 OA
HETATM    5  H   UNL     1      42.839 -16.717   4.475  1.00  0.00     0.165 HD
HETATM    6  H   UNL     1      40.218 -14.627   5.401  1.00  0.00     0.164 HD
ENDROOT
BRANCH   3   7
HETATM    7  C   UNL     1      42.148 -14.959   6.205  1.00  0.00     0.163 C 
BRANCH   7   8
HETATM    8  C   UNL     1      42.879 -13.642   6.143  1.00  0.00    -0.035 A 
HETATM    9  C   UNL     1      43.676 -13.152   7.183  1.00  0.00     0.066 A 
HETATM   10  C   UNL     1      44.278 -11.911   7.037  1.00  0.00     0.164 A 
HETATM   11  N   UNL     1      44.160 -11.137   5.940  1.00  0.00    -0.237 NA
HETATM   12  C   UNL     1      43.401 -11.627   4.941  1.00  0.00     0.120 A 
HETATM   13  C   UNL     1      42.751 -12.852   4.994  1.00  0.00     0.028 A 
BRANCH  10  14
HETATM   14  O   UNL     1      45.038 -11.464   8.101  1.00  0.00    -0.329 OA
BRANCH  14  15
HETATM   15  C   UNL     1      44.521 -10.317   8.809  1.00  0.00     0.130 C 
HETATM   16  C   UNL     1      43.785 -10.598  10.148  1.00  0.00     0.032 C 
HETATM   17  C   UNL     1      44.479  -9.351  10.721  1.00  0.00     0.005 C 
HETATM   18  C   UNL     1      45.570  -9.547   9.653  1.00  0.00     0.032 C 
ENDBRANCH  14  15
ENDBRANCH  10  14
ENDBRANCH   7   8
ENDBRANCH   3   7
BRANCH   1  19
HETATM   19  C   UNL     1      42.470 -17.030   2.436  1.00  0.00     0.139 C 
HETATM   20  C   UNL     1      43.413 -16.239   1.534  1.00  0.00     0.039 C 
BRANCH  19  21
HETATM   21  C   UNL     1      43.011 -18.404   2.691  1.00  0.00     0.075 A 
HETATM   22  O   UNL     1      43.492 -18.670   3.944  1.00  0.00    -0.318 OA
HETATM   23  C   UNL     1      43.914 -19.965   3.945  1.00  0.00     0.049 A 
HETATM   24  C   UNL     1      44.472 -20.477   5.213  1.00  0.00     0.076 C 
HETATM   25  C   UNL     1      43.715 -20.531   2.706  1.00  0.00     0.035 A 
HETATM   26  C   UNL     1      43.130 -19.528   1.897  1.00  0.00     0.037 A 
ENDBRANCH  19  21
ENDBRANCH   1  19
TORSDOF 6
ENDMDL
MODEL 2
REMARK VINA RESULT:      -7.9      1.797      2.635
REMARK  6 active torsions:
REMARK  status: ('A' for Active; 'I' for Inactive)
REMARK    1  A    between atoms: C_4  and  C_5 
REMARK    2  A    between atoms: C_5  and  N_6 
REMARK       I    between atoms: N_6  and  C_7 
REMARK       I    between atoms: C_7  and  N_8 
REMARK    3  A    between atoms: N_8  and  C_9 
REMARK    4  A    between atoms: C_9  and  C_10 
REMARK    5  A    between atoms: C_12  and  O_13 
REMARK    6  A    between atoms: O_13  and  C_14 
ROOT
HETATM    1  N   UNL     1      41.264 -14.238   4.865  1.00  0.00    -0.333 N 
HETATM    2  C   UNL     1      40.665 -13.729   5.969  1.00  0.00     0.317 C 
HETATM    3  N   UNL     1      41.062 -12.491   6.350  1.00  0.00    -0.339 N 
HETATM    4  O   UNL     1      39.797 -14.314   6.608  1.00  0.00    -0.247 OA
HETATM    5  H   UNL     1      42.179 -13.892   4.617  1.00  0.00     0.165 HD
HETATM    6  H   UNL     1      40.591 -12.163   7.183  1.00  0.00     0.164 HD
ENDROOT
BRANCH   3   7
HETATM    7  C   UNL     1      41.920 -11.562   5.649  1.00  0.00     0.163 C 
BRANCH   7   8
HETATM    8  C   UNL     1      43.301 -11.418   6.236  1.00  0.00    -0.035 A 
HETATM    9  C   UNL     1      43.543 -11.221   7.599  1.00  0.00     0.066 A 
HETATM   10  C   UNL     1      44.852 -11.066   8.031  1.00  0.00     0.164 A 
HETATM   11  N   UNL     1      45.926 -11.107   7.219  1.00  0.00    -0.237 NA
HETATM   12  C   UNL     1      45.680 -11.311   5.911  1.00  0.00     0.120 A 
HETATM   13  C   UNL     1      44.408 -11.468   5.379  1.00  0.00     0.028 A 
BRANCH  10  14
HETATM   14  O   UNL     1      45.035 -10.854   9.385  1.00  0.00    -0.329 OA
BRANCH  14  15
HETATM   15  C   UNL     1      43.892 -10.344  10.104  1.00  0.00     0.130 C 
HETATM   16  C   UNL     1      43.723 -10.824  11.572  1.00  0.00     0.032 C 
HETATM   17  C   UNL     1      43.294  -9.390  11.928  1.00  0.00     0.005 C 
HETATM   18  C   UNL     1      44.075  -8.919  10.688  1.00  0.00     0.032 C 
ENDBRANCH  14  15
ENDBRANCH  10  14
ENDBRANCH   7   8
ENDBRANCH   3   7
BRANCH   1  19
HETATM   19  C   UNL     1      40.931 -15.554   4.350  1.00  0.00     0.139 C 
HETATM   20  C   UNL     1      40.424 -15.467   2.913  1.00  0.00     0.039 C 
BRANCH  19  21
HETATM   21  C   UNL     1      42.148 -16.423   4.429  1.00  0.00     0.075 A 
HETATM   22  O   UNL     1      42.387 -17.270   3.382  1.00  0.00    -0.318 OA
HETATM   23  C   UNL     1      43.537 -17.942   3.664  1.00  0.00     0.049 A 
HETATM   24  C   UNL     1      43.997 -18.918   2.655  1.00  0.00     0.076 C 
HETATM   25  C   UNL     1      44.036 -17.541   4.882  1.00  0.00     0.035 A 
HETATM   26  C   UNL     1      43.144 -16.559   5.376  1.00  0.00     0.037 A 
ENDBRANCH  19  21
ENDBRANCH   1  19
TORSDOF 6
ENDMDL
MODEL 3
REMARK VINA RESULT:      -7.8      2.169      3.290
REMARK  6 active torsions:
REMARK  status: ('A' for Active; 'I' for Inactive)
REMARK    1  A    between atoms: C_4  and  C_5 
REMARK    2  A    between atoms: C_5  and  N_6 
REMARK       I    between atoms: N_6  and  C_7 
REMARK       I    between atoms: C_7  and  N_8 
REMARK    3  A    between atoms: N_8  and  C_9 
REMARK    4  A    between atoms: C_9  and  C_10 
REMARK    5  A    between atoms: C_12  and  O_13 
REMARK    6  A    between atoms: O_13  and  C_14 
ROOT
HETATM    1  N   UNL     1      43.046 -14.175   5.167  1.00  0.00    -0.333 N 
HETATM    2  C   UNL     1      42.270 -13.328   5.887  1.00  0.00     0.317 C 
HETATM    3  N   UNL     1      42.909 -12.560   6.803  1.00  0.00    -0.339 N 
HETATM    4  O   UNL     1      41.058 -13.219   5.741  1.00  0.00    -0.247 OA
HETATM    5  H   UNL     1      43.923 -14.473   5.567  1.00  0.00     0.165 HD
HETATM    6  H   UNL     1      42.284 -11.955   7.318  1.00  0.00     0.164 HD
ENDROOT
BRANCH   3   7
HETATM    7  C   UNL     1      44.331 -12.396   7.008  1.00  0.00     0.163 C 
BRANCH   7   8
HETATM    8  C   UNL     1      44.737 -11.037   7.520  1.00  0.00    -0.035 A 
HETATM    9  C   UNL     1      43.854 -10.155   8.152  1.00  0.00     0.066 A 
HETATM   10  C   UNL     1      44.322  -8.913   8.555  1.00  0.00     0.164 A 
HETATM   11  N   UNL     1      45.593  -8.494   8.392  1.00  0.00    -0.237 NA
HETATM   12  C   UNL     1      46.436  -9.359   7.794  1.00  0.00     0.120 A 
HETATM   13  C   UNL     1      46.063 -10.619   7.348  1.00  0.00     0.028 A 
BRANCH  10  14
HETATM   14  O   UNL     1      43.405  -8.072   9.155  1.00  0.00    -0.329 OA
BRANCH  14  15
HETATM   15  C   UNL     1      42.922  -8.486  10.451  1.00  0.00     0.130 C 
HETATM   16  C   UNL     1      43.992  -8.959  11.474  1.00  0.00     0.032 C 
HETATM   17  C   UNL     1      43.201  -8.209  12.558  1.00  0.00     0.005 C 
HETATM   18  C   UNL     1      42.629  -7.324  11.436  1.00  0.00     0.032 C 
ENDBRANCH  14  15
ENDBRANCH  10  14
ENDBRANCH   7   8
ENDBRANCH   3   7
BRANCH   1  19
HETATM   19  C   UNL     1      42.487 -15.052   4.155  1.00  0.00     0.139 C 
HETATM   20  C   UNL     1      42.631 -14.443   2.762  1.00  0.00     0.039 C 
BRANCH  19  21
HETATM   21  C   UNL     1      43.187 -16.375   4.228  1.00  0.00     0.075 A 
HETATM   22  O   UNL     1      42.962 -17.263   3.212  1.00  0.00    -0.318 OA
HETATM   23  C   UNL     1      43.700 -18.375   3.480  1.00  0.00     0.049 A 
HETATM   24  C   UNL     1      43.617 -19.477   2.500  1.00  0.00     0.076 C 
HETATM   25  C   UNL     1      44.391 -18.214   4.660  1.00  0.00     0.035 A 
HETATM   26  C   UNL     1      44.064 -16.924   5.141  1.00  0.00     0.037 A 
ENDBRANCH  19  21
ENDBRANCH   1  19
TORSDOF 6
ENDMDL
MODEL 4
REMARK VINA RESULT:      -7.5      1.994      7.981
REMARK  6 active torsions:
REMARK  status: ('A' for Active; 'I' for Inactive)
REMARK    1  A    between atoms: C_4  and  C_5 
REMARK    2  A    between atoms: C_5  and  N_6 
REMARK       I    between atoms: N_6  and  C_7 
REMARK       I    between atoms: C_7  and  N_8 
REMARK    3  A    between atoms: N_8  and  C_9 
REMARK    4  A    between atoms: C_9  and  C_10 
REMARK    5  A    between atoms: C_12  and  O_13 
REMARK    6  A    between atoms: O_13  and  C_14 
ROOT
HETATM    1  N   UNL     1      41.358 -12.389   6.244  1.00  0.00    -0.333 N 
HETATM    2  C   UNL     1      40.450 -12.838   5.343  1.00  0.00     0.317 C 
HETATM    3  N   UNL     1      40.071 -14.134   5.468  1.00  0.00    -0.339 N 
HETATM    4  O   UNL     1      39.962 -12.143   4.459  1.00  0.00    -0.247 OA
HETATM    5  H   UNL     1      41.967 -13.064   6.683  1.00  0.00     0.165 HD
HETATM    6  H   UNL     1      39.401 -14.419   4.767  1.00  0.00     0.164 HD
ENDROOT
BRANCH   3   7
HETATM    7  C   UNL     1      40.374 -15.064   6.533  1.00  0.00     0.163 C 
BRANCH   7   8
HETATM    8  C   UNL     1      41.728 -15.720   6.425  1.00  0.00    -0.035 A 
HETATM    9  C   UNL     1      42.235 -16.251   5.235  1.00  0.00     0.066 A 
HETATM   10  C   UNL     1      43.479 -16.865   5.252  1.00  0.00     0.164 A 
HETATM   11  N   UNL     1      44.252 -16.976   6.350  1.00  0.00    -0.237 NA
HETATM   12  C   UNL     1      43.757 -16.449   7.487  1.00  0.00     0.120 A 
HETATM   13  C   UNL     1      42.522 -15.823   7.574  1.00  0.00     0.028 A 
BRANCH  10  14
HETATM   14  O   UNL     1      43.926 -17.390   4.055  1.00  0.00    -0.329 OA
BRANCH  14  15
HETATM   15  C   UNL     1      43.252 -18.583   3.598  1.00  0.00     0.130 C 
HETATM   16  C   UNL     1      43.294 -18.865   2.071  1.00  0.00     0.032 C 
HETATM   17  C   UNL     1      43.501 -20.350   2.412  1.00  0.00     0.005 C 
HETATM   18  C   UNL     1      44.065 -19.893   3.769  1.00  0.00     0.032 C 
ENDBRANCH  14  15
ENDBRANCH  10  14
ENDBRANCH   7   8
ENDBRANCH   3   7
BRANCH   1  19
HETATM   19  C   UNL     1      41.848 -11.023   6.221  1.00  0.00     0.139 C 
HETATM   20  C   UNL     1      40.979 -10.114   7.088  1.00  0.00     0.039 C 
BRANCH  19  21
HETATM   21  C   UNL     1      43.266 -11.014   6.703  1.00  0.00     0.075 A 
HETATM   22  O   UNL     1      43.695  -9.905   7.381  1.00  0.00    -0.318 OA
HETATM   23  C   UNL     1      44.993 -10.124   7.728  1.00  0.00     0.049 A 
HETATM   24  C   UNL     1      45.666  -9.048   8.484  1.00  0.00     0.076 C 
HETATM   25  C   UNL     1      45.406 -11.357   7.275  1.00  0.00     0.035 A 
HETATM   26  C   UNL     1      44.293 -11.933   6.617  1.00  0.00     0.037 A 
ENDBRANCH  19  21
ENDBRANCH   1  19
TORSDOF 6
ENDMDL
MODEL 5
REMARK VINA RESULT:      -7.5      5.265      8.186
REMARK  6 active torsions:
REMARK  status: ('A' for Active; 'I' for Inactive)
REMARK    1  A    between atoms: C_4  and  C_5 
REMARK    2  A    between atoms: C_5  and  N_6 
REMARK       I    between atoms: N_6  and  C_7 
REMARK       I    between atoms: C_7  and  N_8 
REMARK    3  A    between atoms: N_8  and  C_9 
REMARK    4  A    between atoms: C_9  and  C_10 
REMARK    5  A    between atoms: C_12  and  O_13 
REMARK    6  A    between atoms: O_13  and  C_14 
ROOT
HETATM    1  N   UNL     1      41.754 -15.422   2.926  1.00  0.00    -0.333 N 
HETATM    2  C   UNL     1      42.387 -14.561   2.092  1.00  0.00     0.317 C 
HETATM    3  N   UNL     1      41.756 -14.284   0.925  1.00  0.00    -0.339 N 
HETATM    4  O   UNL     1      43.462 -14.028   2.345  1.00  0.00    -0.247 OA
HETATM    5  H   UNL     1      41.099 -16.077   2.527  1.00  0.00     0.165 HD
HETATM    6  H   UNL     1      42.275 -13.645   0.338  1.00  0.00     0.164 HD
ENDROOT
BRANCH   3   7
HETATM    7  C   UNL     1      40.419 -14.648   0.513  1.00  0.00     0.163 C 
BRANCH   7   8
HETATM    8  C   UNL     1      40.079 -14.278  -0.908  1.00  0.00    -0.035 A 
HETATM    9  C   UNL     1      40.649 -13.191  -1.580  1.00  0.00     0.066 A 
HETATM   10  C   UNL     1      40.240 -12.917  -2.877  1.00  0.00     0.164 A 
HETATM   11  N   UNL     1      39.328 -13.644  -3.552  1.00  0.00    -0.237 NA
HETATM   12  C   UNL     1      38.797 -14.695  -2.898  1.00  0.00     0.120 A 
HETATM   13  C   UNL     1      39.133 -15.046  -1.599  1.00  0.00     0.028 A 
BRANCH  10  14
HETATM   14  O   UNL     1      40.818 -11.821  -3.488  1.00  0.00    -0.329 OA
BRANCH  14  15
HETATM   15  C   UNL     1      40.498 -10.536  -2.914  1.00  0.00     0.130 C 
HETATM   16  C   UNL     1      40.901  -9.284  -3.742  1.00  0.00     0.032 C 
HETATM   17  C   UNL     1      39.560  -8.654  -3.329  1.00  0.00     0.005 C 
HETATM   18  C   UNL     1      39.028 -10.082  -3.117  1.00  0.00     0.032 C 
ENDBRANCH  14  15
ENDBRANCH  10  14
ENDBRANCH   7   8
ENDBRANCH   3   7
BRANCH   1  19
HETATM   19  C   UNL     1      42.321 -15.803   4.207  1.00  0.00     0.139 C 
HETATM   20  C   UNL     1      41.228 -15.993   5.256  1.00  0.00     0.039 C 
BRANCH  19  21
HETATM   21  C   UNL     1      43.105 -17.067   4.027  1.00  0.00     0.075 A 
HETATM   22  O   UNL     1      42.758 -17.881   2.983  1.00  0.00    -0.318 OA
HETATM   23  C   UNL     1      43.603 -18.949   3.009  1.00  0.00     0.049 A 
HETATM   24  C   UNL     1      43.415 -19.966   1.954  1.00  0.00     0.076 C 
HETATM   25  C   UNL     1      44.483 -18.833   4.061  1.00  0.00     0.035 A 
HETATM   26  C   UNL     1      44.167 -17.620   4.716  1.00  0.00     0.037 A 
ENDBRANCH  19  21
ENDBRANCH   1  19
TORSDOF 6
ENDMDL
MODEL 6
REMARK VINA RESULT:      -7.3      2.547      7.010
REMARK  6 active torsions:
REMARK  status: ('A' for Active; 'I' for Inactive)
REMARK    1  A    between atoms: C_4  and  C_5 
REMARK    2  A    between atoms: C_5  and  N_6 
REMARK       I    between atoms: N_6  and  C_7 
REMARK       I    between atoms: C_7  and  N_8 
REMARK    3  A    between atoms: N_8  and  C_9 
REMARK    4  A    between atoms: C_9  and  C_10 
REMARK    5  A    between atoms: C_12  and  O_13 
REMARK    6  A    between atoms: O_13  and  C_14 
ROOT
HETATM    1  N   UNL     1      43.107 -12.416   4.863  1.00  0.00    -0.333 N 
HETATM    2  C   UNL     1      43.729 -11.696   3.898  1.00  0.00     0.317 C 
HETATM    3  N   UNL     1      42.975 -11.350   2.827  1.00  0.00    -0.339 N 
HETATM    4  O   UNL     1      44.902 -11.343   3.957  1.00  0.00    -0.247 OA
HETATM    5  H   UNL     1      42.300 -12.964   4.602  1.00  0.00     0.165 HD
HETATM    6  H   UNL     1      43.490 -10.823   2.134  1.00  0.00     0.164 HD
ENDROOT
BRANCH   3   7
HETATM    7  C   UNL     1      41.549 -11.498   2.641  1.00  0.00     0.163 C 
BRANCH   7   8
HETATM    8  C   UNL     1      41.139 -12.753   1.911  1.00  0.00    -0.035 A 
HETATM    9  C   UNL     1      41.318 -14.040   2.429  1.00  0.00     0.066 A 
HETATM   10  C   UNL     1      40.937 -15.129   1.661  1.00  0.00     0.164 A 
HETATM   11  N   UNL     1      40.383 -15.034   0.436  1.00  0.00    -0.237 NA
HETATM   12  C   UNL     1      40.203 -13.789  -0.045  1.00  0.00     0.120 A 
HETATM   13  C   UNL     1      40.559 -12.637   0.642  1.00  0.00     0.028 A 
BRANCH  10  14
HETATM   14  O   UNL     1      41.154 -16.379   2.209  1.00  0.00    -0.329 OA
BRANCH  14  15
HETATM   15  C   UNL     1      42.533 -16.794   2.308  1.00  0.00     0.130 C 
HETATM   16  C   UNL     1      43.127 -16.902   3.739  1.00  0.00     0.032 C 
HETATM   17  C   UNL     1      43.845 -18.182   3.280  1.00  0.00     0.005 C 
HETATM   18  C   UNL     1      42.760 -18.325   2.198  1.00  0.00     0.032 C 
ENDBRANCH  14  15
ENDBRANCH  10  14
ENDBRANCH   7   8
ENDBRANCH   3   7
BRANCH   1  19
HETATM   19  C   UNL     1      43.800 -12.851   6.061  1.00  0.00     0.139 C 
HETATM   20  C   UNL     1      43.740 -11.781   7.148  1.00  0.00     0.039 C 
BRANCH  19  21
HETATM   21  C   UNL     1      43.175 -14.126   6.540  1.00  0.00     0.075 A 
HETATM   22  O   UNL     1      41.860 -14.339   6.230  1.00  0.00    -0.318 OA
HETATM   23  C   UNL     1      41.515 -15.549   6.751  1.00  0.00     0.049 A 
HETATM   24  C   UNL     1      40.124 -15.993   6.527  1.00  0.00     0.076 C 
HETATM   25  C   UNL     1      42.592 -16.113   7.397  1.00  0.00     0.035 A 
HETATM   26  C   UNL     1      43.664 -15.199   7.259  1.00  0.00     0.037 A 
ENDBRANCH  19  21
ENDBRANCH   1  19
TORSDOF 6
ENDMDL
MODEL 7
REMARK VINA RESULT:      -7.1      5.186      7.638
REMARK  6 active torsions:
REMARK  status: ('A' for Active; 'I' for Inactive)
REMARK    1  A    between atoms: C_4  and  C_5 
REMARK    2  A    between atoms: C_5  and  N_6 
REMARK       I    between atoms: N_6  and  C_7 
REMARK       I    between atoms: C_7  and  N_8 
REMARK    3  A    between atoms: N_8  and  C_9 
REMARK    4  A    between atoms: C_9  and  C_10 
REMARK    5  A    between atoms: C_12  and  O_13 
REMARK    6  A    between atoms: O_13  and  C_14 
ROOT
HETATM    1  N   UNL     1      41.979 -15.849   2.575  1.00  0.00    -0.333 N 
HETATM    2  C   UNL     1      42.549 -15.011   1.675  1.00  0.00     0.317 C 
HETATM    3  N   UNL     1      41.773 -14.635   0.630  1.00  0.00    -0.339 N 
HETATM    4  O   UNL     1      43.694 -14.582   1.770  1.00  0.00    -0.247 OA
HETATM    5  H   UNL     1      41.213 -16.430   2.267  1.00  0.00     0.165 HD
HETATM    6  H   UNL     1      42.249 -14.018  -0.015  1.00  0.00     0.164 HD
ENDROOT
BRANCH   3   7
HETATM    7  C   UNL     1      40.361 -14.869   0.424  1.00  0.00     0.163 C 
BRANCH   7   8
HETATM    8  C   UNL     1      39.730 -14.002  -0.636  1.00  0.00    -0.035 A 
HETATM    9  C   UNL     1      39.279 -12.699  -0.399  1.00  0.00     0.066 A 
HETATM   10  C   UNL     1      38.681 -11.999  -1.436  1.00  0.00     0.164 A 
HETATM   11  N   UNL     1      38.515 -12.487  -2.682  1.00  0.00    -0.237 NA
HETATM   12  C   UNL     1      38.966 -13.737  -2.900  1.00  0.00     0.120 A 
HETATM   13  C   UNL     1      39.570 -14.521  -1.926  1.00  0.00     0.028 A 
BRANCH  10  14
HETATM   14  O   UNL     1      38.234 -10.724  -1.145  1.00  0.00    -0.329 OA
BRANCH  14  15
HETATM   15  C   UNL     1      36.853 -10.617  -0.739  1.00  0.00     0.130 C 
HETATM   16  C   UNL     1      36.583 -10.494   0.786  1.00  0.00     0.032 C 
HETATM   17  C   UNL     1      35.495  -9.461   0.449  1.00  0.00     0.005 C 
HETATM   18  C   UNL     1      36.247  -9.194  -0.867  1.00  0.00     0.032 C 
ENDBRANCH  14  15
ENDBRANCH  10  14
ENDBRANCH   7   8
ENDBRANCH   3   7
BRANCH   1  19
HETATM   19  C   UNL     1      42.700 -16.328   3.740  1.00  0.00     0.139 C 
HETATM   20  C   UNL     1      41.825 -16.270   4.990  1.00  0.00     0.039 C 
BRANCH  19  21
HETATM   21  C   UNL     1      43.155 -17.732   3.478  1.00  0.00     0.075 A 
HETATM   22  O   UNL     1      43.619 -18.453   4.544  1.00  0.00    -0.318 OA
HETATM   23  C   UNL     1      43.960 -19.686   4.077  1.00  0.00     0.049 A 
HETATM   24  C   UNL     1      44.485 -20.647   5.069  1.00  0.00     0.076 C 
HETATM   25  C   UNL     1      43.726 -19.762   2.723  1.00  0.00     0.035 A 
HETATM   26  C   UNL     1      43.204 -18.505   2.336  1.00  0.00     0.037 A 
ENDBRANCH  19  21
ENDBRANCH   1  19
TORSDOF 6
ENDMDL
MODEL 8
REMARK VINA RESULT:      -7.1      1.861      2.406
REMARK  6 active torsions:
REMARK  status: ('A' for Active; 'I' for Inactive)
REMARK    1  A    between atoms: C_4  and  C_5 
REMARK    2  A    between atoms: C_5  and  N_6 
REMARK       I    between atoms: N_6  and  C_7 
REMARK       I    between atoms: C_7  and  N_8 
REMARK    3  A    between atoms: N_8  and  C_9 
REMARK    4  A    between atoms: C_9  and  C_10 
REMARK    5  A    between atoms: C_12  and  O_13 
REMARK    6  A    between atoms: O_13  and  C_14 
ROOT
HETATM    1  N   UNL     1      41.714 -15.187   3.381  1.00  0.00    -0.333 N 
HETATM    2  C   UNL     1      40.404 -14.858   3.264  1.00  0.00     0.317 C 
HETATM    3  N   UNL     1      39.846 -14.232   4.329  1.00  0.00    -0.339 N 
HETATM    4  O   UNL     1      39.728 -15.082   2.266  1.00  0.00    -0.247 OA
HETATM    5  H   UNL     1      42.093 -15.310   4.308  1.00  0.00     0.165 HD
HETATM    6  H   UNL     1      38.867 -14.018   4.193  1.00  0.00     0.164 HD
ENDROOT
BRANCH   3   7
HETATM    7  C   UNL     1      40.494 -13.714   5.513  1.00  0.00     0.163 C 
BRANCH   7   8
HETATM    8  C   UNL     1      40.929 -12.274   5.410  1.00  0.00    -0.035 A 
HETATM    9  C   UNL     1      41.864 -11.687   6.269  1.00  0.00     0.066 A 
HETATM   10  C   UNL     1      42.169 -10.343   6.109  1.00  0.00     0.164 A 
HETATM   11  N   UNL     1      41.629  -9.553   5.160  1.00  0.00    -0.237 NA
HETATM   12  C   UNL     1      40.741 -10.134   4.331  1.00  0.00     0.120 A 
HETATM   13  C   UNL     1      40.363 -11.467   4.414  1.00  0.00     0.028 A 
BRANCH  10  14
HETATM   14  O   UNL     1      43.083  -9.807   6.996  1.00  0.00    -0.329 OA
BRANCH  14  15
HETATM   15  C   UNL     1      44.133 -10.696   7.434  1.00  0.00     0.130 C 
HETATM   16  C   UNL     1      45.301 -10.937   6.439  1.00  0.00     0.032 C 
HETATM   17  C   UNL     1      46.258 -10.875   7.642  1.00  0.00     0.005 C 
HETATM   18  C   UNL     1      45.186 -10.045   8.369  1.00  0.00     0.032 C 
ENDBRANCH  14  15
ENDBRANCH  10  14
ENDBRANCH   7   8
ENDBRANCH   3   7
BRANCH   1  19
HETATM   19  C   UNL     1      42.432 -15.861   2.314  1.00  0.00     0.139 C 
HETATM   20  C   UNL     1      43.508 -14.956   1.720  1.00  0.00     0.039 C 
BRANCH  19  21
HETATM   21  C   UNL     1      43.041 -17.115   2.864  1.00  0.00     0.075 A 
HETATM   22  O   UNL     1      43.026 -18.226   2.065  1.00  0.00    -0.318 OA
HETATM   23  C   UNL     1      43.635 -19.227   2.758  1.00  0.00     0.049 A 
HETATM   24  C   UNL     1      43.741 -20.533   2.076  1.00  0.00     0.076 C 
HETATM   25  C   UNL     1      44.035 -18.774   3.995  1.00  0.00     0.035 A 
HETATM   26  C   UNL     1      43.656 -17.412   4.063  1.00  0.00     0.037 A 
ENDBRANCH  19  21
ENDBRANCH   1  19
TORSDOF 6
ENDMDL
MODEL 9
REMARK VINA RESULT:      -7.1      3.629      8.277
REMARK  6 active torsions:
REMARK  status: ('A' for Active; 'I' for Inactive)
REMARK    1  A    between atoms: C_4  and  C_5 
REMARK    2  A    between atoms: C_5  and  N_6 
REMARK       I    between atoms: N_6  and  C_7 
REMARK       I    between atoms: C_7  and  N_8 
REMARK    3  A    between atoms: N_8  and  C_9 
REMARK    4  A    between atoms: C_9  and  C_10 
REMARK    5  A    between atoms: C_12  and  O_13 
REMARK    6  A    between atoms: O_13  and  C_14 
ROOT
HETATM    1  N   UNL     1      42.200 -15.307   5.568  1.00  0.00    -0.333 N 
HETATM    2  C   UNL     1      40.959 -15.758   5.870  1.00  0.00     0.317 C 
HETATM    3  N   UNL     1      40.163 -16.075   4.820  1.00  0.00    -0.339 N 
HETATM    4  O   UNL     1      40.542 -15.900   7.015  1.00  0.00    -0.247 OA
HETATM    5  H   UNL     1      42.345 -14.880   4.664  1.00  0.00     0.165 HD
HETATM    6  H   UNL     1      39.246 -16.396   5.101  1.00  0.00     0.164 HD
ENDROOT
BRANCH   3   7
HETATM    7  C   UNL     1      40.509 -16.158   3.418  1.00  0.00     0.163 C 
BRANCH   7   8
HETATM    8  C   UNL     1      40.188 -14.921   2.618  1.00  0.00    -0.035 A 
HETATM    9  C   UNL     1      40.272 -14.861   1.223  1.00  0.00     0.066 A 
HETATM   10  C   UNL     1      39.987 -13.662   0.587  1.00  0.00     0.164 A 
HETATM   11  N   UNL     1      39.615 -12.536   1.227  1.00  0.00    -0.237 NA
HETATM   12  C   UNL     1      39.525 -12.611   2.568  1.00  0.00     0.120 A 
HETATM   13  C   UNL     1      39.797 -13.760   3.297  1.00  0.00     0.028 A 
BRANCH  10  14
HETATM   14  O   UNL     1      40.105 -13.650  -0.790  1.00  0.00    -0.329 OA
BRANCH  14  15
HETATM   15  C   UNL     1      39.003 -14.227  -1.523  1.00  0.00     0.130 C 
HETATM   16  C   UNL     1      37.902 -13.246  -2.011  1.00  0.00     0.032 C 
HETATM   17  C   UNL     1      37.854 -14.048  -3.323  1.00  0.00     0.005 C 
HETATM   18  C   UNL     1      39.293 -14.502  -3.022  1.00  0.00     0.032 C 
ENDBRANCH  14  15
ENDBRANCH  10  14
ENDBRANCH   7   8
ENDBRANCH   3   7
BRANCH   1  19
HETATM   19  C   UNL     1      43.151 -14.932   6.598  1.00  0.00     0.139 C 
HETATM   20  C   UNL     1      44.330 -15.902   6.635  1.00  0.00     0.039 C 
BRANCH  19  21
HETATM   21  C   UNL     1      43.624 -13.536   6.330  1.00  0.00     0.075 A 
HETATM   22  O   UNL     1      44.425 -12.950   7.272  1.00  0.00    -0.318 OA
HETATM   23  C   UNL     1      44.737 -11.706   6.816  1.00  0.00     0.049 A 
HETATM   24  C   UNL     1      45.612 -10.885   7.678  1.00  0.00     0.076 C 
HETATM   25  C   UNL     1      44.140 -11.483   5.595  1.00  0.00     0.035 A 
HETATM   26  C   UNL     1      43.425 -12.663   5.279  1.00  0.00     0.037 A 
ENDBRANCH  19  21
ENDBRANCH   1  19
TORSDOF 6
ENDMDL
MODEL 10
REMARK VINA RESULT:      -7.0      2.456      4.022
REMARK  6 active torsions:
REMARK  status: ('A' for Active; 'I' for Inactive)
REMARK    1  A    between atoms: C_4  and  C_5 
REMARK    2  A    between atoms: C_5  and  N_6 
REMARK       I    between atoms: N_6  and  C_7 
REMARK       I    between atoms: C_7  and  N_8 
REMARK    3  A    between atoms: N_8  and  C_9 
REMARK    4  A    between atoms: C_9  and  C_10 
REMARK    5  A    between atoms: C_12  and  O_13 
REMARK    6  A    between atoms: O_13  and  C_14 
ROOT
HETATM    1  N   UNL     1      42.439 -12.690   4.621  1.00  0.00    -0.333 N 
HETATM    2  C   UNL     1      41.943 -12.845   5.873  1.00  0.00     0.317 C 
HETATM    3  N   UNL     1      42.850 -12.865   6.879  1.00  0.00    -0.339 N 
HETATM    4  O   UNL     1      40.748 -12.948   6.127  1.00  0.00    -0.247 OA
HETATM    5  H   UNL     1      43.393 -12.971   4.448  1.00  0.00     0.165 HD
HETATM    6  H   UNL     1      42.428 -12.992   7.789  1.00  0.00     0.164 HD
ENDROOT
BRANCH   3   7
HETATM    7  C   UNL     1      44.266 -12.579   6.824  1.00  0.00     0.163 C 
BRANCH   7   8
HETATM    8  C   UNL     1      44.677 -11.312   7.531  1.00  0.00    -0.035 A 
HETATM    9  C   UNL     1      43.837 -10.605   8.397  1.00  0.00     0.066 A 
HETATM   10  C   UNL     1      44.303  -9.431   8.970  1.00  0.00     0.164 A 
HETATM   11  N   UNL     1      45.533  -8.921   8.760  1.00  0.00    -0.237 NA
HETATM   12  C   UNL     1      46.336  -9.619   7.934  1.00  0.00     0.120 A 
HETATM   13  C   UNL     1      45.961 -10.799   7.306  1.00  0.00     0.028 A 
BRANCH  10  14
HETATM   14  O   UNL     1      43.427  -8.759   9.802  1.00  0.00    -0.329 OA
BRANCH  14  15
HETATM   15  C   UNL     1      43.714  -8.835  11.215  1.00  0.00     0.130 C 
HETATM   16  C   UNL     1      42.964  -7.832  12.133  1.00  0.00     0.032 C 
HETATM   17  C   UNL     1      42.803  -8.974  13.150  1.00  0.00     0.005 C 
HETATM   18  C   UNL     1      42.954  -9.955  11.973  1.00  0.00     0.032 C 
ENDBRANCH  14  15
ENDBRANCH  10  14
ENDBRANCH   7   8
ENDBRANCH   3   7
BRANCH   1  19
HETATM   19  C   UNL     1      41.576 -12.652   3.454  1.00  0.00     0.139 C 
HETATM   20  C   UNL     1      42.150 -11.734   2.378  1.00  0.00     0.039 C 
BRANCH  19  21
HETATM   21  C   UNL     1      41.416 -14.046   2.930  1.00  0.00     0.075 A 
HETATM   22  O   UNL     1      42.538 -14.826   2.862  1.00  0.00    -0.318 OA
HETATM   23  C   UNL     1      42.156 -16.038   2.373  1.00  0.00     0.049 A 
HETATM   24  C   UNL     1      43.216 -17.055   2.221  1.00  0.00     0.076 C 
HETATM   25  C   UNL     1      40.802 -16.043   2.120  1.00  0.00     0.035 A 
HETATM   26  C   UNL     1      40.323 -14.761   2.482  1.00  0.00     0.037 A 
ENDBRANCH  19  21
ENDBRANCH   1  19
TORSDOF 6
ENDMDL
