MODEL 1
REMARK VINA RESULT:      -8.9      0.000      0.000
REMARK  6 active torsions:
REMARK  status: ('A' for Active; 'I' for Inactive)
REMARK    1  A    between atoms: C_4  and  C_5 
REMARK    2  A    between atoms: C_9  and  C_10 
REMARK       I    between atoms: C_10  and  N_11 
REMARK    3  A    between atoms: N_11  and  C_12 
REMARK    4  A    between atoms: C_12  and  C_13 
REMARK    5  A    between atoms: C_13  and  N_14 
REMARK    6  A    between atoms: C_13  and  C_18 
ROOT
HETATM    1  C   UNL     1      44.098 -11.781   7.248  1.00  0.00     0.092 A 
HETATM    2  N   UNL     1      43.820 -12.988   7.783  1.00  0.00    -0.246 NA
HETATM    3  C   UNL     1      43.243 -13.926   7.021  1.00  0.00     0.069 A 
HETATM    4  C   UNL     1      42.911 -13.731   5.661  1.00  0.00     0.008 A 
HETATM    5  C   UNL     1      43.274 -12.473   5.110  1.00  0.00     0.046 A 
HETATM    6  C   UNL     1      43.857 -11.493   5.921  1.00  0.00     0.052 A 
HETATM    7  C   UNL     1      42.952 -15.140   7.628  1.00  0.00     0.032 A 
HETATM    8  C   UNL     1      42.314 -16.175   6.946  1.00  0.00     0.002 A 
HETATM    9  C   UNL     1      41.940 -15.992   5.626  1.00  0.00     0.001 A 
HETATM   10  C   UNL     1      42.225 -14.783   4.993  1.00  0.00     0.015 A 
ENDROOT
BRANCH   5  11
HETATM   11  C   UNL     1      43.073 -12.044   3.695  1.00  0.00     0.252 C 
HETATM   12  N   UNL     1      41.815 -12.151   3.137  1.00  0.00    -0.355 N 
HETATM   13  H   UNL     1      41.160 -12.723   3.665  1.00  0.00     0.162 HD
HETATM   14  O   UNL     1      44.038 -11.669   3.037  1.00  0.00    -0.268 OA
BRANCH  12  15
HETATM   15  C   UNL     1      41.607 -12.150   1.690  1.00  0.00     0.161 C 
BRANCH  15  16
HETATM   16  C   UNL     1      41.168 -13.447   0.911  1.00  0.00     0.237 C 
BRANCH  16  17
HETATM   17  N   UNL     1      39.706 -13.538   0.486  1.00  0.00    -0.069 N 
HETATM   18  H   UNL     1      39.323 -14.270   1.094  1.00  0.00     0.279 HD
HETATM   19  C   UNL     1      38.850 -12.345   0.809  1.00  0.00     0.270 C 
HETATM   20  C   UNL     1      39.495 -14.073  -0.901  1.00  0.00     0.270 C 
ENDBRANCH  16  17
BRANCH  16  21
HETATM   21  C   UNL     1      41.671 -14.783   1.441  1.00  0.00    -0.026 A 
HETATM   22  C   UNL     1      43.056 -15.040   1.450  1.00  0.00     0.009 A 
HETATM   23  C   UNL     1      43.556 -16.277   1.861  1.00  0.00     0.001 A 
HETATM   24  C   UNL     1      42.682 -17.280   2.266  1.00  0.00     0.000 A 
HETATM   25  C   UNL     1      41.310 -17.048   2.261  1.00  0.00     0.001 A 
HETATM   26  C   UNL     1      40.808 -15.811   1.848  1.00  0.00     0.009 A 
ENDBRANCH  16  21
ENDBRANCH  15  16
ENDBRANCH  12  15
ENDBRANCH   5  11
BRANCH   1  27
HETATM   27  C   UNL     1      44.643 -10.801   8.177  1.00  0.00     0.104 A 
HETATM   28  O   UNL     1      43.888 -10.517   9.283  1.00  0.00    -0.313 OA
HETATM   29  C   UNL     1      44.581  -9.611  10.027  1.00  0.00     0.050 A 
HETATM   30  C   UNL     1      43.951  -9.168  11.288  1.00  0.00     0.076 C 
HETATM   31  C   UNL     1      45.774  -9.305   9.410  1.00  0.00     0.035 A 
HETATM   32  C   UNL     1      45.812 -10.069   8.219  1.00  0.00     0.042 A 
ENDBRANCH   1  27
TORSDOF 6
ENDMDL
MODEL 2
REMARK VINA RESULT:      -8.4      2.295      4.495
REMARK  6 active torsions:
REMARK  status: ('A' for Active; 'I' for Inactive)
REMARK    1  A    between atoms: C_4  and  C_5 
REMARK    2  A    between atoms: C_9  and  C_10 
REMARK       I    between atoms: C_10  and  N_11 
REMARK    3  A    between atoms: N_11  and  C_12 
REMARK    4  A    between atoms: C_12  and  C_13 
REMARK    5  A    between atoms: C_13  and  N_14 
REMARK    6  A    between atoms: C_13  and  C_18 
ROOT
HETATM    1  C   UNL     1      42.628 -14.369   4.431  1.00  0.00     0.092 A 
HETATM    2  N   UNL     1      43.428 -15.409   4.743  1.00  0.00    -0.246 NA
HETATM    3  C   UNL     1      43.372 -16.525   4.003  1.00  0.00     0.069 A 
HETATM    4  C   UNL     1      42.517 -16.680   2.889  1.00  0.00     0.008 A 
HETATM    5  C   UNL     1      41.733 -15.546   2.548  1.00  0.00     0.046 A 
HETATM    6  C   UNL     1      41.785 -14.393   3.340  1.00  0.00     0.052 A 
HETATM    7  C   UNL     1      44.196 -17.576   4.385  1.00  0.00     0.032 A 
HETATM    8  C   UNL     1      44.192 -18.799   3.717  1.00  0.00     0.002 A 
HETATM    9  C   UNL     1      43.332 -18.989   2.649  1.00  0.00     0.001 A 
HETATM   10  C   UNL     1      42.497 -17.948   2.245  1.00  0.00     0.015 A 
ENDROOT
BRANCH   5  11
HETATM   11  C   UNL     1      40.793 -15.443   1.394  1.00  0.00     0.252 C 
HETATM   12  N   UNL     1      41.192 -14.751   0.268  1.00  0.00    -0.355 N 
HETATM   13  H   UNL     1      42.018 -14.170   0.393  1.00  0.00     0.162 HD
HETATM   14  O   UNL     1      39.666 -15.916   1.491  1.00  0.00    -0.268 OA
BRANCH  12  15
HETATM   15  C   UNL     1      40.231 -14.254  -0.716  1.00  0.00     0.161 C 
BRANCH  15  16
HETATM   16  C   UNL     1      39.702 -12.771  -0.687  1.00  0.00     0.237 C 
BRANCH  16  17
HETATM   17  N   UNL     1      39.889 -11.943  -1.955  1.00  0.00    -0.069 N 
HETATM   18  H   UNL     1      40.311 -11.072  -1.615  1.00  0.00     0.279 HD
HETATM   19  C   UNL     1      40.909 -12.457  -2.933  1.00  0.00     0.270 C 
HETATM   20  C   UNL     1      38.609 -11.496  -2.599  1.00  0.00     0.270 C 
ENDBRANCH  16  17
BRANCH  16  21
HETATM   21  C   UNL     1      40.002 -11.947   0.557  1.00  0.00    -0.026 A 
HETATM   22  C   UNL     1      41.168 -11.155   0.590  1.00  0.00     0.009 A 
HETATM   23  C   UNL     1      41.518 -10.439   1.736  1.00  0.00     0.001 A 
HETATM   24  C   UNL     1      40.716 -10.504   2.870  1.00  0.00     0.000 A 
HETATM   25  C   UNL     1      39.563 -11.284   2.859  1.00  0.00     0.001 A 
HETATM   26  C   UNL     1      39.212 -12.003   1.714  1.00  0.00     0.009 A 
ENDBRANCH  16  21
ENDBRANCH  15  16
ENDBRANCH  12  15
ENDBRANCH   5  11
BRANCH   1  27
HETATM   27  C   UNL     1      42.698 -13.237   5.344  1.00  0.00     0.104 A 
HETATM   28  O   UNL     1      43.917 -12.980   5.911  1.00  0.00    -0.313 OA
HETATM   29  C   UNL     1      43.775 -11.877   6.698  1.00  0.00     0.050 A 
HETATM   30  C   UNL     1      44.984 -11.407   7.405  1.00  0.00     0.076 C 
HETATM   31  C   UNL     1      42.476 -11.423   6.647  1.00  0.00     0.035 A 
HETATM   32  C   UNL     1      41.782 -12.299   5.778  1.00  0.00     0.042 A 
ENDBRANCH   1  27
TORSDOF 6
ENDMDL
MODEL 3
REMARK VINA RESULT:      -8.1      3.076      6.405
REMARK  6 active torsions:
REMARK  status: ('A' for Active; 'I' for Inactive)
REMARK    1  A    between atoms: C_4  and  C_5 
REMARK    2  A    between atoms: C_9  and  C_10 
REMARK       I    between atoms: C_10  and  N_11 
REMARK    3  A    between atoms: N_11  and  C_12 
REMARK    4  A    between atoms: C_12  and  C_13 
REMARK    5  A    between atoms: C_13  and  N_14 
REMARK    6  A    between atoms: C_13  and  C_18 
ROOT
HETATM    1  C   UNL     1      42.900 -16.565   3.736  1.00  0.00     0.092 A 
HETATM    2  N   UNL     1      43.362 -16.066   4.901  1.00  0.00    -0.246 NA
HETATM    3  C   UNL     1      43.134 -14.781   5.201  1.00  0.00     0.069 A 
HETATM    4  C   UNL     1      42.417 -13.898   4.361  1.00  0.00     0.008 A 
HETATM    5  C   UNL     1      41.890 -14.469   3.172  1.00  0.00     0.046 A 
HETATM    6  C   UNL     1      42.152 -15.807   2.860  1.00  0.00     0.052 A 
HETATM    7  C   UNL     1      43.656 -14.311   6.399  1.00  0.00     0.032 A 
HETATM    8  C   UNL     1      43.519 -12.982   6.796  1.00  0.00     0.002 A 
HETATM    9  C   UNL     1      42.858 -12.089   5.969  1.00  0.00     0.001 A 
HETATM   10  C   UNL     1      42.322 -12.538   4.763  1.00  0.00     0.015 A 
ENDROOT
BRANCH   5  11
HETATM   11  C   UNL     1      41.063 -13.761   2.151  1.00  0.00     0.252 C 
HETATM   12  N   UNL     1      41.670 -12.835   1.327  1.00  0.00    -0.355 N 
HETATM   13  H   UNL     1      42.597 -12.539   1.625  1.00  0.00     0.162 HD
HETATM   14  O   UNL     1      39.855 -13.966   2.106  1.00  0.00    -0.268 OA
BRANCH  12  15
HETATM   15  C   UNL     1      40.903 -11.822   0.603  1.00  0.00     0.161 C 
BRANCH  15  16
HETATM   16  C   UNL     1      40.809 -11.815  -0.969  1.00  0.00     0.237 C 
BRANCH  16  17
HETATM   17  N   UNL     1      40.916 -10.461  -1.663  1.00  0.00    -0.069 N 
HETATM   18  H   UNL     1      40.000 -10.030  -1.495  1.00  0.00     0.279 HD
HETATM   19  C   UNL     1      41.872  -9.478  -1.046  1.00  0.00     0.270 C 
HETATM   20  C   UNL     1      41.011 -10.536  -3.160  1.00  0.00     0.270 C 
ENDBRANCH  16  17
BRANCH  16  21
HETATM   21  C   UNL     1      39.729 -12.677  -1.607  1.00  0.00    -0.026 A 
HETATM   22  C   UNL     1      40.095 -13.888  -2.227  1.00  0.00     0.009 A 
HETATM   23  C   UNL     1      39.147 -14.674  -2.886  1.00  0.00     0.001 A 
HETATM   24  C   UNL     1      37.820 -14.263  -2.941  1.00  0.00     0.000 A 
HETATM   25  C   UNL     1      37.439 -13.067  -2.340  1.00  0.00     0.001 A 
HETATM   26  C   UNL     1      38.386 -12.279  -1.682  1.00  0.00     0.009 A 
ENDBRANCH  16  21
ENDBRANCH  15  16
ENDBRANCH  12  15
ENDBRANCH   5  11
BRANCH   1  27
HETATM   27  C   UNL     1      43.273 -17.945   3.461  1.00  0.00     0.104 A 
HETATM   28  O   UNL     1      43.717 -18.685   4.523  1.00  0.00    -0.313 OA
HETATM   29  C   UNL     1      43.982 -19.939   4.063  1.00  0.00     0.050 A 
HETATM   30  C   UNL     1      44.466 -20.921   5.055  1.00  0.00     0.076 C 
HETATM   31  C   UNL     1      43.716 -20.015   2.713  1.00  0.00     0.035 A 
HETATM   32  C   UNL     1      43.262 -18.731   2.326  1.00  0.00     0.042 A 
ENDBRANCH   1  27
TORSDOF 6
ENDMDL
MODEL 4
REMARK VINA RESULT:      -8.1      1.967      8.011
REMARK  6 active torsions:
REMARK  status: ('A' for Active; 'I' for Inactive)
REMARK    1  A    between atoms: C_4  and  C_5 
REMARK    2  A    between atoms: C_9  and  C_10 
REMARK       I    between atoms: C_10  and  N_11 
REMARK    3  A    between atoms: N_11  and  C_12 
REMARK    4  A    between atoms: C_12  and  C_13 
REMARK    5  A    between atoms: C_13  and  N_14 
REMARK    6  A    between atoms: C_13  and  C_18 
ROOT
HETATM    1  C   UNL     1      40.339 -13.796   0.462  1.00  0.00     0.092 A 
HETATM    2  N   UNL     1      40.584 -15.113   0.618  1.00  0.00    -0.246 NA
HETATM    3  C   UNL     1      41.428 -15.515   1.577  1.00  0.00     0.069 A 
HETATM    4  C   UNL     1      42.084 -14.628   2.461  1.00  0.00     0.008 A 
HETATM    5  C   UNL     1      41.757 -13.254   2.313  1.00  0.00     0.046 A 
HETATM    6  C   UNL     1      40.890 -12.844   1.294  1.00  0.00     0.052 A 
HETATM    7  C   UNL     1      41.667 -16.879   1.676  1.00  0.00     0.032 A 
HETATM    8  C   UNL     1      42.558 -17.409   2.607  1.00  0.00     0.002 A 
HETATM    9  C   UNL     1      43.245 -16.557   3.455  1.00  0.00     0.001 A 
HETATM   10  C   UNL     1      43.019 -15.183   3.378  1.00  0.00     0.015 A 
ENDROOT
BRANCH   5  11
HETATM   11  C   UNL     1      42.277 -12.133   3.150  1.00  0.00     0.252 C 
HETATM   12  N   UNL     1      43.537 -12.243   3.704  1.00  0.00    -0.355 N 
HETATM   13  H   UNL     1      43.933 -13.180   3.683  1.00  0.00     0.162 HD
HETATM   14  O   UNL     1      41.556 -11.169   3.382  1.00  0.00    -0.268 OA
BRANCH  12  15
HETATM   15  C   UNL     1      43.960 -11.419   4.836  1.00  0.00     0.161 C 
BRANCH  15  16
HETATM   16  C   UNL     1      43.585 -11.789   6.320  1.00  0.00     0.237 C 
BRANCH  16  17
HETATM   17  N   UNL     1      44.632 -11.498   7.391  1.00  0.00    -0.069 N 
HETATM   18  H   UNL     1      44.818 -12.419   7.803  1.00  0.00     0.279 HD
HETATM   19  C   UNL     1      45.984 -11.069   6.892  1.00  0.00     0.270 C 
HETATM   20  C   UNL     1      44.129 -10.682   8.546  1.00  0.00     0.270 C 
ENDBRANCH  16  17
BRANCH  16  21
HETATM   21  C   UNL     1      42.915 -13.134   6.556  1.00  0.00    -0.026 A 
HETATM   22  C   UNL     1      43.699 -14.226   6.979  1.00  0.00     0.009 A 
HETATM   23  C   UNL     1      43.139 -15.495   7.140  1.00  0.00     0.001 A 
HETATM   24  C   UNL     1      41.788 -15.697   6.877  1.00  0.00     0.000 A 
HETATM   25  C   UNL     1      40.998 -14.633   6.454  1.00  0.00     0.001 A 
HETATM   26  C   UNL     1      41.557 -13.363   6.291  1.00  0.00     0.009 A 
ENDBRANCH  16  21
ENDBRANCH  15  16
ENDBRANCH  12  15
ENDBRANCH   5  11
BRANCH   1  27
HETATM   27  C   UNL     1      39.478 -13.453  -0.661  1.00  0.00     0.104 A 
HETATM   28  O   UNL     1      39.323 -14.408  -1.630  1.00  0.00    -0.313 OA
HETATM   29  C   UNL     1      38.468 -13.905  -2.563  1.00  0.00     0.050 A 
HETATM   30  C   UNL     1      38.144 -14.783  -3.707  1.00  0.00     0.076 C 
HETATM   31  C   UNL     1      38.073 -12.634  -2.208  1.00  0.00     0.035 A 
HETATM   32  C   UNL     1      38.725 -12.343  -0.985  1.00  0.00     0.042 A 
ENDBRANCH   1  27
TORSDOF 6
ENDMDL
MODEL 5
REMARK VINA RESULT:      -7.9      2.447      8.031
REMARK  6 active torsions:
REMARK  status: ('A' for Active; 'I' for Inactive)
REMARK    1  A    between atoms: C_4  and  C_5 
REMARK    2  A    between atoms: C_9  and  C_10 
REMARK       I    between atoms: C_10  and  N_11 
REMARK    3  A    between atoms: N_11  and  C_12 
REMARK    4  A    between atoms: C_12  and  C_13 
REMARK    5  A    between atoms: C_13  and  N_14 
REMARK    6  A    between atoms: C_13  and  C_18 
ROOT
HETATM    1  C   UNL     1      42.804 -15.703   2.716  1.00  0.00     0.092 A 
HETATM    2  N   UNL     1      41.969 -15.683   1.657  1.00  0.00    -0.246 NA
HETATM    3  C   UNL     1      41.439 -14.519   1.261  1.00  0.00     0.069 A 
HETATM    4  C   UNL     1      41.714 -13.282   1.888  1.00  0.00     0.008 A 
HETATM    5  C   UNL     1      42.646 -13.326   2.959  1.00  0.00     0.046 A 
HETATM    6  C   UNL     1      43.177 -14.551   3.378  1.00  0.00     0.052 A 
HETATM    7  C   UNL     1      40.562 -14.559   0.184  1.00  0.00     0.032 A 
HETATM    8  C   UNL     1      39.918 -13.417  -0.289  1.00  0.00     0.002 A 
HETATM    9  C   UNL     1      40.138 -12.202   0.337  1.00  0.00     0.001 A 
HETATM   10  C   UNL     1      41.017 -12.135   1.418  1.00  0.00     0.015 A 
ENDROOT
BRANCH   5  11
HETATM   11  C   UNL     1      43.133 -12.156   3.747  1.00  0.00     0.252 C 
HETATM   12  N   UNL     1      42.485 -11.826   4.920  1.00  0.00    -0.355 N 
HETATM   13  H   UNL     1      41.580 -12.272   5.050  1.00  0.00     0.162 HD
HETATM   14  O   UNL     1      44.053 -11.475   3.307  1.00  0.00    -0.268 OA
BRANCH  12  15
HETATM   15  C   UNL     1      42.613 -10.503   5.529  1.00  0.00     0.161 C 
BRANCH  15  16
HETATM   16  C   UNL     1      42.203 -10.231   7.025  1.00  0.00     0.237 C 
BRANCH  16  17
HETATM   17  N   UNL     1      41.045  -9.267   7.261  1.00  0.00    -0.069 N 
HETATM   18  H   UNL     1      41.280  -8.822   8.156  1.00  0.00     0.279 HD
HETATM   19  C   UNL     1      40.954  -8.101   6.315  1.00  0.00     0.270 C 
HETATM   20  C   UNL     1      39.725  -9.933   7.525  1.00  0.00     0.270 C 
ENDBRANCH  16  17
BRANCH  16  21
HETATM   21  C   UNL     1      43.325  -9.999   8.026  1.00  0.00    -0.026 A 
HETATM   22  C   UNL     1      44.636 -10.393   7.690  1.00  0.00     0.009 A 
HETATM   23  C   UNL     1      45.683 -10.263   8.605  1.00  0.00     0.001 A 
HETATM   24  C   UNL     1      45.439  -9.741   9.871  1.00  0.00     0.000 A 
HETATM   25  C   UNL     1      44.151  -9.350  10.223  1.00  0.00     0.001 A 
HETATM   26  C   UNL     1      43.102  -9.482   9.310  1.00  0.00     0.009 A 
ENDBRANCH  16  21
ENDBRANCH  15  16
ENDBRANCH  12  15
ENDBRANCH   5  11
BRANCH   1  27
HETATM   27  C   UNL     1      43.259 -17.024   3.123  1.00  0.00     0.104 A 
HETATM   28  O   UNL     1      43.148 -18.025   2.196  1.00  0.00    -0.313 OA
HETATM   29  C   UNL     1      43.649 -19.159   2.760  1.00  0.00     0.050 A 
HETATM   30  C   UNL     1      43.642 -20.376   1.922  1.00  0.00     0.076 C 
HETATM   31  C   UNL     1      44.078 -18.901   4.043  1.00  0.00     0.035 A 
HETATM   32  C   UNL     1      43.825 -17.528   4.278  1.00  0.00     0.042 A 
ENDBRANCH   1  27
TORSDOF 6
ENDMDL
MODEL 6
REMARK VINA RESULT:      -7.9      2.245      7.975
REMARK  6 active torsions:
REMARK  status: ('A' for Active; 'I' for Inactive)
REMARK    1  A    between atoms: C_4  and  C_5 
REMARK    2  A    between atoms: C_9  and  C_10 
REMARK       I    between atoms: C_10  and  N_11 
REMARK    3  A    between atoms: N_11  and  C_12 
REMARK    4  A    between atoms: C_12  and  C_13 
REMARK    5  A    between atoms: C_13  and  N_14 
REMARK    6  A    between atoms: C_13  and  C_18 
ROOT
HETATM    1  C   UNL     1      42.083 -15.511   2.244  1.00  0.00     0.092 A 
HETATM    2  N   UNL     1      42.221 -16.791   1.843  1.00  0.00    -0.246 NA
HETATM    3  C   UNL     1      42.855 -17.664   2.637  1.00  0.00     0.069 A 
HETATM    4  C   UNL     1      43.390 -17.323   3.900  1.00  0.00     0.008 A 
HETATM    5  C   UNL     1      43.174 -15.984   4.322  1.00  0.00     0.046 A 
HETATM    6  C   UNL     1      42.529 -15.076   3.475  1.00  0.00     0.052 A 
HETATM    7  C   UNL     1      42.995 -18.961   2.163  1.00  0.00     0.032 A 
HETATM    8  C   UNL     1      43.673 -19.943   2.883  1.00  0.00     0.002 A 
HETATM    9  C   UNL     1      44.243 -19.622   4.103  1.00  0.00     0.001 A 
HETATM   10  C   UNL     1      44.113 -18.326   4.602  1.00  0.00     0.015 A 
ENDROOT
BRANCH   5  11
HETATM   11  C   UNL     1      43.598 -15.395   5.626  1.00  0.00     0.252 C 
HETATM   12  N   UNL     1      42.985 -14.240   6.067  1.00  0.00    -0.355 N 
HETATM   13  H   UNL     1      42.440 -13.749   5.362  1.00  0.00     0.162 HD
HETATM   14  O   UNL     1      44.523 -15.909   6.247  1.00  0.00    -0.268 OA
BRANCH  12  15
HETATM   15  C   UNL     1      43.589 -13.383   7.087  1.00  0.00     0.161 C 
BRANCH  15  16
HETATM   16  C   UNL     1      43.248 -11.850   7.195  1.00  0.00     0.237 C 
BRANCH  16  17
HETATM   17  N   UNL     1      42.697 -11.173   5.943  1.00  0.00    -0.069 N 
HETATM   18  H   UNL     1      41.882 -11.747   5.698  1.00  0.00     0.279 HD
HETATM   19  C   UNL     1      42.104  -9.805   6.140  1.00  0.00     0.270 C 
HETATM   20  C   UNL     1      43.587 -11.276   4.738  1.00  0.00     0.270 C 
ENDBRANCH  16  17
BRANCH  16  21
HETATM   21  C   UNL     1      44.258 -10.958   7.902  1.00  0.00    -0.026 A 
HETATM   22  C   UNL     1      43.919 -10.391   9.147  1.00  0.00     0.009 A 
HETATM   23  C   UNL     1      44.787  -9.512   9.797  1.00  0.00     0.001 A 
HETATM   24  C   UNL     1      46.006  -9.180   9.215  1.00  0.00     0.000 A 
HETATM   25  C   UNL     1      46.357  -9.725   7.984  1.00  0.00     0.001 A 
HETATM   26  C   UNL     1      45.489 -10.604   7.331  1.00  0.00     0.009 A 
ENDBRANCH  16  21
ENDBRANCH  15  16
ENDBRANCH  12  15
ENDBRANCH   5  11
BRANCH   1  27
HETATM   27  C   UNL     1      41.459 -14.621   1.276  1.00  0.00     0.104 A 
HETATM   28  O   UNL     1      40.632 -15.200   0.352  1.00  0.00    -0.313 OA
HETATM   29  C   UNL     1      40.134 -14.203  -0.431  1.00  0.00     0.050 A 
HETATM   30  C   UNL     1      39.197 -14.605  -1.500  1.00  0.00     0.076 C 
HETATM   31  C   UNL     1      40.635 -12.986  -0.023  1.00  0.00     0.035 A 
HETATM   32  C   UNL     1      41.489 -13.255   1.073  1.00  0.00     0.042 A 
ENDBRANCH   1  27
TORSDOF 6
ENDMDL
MODEL 7
REMARK VINA RESULT:      -7.8     16.680     18.833
REMARK  6 active torsions:
REMARK  status: ('A' for Active; 'I' for Inactive)
REMARK    1  A    between atoms: C_4  and  C_5 
REMARK    2  A    between atoms: C_9  and  C_10 
REMARK       I    between atoms: C_10  and  N_11 
REMARK    3  A    between atoms: N_11  and  C_12 
REMARK    4  A    between atoms: C_12  and  C_13 
REMARK    5  A    between atoms: C_13  and  N_14 
REMARK    6  A    between atoms: C_13  and  C_18 
ROOT
HETATM    1  C   UNL     1      50.156 -30.747   2.925  1.00  0.00     0.092 A 
HETATM    2  N   UNL     1      50.782 -30.887   1.739  1.00  0.00    -0.246 NA
HETATM    3  C   UNL     1      50.176 -30.462   0.623  1.00  0.00     0.069 A 
HETATM    4  C   UNL     1      48.900 -29.854   0.610  1.00  0.00     0.008 A 
HETATM    5  C   UNL     1      48.294 -29.663   1.881  1.00  0.00     0.046 A 
HETATM    6  C   UNL     1      48.928 -30.131   3.038  1.00  0.00     0.052 A 
HETATM    7  C   UNL     1      50.852 -30.656  -0.575  1.00  0.00     0.032 A 
HETATM    8  C   UNL     1      50.301 -30.293  -1.803  1.00  0.00     0.002 A 
HETATM    9  C   UNL     1      49.035 -29.735  -1.843  1.00  0.00     0.001 A 
HETATM   10  C   UNL     1      48.338 -29.527  -0.654  1.00  0.00     0.015 A 
ENDROOT
BRANCH   5  11
HETATM   11  C   UNL     1      46.979 -29.007   2.137  1.00  0.00     0.252 C 
HETATM   12  N   UNL     1      45.880 -29.799   2.403  1.00  0.00    -0.355 N 
HETATM   13  H   UNL     1      46.000 -30.786   2.187  1.00  0.00     0.162 HD
HETATM   14  O   UNL     1      46.884 -27.789   2.041  1.00  0.00    -0.268 OA
BRANCH  12  15
HETATM   15  C   UNL     1      44.512 -29.298   2.261  1.00  0.00     0.161 C 
BRANCH  15  16
HETATM   16  C   UNL     1      43.603 -29.698   1.039  1.00  0.00     0.237 C 
BRANCH  16  17
HETATM   17  N   UNL     1      42.804 -30.992   1.164  1.00  0.00    -0.069 N 
HETATM   18  H   UNL     1      42.638 -31.268   0.190  1.00  0.00     0.279 HD
HETATM   19  C   UNL     1      43.546 -32.171   1.730  1.00  0.00     0.270 C 
HETATM   20  C   UNL     1      41.425 -30.819   1.730  1.00  0.00     0.270 C 
ENDBRANCH  16  17
BRANCH  16  21
HETATM   21  C   UNL     1      44.200 -29.552  -0.353  1.00  0.00    -0.026 A 
HETATM   22  C   UNL     1      44.714 -28.302  -0.752  1.00  0.00     0.009 A 
HETATM   23  C   UNL     1      45.207 -28.106  -2.043  1.00  0.00     0.001 A 
HETATM   24  C   UNL     1      45.192 -29.151  -2.960  1.00  0.00     0.000 A 
HETATM   25  C   UNL     1      44.685 -30.393  -2.587  1.00  0.00     0.001 A 
HETATM   26  C   UNL     1      44.189 -30.590  -1.296  1.00  0.00     0.009 A 
ENDBRANCH  16  21
ENDBRANCH  15  16
ENDBRANCH  12  15
ENDBRANCH   5  11
BRANCH   1  27
HETATM   27  C   UNL     1      50.856 -31.318   4.067  1.00  0.00     0.104 A 
HETATM   28  O   UNL     1      51.142 -32.656   4.006  1.00  0.00    -0.313 OA
HETATM   29  C   UNL     1      51.816 -32.979   5.145  1.00  0.00     0.050 A 
HETATM   30  C   UNL     1      52.241 -34.387   5.286  1.00  0.00     0.076 C 
HETATM   31  C   UNL     1      51.963 -31.865   5.942  1.00  0.00     0.035 A 
HETATM   32  C   UNL     1      51.343 -30.797   5.249  1.00  0.00     0.042 A 
ENDBRANCH   1  27
TORSDOF 6
ENDMDL
MODEL 8
REMARK VINA RESULT:      -7.8      2.257      8.242
REMARK  6 active torsions:
REMARK  status: ('A' for Active; 'I' for Inactive)
REMARK    1  A    between atoms: C_4  and  C_5 
REMARK    2  A    between atoms: C_9  and  C_10 
REMARK       I    between atoms: C_10  and  N_11 
REMARK    3  A    between atoms: N_11  and  C_12 
REMARK    4  A    between atoms: C_12  and  C_13 
REMARK    5  A    between atoms: C_13  and  N_14 
REMARK    6  A    between atoms: C_13  and  C_18 
ROOT
HETATM    1  C   UNL     1      42.228 -15.776   3.114  1.00  0.00     0.092 A 
HETATM    2  N   UNL     1      41.738 -15.614   1.868  1.00  0.00    -0.246 NA
HETATM    3  C   UNL     1      40.986 -14.540   1.593  1.00  0.00     0.069 A 
HETATM    4  C   UNL     1      40.676 -13.540   2.543  1.00  0.00     0.008 A 
HETATM    5  C   UNL     1      41.258 -13.706   3.827  1.00  0.00     0.046 A 
HETATM    6  C   UNL     1      42.025 -14.843   4.109  1.00  0.00     0.052 A 
HETATM    7  C   UNL     1      40.482 -14.437   0.303  1.00  0.00     0.032 A 
HETATM    8  C   UNL     1      39.654 -13.386  -0.086  1.00  0.00     0.002 A 
HETATM    9  C   UNL     1      39.302 -12.418   0.838  1.00  0.00     0.001 A 
HETATM   10  C   UNL     1      39.797 -12.498   2.139  1.00  0.00     0.015 A 
ENDROOT
BRANCH   5  11
HETATM   11  C   UNL     1      41.121 -12.770   4.981  1.00  0.00     0.252 C 
HETATM   12  N   UNL     1      42.036 -11.745   5.120  1.00  0.00    -0.355 N 
HETATM   13  H   UNL     1      42.871 -11.835   4.546  1.00  0.00     0.162 HD
HETATM   14  O   UNL     1      40.244 -12.965   5.815  1.00  0.00    -0.268 OA
BRANCH  12  15
HETATM   15  C   UNL     1      42.233 -11.051   6.392  1.00  0.00     0.161 C 
BRANCH  15  16
HETATM   16  C   UNL     1      43.671 -10.751   6.962  1.00  0.00     0.237 C 
BRANCH  16  17
HETATM   17  N   UNL     1      44.724 -11.841   6.792  1.00  0.00    -0.069 N 
HETATM   18  H   UNL     1      45.259 -11.799   7.667  1.00  0.00     0.279 HD
HETATM   19  C   UNL     1      44.213 -13.255   6.773  1.00  0.00     0.270 C 
HETATM   20  C   UNL     1      45.747 -11.556   5.730  1.00  0.00     0.270 C 
ENDBRANCH  16  17
BRANCH  16  21
HETATM   21  C   UNL     1      43.755 -10.115   8.342  1.00  0.00    -0.026 A 
HETATM   22  C   UNL     1      44.945 -10.246   9.086  1.00  0.00     0.009 A 
HETATM   23  C   UNL     1      45.042  -9.739  10.383  1.00  0.00     0.001 A 
HETATM   24  C   UNL     1      43.952  -9.097  10.962  1.00  0.00     0.000 A 
HETATM   25  C   UNL     1      42.767  -8.961  10.246  1.00  0.00     0.001 A 
HETATM   26  C   UNL     1      42.668  -9.470   8.948  1.00  0.00     0.009 A 
ENDBRANCH  16  21
ENDBRANCH  15  16
ENDBRANCH  12  15
ENDBRANCH   5  11
BRANCH   1  27
HETATM   27  C   UNL     1      42.958 -17.015   3.338  1.00  0.00     0.104 A 
HETATM   28  O   UNL     1      42.796 -18.001   2.402  1.00  0.00    -0.313 OA
HETATM   29  C   UNL     1      43.578 -19.051   2.778  1.00  0.00     0.050 A 
HETATM   30  C   UNL     1      43.568 -20.235   1.894  1.00  0.00     0.076 C 
HETATM   31  C   UNL     1      44.239 -18.754   3.949  1.00  0.00     0.035 A 
HETATM   32  C   UNL     1      43.838 -17.445   4.310  1.00  0.00     0.042 A 
ENDBRANCH   1  27
TORSDOF 6
ENDMDL
MODEL 9
REMARK VINA RESULT:      -7.6      2.524      4.489
REMARK  6 active torsions:
REMARK  status: ('A' for Active; 'I' for Inactive)
REMARK    1  A    between atoms: C_4  and  C_5 
REMARK    2  A    between atoms: C_9  and  C_10 
REMARK       I    between atoms: C_10  and  N_11 
REMARK    3  A    between atoms: N_11  and  C_12 
REMARK    4  A    between atoms: C_12  and  C_13 
REMARK    5  A    between atoms: C_13  and  N_14 
REMARK    6  A    between atoms: C_13  and  C_18 
ROOT
HETATM    1  C   UNL     1      43.198  -9.828   7.423  1.00  0.00     0.092 A 
HETATM    2  N   UNL     1      42.340  -8.820   7.164  1.00  0.00    -0.246 NA
HETATM    3  C   UNL     1      41.707  -8.783   5.984  1.00  0.00     0.069 A 
HETATM    4  C   UNL     1      41.878  -9.759   4.976  1.00  0.00     0.008 A 
HETATM    5  C   UNL     1      42.739 -10.840   5.302  1.00  0.00     0.046 A 
HETATM    6  C   UNL     1      43.411 -10.857   6.530  1.00  0.00     0.052 A 
HETATM    7  C   UNL     1      40.857  -7.708   5.758  1.00  0.00     0.032 A 
HETATM    8  C   UNL     1      40.179  -7.542   4.551  1.00  0.00     0.002 A 
HETATM    9  C   UNL     1      40.364  -8.463   3.533  1.00  0.00     0.001 A 
HETATM   10  C   UNL     1      41.210  -9.552   3.738  1.00  0.00     0.015 A 
ENDROOT
BRANCH   5  11
HETATM   11  C   UNL     1      43.045 -12.012   4.431  1.00  0.00     0.252 C 
HETATM   12  N   UNL     1      42.394 -13.206   4.666  1.00  0.00    -0.355 N 
HETATM   13  H   UNL     1      41.912 -13.262   5.560  1.00  0.00     0.162 HD
HETATM   14  O   UNL     1      43.913 -11.913   3.570  1.00  0.00    -0.268 OA
BRANCH  12  15
HETATM   15  C   UNL     1      42.904 -14.480   4.159  1.00  0.00     0.161 C 
BRANCH  15  16
HETATM   16  C   UNL     1      42.283 -15.859   4.599  1.00  0.00     0.237 C 
BRANCH  16  17
HETATM   17  N   UNL     1      41.960 -16.033   6.080  1.00  0.00    -0.069 N 
HETATM   18  H   UNL     1      42.081 -17.040   6.236  1.00  0.00     0.279 HD
HETATM   19  C   UNL     1      42.939 -15.420   7.044  1.00  0.00     0.270 C 
HETATM   20  C   UNL     1      40.524 -15.781   6.437  1.00  0.00     0.270 C 
ENDBRANCH  16  17
BRANCH  16  21
HETATM   21  C   UNL     1      42.906 -17.121   4.019  1.00  0.00    -0.026 A 
HETATM   22  C   UNL     1      42.568 -17.513   2.708  1.00  0.00     0.009 A 
HETATM   23  C   UNL     1      43.061 -18.700   2.163  1.00  0.00     0.001 A 
HETATM   24  C   UNL     1      43.895 -19.518   2.918  1.00  0.00     0.000 A 
HETATM   25  C   UNL     1      44.236 -19.151   4.216  1.00  0.00     0.001 A 
HETATM   26  C   UNL     1      43.742 -17.965   4.764  1.00  0.00     0.009 A 
ENDBRANCH  16  21
ENDBRANCH  15  16
ENDBRANCH  12  15
ENDBRANCH   5  11
BRANCH   1  27
HETATM   27  C   UNL     1      43.901  -9.733   8.694  1.00  0.00     0.104 A 
HETATM   28  O   UNL     1      43.245  -9.096   9.713  1.00  0.00    -0.313 OA
HETATM   29  C   UNL     1      44.054  -9.142  10.808  1.00  0.00     0.050 A 
HETATM   30  C   UNL     1      43.533  -8.518  12.042  1.00  0.00     0.076 C 
HETATM   31  C   UNL     1      45.226  -9.799  10.505  1.00  0.00     0.035 A 
HETATM   32  C   UNL     1      45.128 -10.177   9.144  1.00  0.00     0.042 A 
ENDBRANCH   1  27
TORSDOF 6
ENDMDL
MODEL 10
REMARK VINA RESULT:      -7.5      2.168      8.385
REMARK  6 active torsions:
REMARK  status: ('A' for Active; 'I' for Inactive)
REMARK    1  A    between atoms: C_4  and  C_5 
REMARK    2  A    between atoms: C_9  and  C_10 
REMARK       I    between atoms: C_10  and  N_11 
REMARK    3  A    between atoms: N_11  and  C_12 
REMARK    4  A    between atoms: C_12  and  C_13 
REMARK    5  A    between atoms: C_13  and  N_14 
REMARK    6  A    between atoms: C_13  and  C_18 
ROOT
HETATM    1  C   UNL     1      41.438 -14.758   2.599  1.00  0.00     0.092 A 
HETATM    2  N   UNL     1      41.943 -15.949   2.217  1.00  0.00    -0.246 NA
HETATM    3  C   UNL     1      42.720 -16.634   3.066  1.00  0.00     0.069 A 
HETATM    4  C   UNL     1      43.042 -16.184   4.366  1.00  0.00     0.008 A 
HETATM    5  C   UNL     1      42.444 -14.958   4.762  1.00  0.00     0.046 A 
HETATM    6  C   UNL     1      41.651 -14.241   3.859  1.00  0.00     0.052 A 
HETATM    7  C   UNL     1      43.238 -17.840   2.612  1.00  0.00     0.032 A 
HETATM    8  C   UNL     1      44.093 -18.619   3.391  1.00  0.00     0.002 A 
HETATM    9  C   UNL     1      44.456 -18.177   4.652  1.00  0.00     0.001 A 
HETATM   10  C   UNL     1      43.946 -16.971   5.131  1.00  0.00     0.015 A 
ENDROOT
BRANCH   5  11
HETATM   11  C   UNL     1      42.590 -14.300   6.093  1.00  0.00     0.252 C 
HETATM   12  N   UNL     1      43.268 -13.101   6.173  1.00  0.00    -0.355 N 
HETATM   13  H   UNL     1      43.814 -12.861   5.348  1.00  0.00     0.162 HD
HETATM   14  O   UNL     1      42.164 -14.864   7.094  1.00  0.00    -0.268 OA
BRANCH  12  15
HETATM   15  C   UNL     1      43.809 -12.599   7.436  1.00  0.00     0.161 C 
BRANCH  15  16
HETATM   16  C   UNL     1      44.249 -11.098   7.615  1.00  0.00     0.237 C 
BRANCH  16  17
HETATM   17  N   UNL     1      45.737 -10.791   7.478  1.00  0.00    -0.069 N 
HETATM   18  H   UNL     1      46.171 -11.373   8.204  1.00  0.00     0.279 HD
HETATM   19  C   UNL     1      46.396 -11.275   6.216  1.00  0.00     0.270 C 
HETATM   20  C   UNL     1      46.121  -9.391   7.859  1.00  0.00     0.270 C 
ENDBRANCH  16  17
BRANCH  16  21
HETATM   21  C   UNL     1      43.632 -10.323   8.771  1.00  0.00    -0.026 A 
HETATM   22  C   UNL     1      43.979 -10.669  10.092  1.00  0.00     0.009 A 
HETATM   23  C   UNL     1      43.384 -10.033  11.183  1.00  0.00     0.001 A 
HETATM   24  C   UNL     1      42.430  -9.043  10.974  1.00  0.00     0.000 A 
HETATM   25  C   UNL     1      42.070  -8.689   9.677  1.00  0.00     0.001 A 
HETATM   26  C   UNL     1      42.663  -9.327   8.585  1.00  0.00     0.009 A 
ENDBRANCH  16  21
ENDBRANCH  15  16
ENDBRANCH  12  15
ENDBRANCH   5  11
BRANCH   1  27
HETATM   27  C   UNL     1      40.679 -14.050   1.578  1.00  0.00     0.104 A 
HETATM   28  O   UNL     1      40.506 -14.695   0.383  1.00  0.00    -0.313 OA
HETATM   29  C   UNL     1      39.754 -13.883  -0.412  1.00  0.00     0.050 A 
HETATM   30  C   UNL     1      39.430 -14.392  -1.761  1.00  0.00     0.076 C 
HETATM   31  C   UNL     1      39.444 -12.720   0.257  1.00  0.00     0.035 A 
HETATM   32  C   UNL     1      40.041 -12.826   1.536  1.00  0.00     0.042 A 
ENDBRANCH   1  27
TORSDOF 6
ENDMDL
