MODEL 1
REMARK VINA RESULT:      -9.1      0.000      0.000
REMARK  6 active torsions:
REMARK  status: ('A' for Active; 'I' for Inactive)
REMARK    1  A    between atoms: C_4  and  C_5 
REMARK    2  A    between atoms: C_5  and  C_6 
REMARK    3  A    between atoms: C_6  and  N_7 
REMARK    4  A    between atoms: C_16  and  C_17 
REMARK    5  A    between atoms: C_24  and  C_25 
REMARK    6  A    between atoms: C_24  and  C_29 
ROOT
HETATM    1  N   UNL     1      41.662 -14.970   4.582  1.00  0.00    -0.284 N 
HETATM    2  C   UNL     1      42.097 -14.832   5.899  1.00  0.00     0.331 A 
HETATM    3  O   UNL     1      42.488 -15.762   6.594  1.00  0.00    -0.246 OA
HETATM    4  N   UNL     1      42.065 -13.569   6.404  1.00  0.00    -0.275 N 
HETATM    5  C   UNL     1      41.646 -12.468   5.744  1.00  0.00     0.262 A 
HETATM    6  O   UNL     1      41.615 -11.360   6.253  1.00  0.00    -0.267 OA
HETATM    7  C   UNL     1      41.201 -12.647   4.359  1.00  0.00     0.100 A 
HETATM    8  C   UNL     1      41.203 -13.888   3.849  1.00  0.00     0.128 A 
HETATM    9  N   UNL     1      40.744 -14.081   2.571  1.00  0.00    -0.326 N 
HETATM   10  C   UNL     1      40.285 -13.107   1.816  1.00  0.00     0.138 A 
HETATM   11  N   UNL     1      40.252 -11.864   2.227  1.00  0.00    -0.345 N 
HETATM   12  H   UNL     1      39.874 -11.145   1.608  1.00  0.00     0.163 HD
HETATM   13  C   UNL     1      40.781 -11.410   3.596  1.00  0.00     0.264 A 
HETATM   14  H   UNL     1      42.372 -13.463   7.364  1.00  0.00     0.173 HD
HETATM   15  H   UNL     1      40.709 -15.004   2.146  1.00  0.00     0.169 HD
ENDROOT
BRANCH   1  16
HETATM   16  C   UNL     1      41.728 -16.337   4.047  1.00  0.00     0.140 C 
BRANCH  16  17
HETATM   17  C   UNL     1      43.093 -16.650   3.416  1.00  0.00     0.059 C 
BRANCH  17  18
HETATM   18  C   UNL     1      43.393 -18.127   3.375  1.00  0.00    -0.057 A 
HETATM   19  C   UNL     1      43.922 -18.778   4.501  1.00  0.00     0.007 A 
HETATM   20  C   UNL     1      44.182 -20.149   4.472  1.00  0.00     0.001 A 
HETATM   21  C   UNL     1      43.902 -20.889   3.327  1.00  0.00     0.000 A 
HETATM   22  C   UNL     1      43.357 -20.258   2.210  1.00  0.00     0.001 A 
HETATM   23  C   UNL     1      43.102 -18.885   2.233  1.00  0.00     0.007 A 
ENDBRANCH  17  18
ENDBRANCH  16  17
ENDBRANCH   1  16
BRANCH  13  24
HETATM   24  C   UNL     1      41.940 -10.447   3.320  1.00  0.00     0.426 C 
HETATM   25  F   UNL     1      43.047 -11.174   3.007  1.00  0.00    -0.168 F 
HETATM   26  F   UNL     1      41.664  -9.695   2.227  1.00  0.00    -0.168 F 
HETATM   27  F   UNL     1      42.269  -9.625   4.321  1.00  0.00    -0.168 F 
ENDBRANCH  13  24
BRANCH  13  28
HETATM   28  C   UNL     1      39.669 -10.572   4.240  1.00  0.00     0.426 C 
HETATM   29  F   UNL     1      38.853 -11.379   4.964  1.00  0.00    -0.168 F 
HETATM   30  F   UNL     1      40.062  -9.558   5.015  1.00  0.00    -0.168 F 
HETATM   31  F   UNL     1      38.892 -10.048   3.252  1.00  0.00    -0.168 F 
ENDBRANCH  13  28
BRANCH  10  32
HETATM   32  C   UNL     1      39.812 -13.473   0.496  1.00  0.00     0.118 A 
HETATM   33  O   UNL     1      39.072 -12.616  -0.275  1.00  0.00    -0.319 OA
HETATM   34  C   UNL     1      38.780 -13.259  -1.434  1.00  0.00     0.142 A 
HETATM   35  C   UNL     1      39.320 -14.522  -1.428  1.00  0.00     0.027 A 
HETATM   36  C   UNL     1      39.987 -14.664  -0.184  1.00  0.00     0.043 A 
ENDBRANCH  10  32
TORSDOF 6
ENDMDL
MODEL 2
REMARK VINA RESULT:      -8.9      1.970      4.628
REMARK  6 active torsions:
REMARK  status: ('A' for Active; 'I' for Inactive)
REMARK    1  A    between atoms: C_4  and  C_5 
REMARK    2  A    between atoms: C_5  and  C_6 
REMARK    3  A    between atoms: C_6  and  N_7 
REMARK    4  A    between atoms: C_16  and  C_17 
REMARK    5  A    between atoms: C_24  and  C_25 
REMARK    6  A    between atoms: C_24  and  C_29 
ROOT
HETATM    1  N   UNL     1      41.229 -14.717   3.908  1.00  0.00    -0.284 N 
HETATM    2  C   UNL     1      40.224 -15.174   3.057  1.00  0.00     0.331 A 
HETATM    3  O   UNL     1      40.093 -16.342   2.714  1.00  0.00    -0.246 OA
HETATM    4  N   UNL     1      39.358 -14.228   2.602  1.00  0.00    -0.275 N 
HETATM    5  C   UNL     1      39.404 -12.911   2.897  1.00  0.00     0.262 A 
HETATM    6  O   UNL     1      38.616 -12.100   2.441  1.00  0.00    -0.267 OA
HETATM    7  C   UNL     1      40.470 -12.464   3.799  1.00  0.00     0.100 A 
HETATM    8  C   UNL     1      41.347 -13.378   4.242  1.00  0.00     0.128 A 
HETATM    9  N   UNL     1      42.380 -12.969   5.048  1.00  0.00    -0.326 N 
HETATM   10  C   UNL     1      42.564 -11.717   5.403  1.00  0.00     0.138 A 
HETATM   11  N   UNL     1      41.754 -10.759   5.023  1.00  0.00    -0.345 N 
HETATM   12  H   UNL     1      41.948  -9.799   5.315  1.00  0.00     0.163 HD
HETATM   13  C   UNL     1      40.495 -11.000   4.178  1.00  0.00     0.264 A 
HETATM   14  H   UNL     1      38.630 -14.552   1.975  1.00  0.00     0.173 HD
HETATM   15  H   UNL     1      43.080 -13.619   5.394  1.00  0.00     0.169 HD
ENDROOT
BRANCH   1  16
HETATM   16  C   UNL     1      42.138 -15.757   4.410  1.00  0.00     0.140 C 
BRANCH  16  17
HETATM   17  C   UNL     1      43.200 -16.151   3.372  1.00  0.00     0.059 C 
BRANCH  17  18
HETATM   18  C   UNL     1      43.427 -17.640   3.306  1.00  0.00    -0.057 A 
HETATM   19  C   UNL     1      44.005 -18.322   4.389  1.00  0.00     0.007 A 
HETATM   20  C   UNL     1      44.199 -19.703   4.337  1.00  0.00     0.001 A 
HETATM   21  C   UNL     1      43.803 -20.422   3.213  1.00  0.00     0.000 A 
HETATM   22  C   UNL     1      43.209 -19.759   2.140  1.00  0.00     0.001 A 
HETATM   23  C   UNL     1      43.020 -18.377   2.185  1.00  0.00     0.007 A 
ENDBRANCH  17  18
ENDBRANCH  16  17
ENDBRANCH   1  16
BRANCH  13  24
HETATM   24  C   UNL     1      39.301 -10.578   5.039  1.00  0.00     0.426 C 
HETATM   25  F   UNL     1      38.919 -11.635   5.806  1.00  0.00    -0.168 F 
HETATM   26  F   UNL     1      39.679  -9.604   5.904  1.00  0.00    -0.168 F 
HETATM   27  F   UNL     1      38.222 -10.152   4.376  1.00  0.00    -0.168 F 
ENDBRANCH  13  24
BRANCH  13  28
HETATM   28  C   UNL     1      40.555 -10.008   3.009  1.00  0.00     0.426 C 
HETATM   29  F   UNL     1      41.313 -10.527   2.011  1.00  0.00    -0.168 F 
HETATM   30  F   UNL     1      39.384  -9.621   2.497  1.00  0.00    -0.168 F 
HETATM   31  F   UNL     1      41.205  -8.886   3.425  1.00  0.00    -0.168 F 
ENDBRANCH  13  28
BRANCH  10  32
HETATM   32  C   UNL     1      43.715 -11.438   6.237  1.00  0.00     0.118 A 
HETATM   33  O   UNL     1      43.594 -11.127   7.565  1.00  0.00    -0.319 OA
HETATM   34  C   UNL     1      44.843 -10.913   8.051  1.00  0.00     0.142 A 
HETATM   35  C   UNL     1      45.776 -11.081   7.056  1.00  0.00     0.027 A 
HETATM   36  C   UNL     1      45.052 -11.421   5.884  1.00  0.00     0.043 A 
ENDBRANCH  10  32
TORSDOF 6
ENDMDL
MODEL 3
REMARK VINA RESULT:      -8.5      1.707      2.370
REMARK  6 active torsions:
REMARK  status: ('A' for Active; 'I' for Inactive)
REMARK    1  A    between atoms: C_4  and  C_5 
REMARK    2  A    between atoms: C_5  and  C_6 
REMARK    3  A    between atoms: C_6  and  N_7 
REMARK    4  A    between atoms: C_16  and  C_17 
REMARK    5  A    between atoms: C_24  and  C_25 
REMARK    6  A    between atoms: C_24  and  C_29 
ROOT
HETATM    1  N   UNL     1      40.512 -14.382   3.150  1.00  0.00    -0.284 N 
HETATM    2  C   UNL     1      40.841 -14.002   4.450  1.00  0.00     0.331 A 
HETATM    3  O   UNL     1      41.156 -14.787   5.337  1.00  0.00    -0.246 OA
HETATM    4  N   UNL     1      40.794 -12.666   4.707  1.00  0.00    -0.275 N 
HETATM    5  C   UNL     1      40.452 -11.706   3.821  1.00  0.00     0.262 A 
HETATM    6  O   UNL     1      40.401 -10.523   4.111  1.00  0.00    -0.267 OA
HETATM    7  C   UNL     1      40.117 -12.139   2.461  1.00  0.00     0.100 A 
HETATM    8  C   UNL     1      40.136 -13.454   2.193  1.00  0.00     0.128 A 
HETATM    9  N   UNL     1      39.779 -13.881   0.939  1.00  0.00    -0.326 N 
HETATM   10  C   UNL     1      39.403 -13.063  -0.020  1.00  0.00     0.138 A 
HETATM   11  N   UNL     1      39.361 -11.765   0.149  1.00  0.00    -0.345 N 
HETATM   12  H   UNL     1      39.049 -11.173  -0.623  1.00  0.00     0.163 HD
HETATM   13  C   UNL     1      39.785 -11.066   1.449  1.00  0.00     0.264 A 
HETATM   14  H   UNL     1      41.023 -12.384   5.653  1.00  0.00     0.173 HD
HETATM   15  H   UNL     1      39.760 -14.867   0.692  1.00  0.00     0.169 HD
ENDROOT
BRANCH   1  16
HETATM   16  C   UNL     1      40.594 -15.825   2.886  1.00  0.00     0.140 C 
BRANCH  16  17
HETATM   17  C   UNL     1      41.854 -16.201   2.090  1.00  0.00     0.059 C 
BRANCH  17  18
HETATM   18  C   UNL     1      42.721 -17.203   2.809  1.00  0.00    -0.057 A 
HETATM   19  C   UNL     1      42.954 -18.471   2.253  1.00  0.00     0.007 A 
HETATM   20  C   UNL     1      43.771 -19.394   2.908  1.00  0.00     0.001 A 
HETATM   21  C   UNL     1      44.379 -19.057   4.113  1.00  0.00     0.000 A 
HETATM   22  C   UNL     1      44.173 -17.794   4.664  1.00  0.00     0.001 A 
HETATM   23  C   UNL     1      43.349 -16.870   4.017  1.00  0.00     0.007 A 
ENDBRANCH  17  18
ENDBRANCH  16  17
ENDBRANCH   1  16
BRANCH  13  24
HETATM   24  C   UNL     1      40.982 -10.176   1.097  1.00  0.00     0.426 C 
HETATM   25  F   UNL     1      42.128 -10.871   1.334  1.00  0.00    -0.168 F 
HETATM   26  F   UNL     1      40.977  -9.902  -0.231  1.00  0.00    -0.168 F 
HETATM   27  F   UNL     1      41.068  -9.020   1.762  1.00  0.00    -0.168 F 
ENDBRANCH  13  24
BRANCH  13  28
HETATM   28  C   UNL     1      38.642 -10.117   1.830  1.00  0.00     0.426 C 
HETATM   29  F   UNL     1      37.670 -10.812   2.475  1.00  0.00    -0.168 F 
HETATM   30  F   UNL     1      38.970  -9.057   2.573  1.00  0.00    -0.168 F 
HETATM   31  F   UNL     1      38.068  -9.647   0.688  1.00  0.00    -0.168 F 
ENDBRANCH  13  28
BRANCH  10  32
HETATM   32  C   UNL     1      39.031 -13.667  -1.283  1.00  0.00     0.118 A 
HETATM   33  O   UNL     1      39.142 -15.014  -1.507  1.00  0.00    -0.319 OA
HETATM   34  C   UNL     1      38.729 -15.252  -2.777  1.00  0.00     0.142 A 
HETATM   35  C   UNL     1      38.349 -14.079  -3.383  1.00  0.00     0.027 A 
HETATM   36  C   UNL     1      38.541 -13.054  -2.421  1.00  0.00     0.043 A 
ENDBRANCH  10  32
TORSDOF 6
ENDMDL
MODEL 4
REMARK VINA RESULT:      -8.4      3.129      6.579
REMARK  6 active torsions:
REMARK  status: ('A' for Active; 'I' for Inactive)
REMARK    1  A    between atoms: C_4  and  C_5 
REMARK    2  A    between atoms: C_5  and  C_6 
REMARK    3  A    between atoms: C_6  and  N_7 
REMARK    4  A    between atoms: C_16  and  C_17 
REMARK    5  A    between atoms: C_24  and  C_25 
REMARK    6  A    between atoms: C_24  and  C_29 
ROOT
HETATM    1  N   UNL     1      39.394 -12.026   3.235  1.00  0.00    -0.284 N 
HETATM    2  C   UNL     1      39.720 -11.725   4.556  1.00  0.00     0.331 A 
HETATM    3  O   UNL     1      39.210 -10.818   5.201  1.00  0.00    -0.246 OA
HETATM    4  N   UNL     1      40.673 -12.513   5.125  1.00  0.00    -0.275 N 
HETATM    5  C   UNL     1      41.317 -13.533   4.517  1.00  0.00     0.262 A 
HETATM    6  O   UNL     1      42.183 -14.193   5.066  1.00  0.00    -0.267 OA
HETATM    7  C   UNL     1      40.945 -13.826   3.129  1.00  0.00     0.100 A 
HETATM    8  C   UNL     1      40.023 -13.047   2.544  1.00  0.00     0.128 A 
HETATM    9  N   UNL     1      39.699 -13.276   1.230  1.00  0.00    -0.326 N 
HETATM   10  C   UNL     1      40.258 -14.220   0.505  1.00  0.00     0.138 A 
HETATM   11  N   UNL     1      41.161 -15.032   0.995  1.00  0.00    -0.345 N 
HETATM   12  H   UNL     1      41.575 -15.741   0.387  1.00  0.00     0.163 HD
HETATM   13  C   UNL     1      41.623 -15.001   2.459  1.00  0.00     0.264 A 
HETATM   14  H   UNL     1      40.922 -12.294   6.083  1.00  0.00     0.173 HD
HETATM   15  H   UNL     1      39.020 -12.703   0.737  1.00  0.00     0.169 HD
ENDROOT
BRANCH   1  16
HETATM   16  C   UNL     1      38.345 -11.181   2.648  1.00  0.00     0.140 C 
BRANCH  16  17
HETATM   17  C   UNL     1      38.924 -10.031   1.810  1.00  0.00     0.059 C 
BRANCH  17  18
HETATM   18  C   UNL     1      38.652 -10.188   0.335  1.00  0.00    -0.057 A 
HETATM   19  C   UNL     1      37.518 -10.886  -0.109  1.00  0.00     0.007 A 
HETATM   20  C   UNL     1      37.254 -11.017  -1.473  1.00  0.00     0.001 A 
HETATM   21  C   UNL     1      38.107 -10.438  -2.408  1.00  0.00     0.000 A 
HETATM   22  C   UNL     1      39.225  -9.725  -1.979  1.00  0.00     0.001 A 
HETATM   23  C   UNL     1      39.497  -9.599  -0.615  1.00  0.00     0.007 A 
ENDBRANCH  17  18
ENDBRANCH  16  17
ENDBRANCH   1  16
BRANCH  13  24
HETATM   24  C   UNL     1      41.235 -16.351   3.070  1.00  0.00     0.426 C 
HETATM   25  F   UNL     1      39.915 -16.319   3.398  1.00  0.00    -0.168 F 
HETATM   26  F   UNL     1      41.367 -17.331   2.142  1.00  0.00    -0.168 F 
HETATM   27  F   UNL     1      41.912 -16.716   4.163  1.00  0.00    -0.168 F 
ENDBRANCH  13  24
BRANCH  13  28
HETATM   28  C   UNL     1      43.156 -14.965   2.435  1.00  0.00     0.426 C 
HETATM   29  F   UNL     1      43.579 -13.677   2.375  1.00  0.00    -0.168 F 
HETATM   30  F   UNL     1      43.782 -15.570   3.447  1.00  0.00    -0.168 F 
HETATM   31  F   UNL     1      43.587 -15.552   1.284  1.00  0.00    -0.168 F 
ENDBRANCH  13  28
BRANCH  10  32
HETATM   32  C   UNL     1      39.828 -14.322  -0.875  1.00  0.00     0.118 A 
HETATM   33  O   UNL     1      39.061 -15.365  -1.324  1.00  0.00    -0.319 OA
HETATM   34  C   UNL     1      38.844 -15.171  -2.649  1.00  0.00     0.142 A 
HETATM   35  C   UNL     1      39.459 -14.017  -3.069  1.00  0.00     0.027 A 
HETATM   36  C   UNL     1      40.094 -13.465  -1.927  1.00  0.00     0.043 A 
ENDBRANCH  10  32
TORSDOF 6
ENDMDL
MODEL 5
REMARK VINA RESULT:      -8.4      3.142      6.260
REMARK  6 active torsions:
REMARK  status: ('A' for Active; 'I' for Inactive)
REMARK    1  A    between atoms: C_4  and  C_5 
REMARK    2  A    between atoms: C_5  and  C_6 
REMARK    3  A    between atoms: C_6  and  N_7 
REMARK    4  A    between atoms: C_16  and  C_17 
REMARK    5  A    between atoms: C_24  and  C_25 
REMARK    6  A    between atoms: C_24  and  C_29 
ROOT
HETATM    1  N   UNL     1      42.932 -11.837   5.185  1.00  0.00    -0.284 N 
HETATM    2  C   UNL     1      43.530 -11.675   6.434  1.00  0.00     0.331 A 
HETATM    3  O   UNL     1      43.999 -10.618   6.839  1.00  0.00    -0.246 OA
HETATM    4  N   UNL     1      43.575 -12.786   7.218  1.00  0.00    -0.275 N 
HETATM    5  C   UNL     1      43.105 -14.007   6.881  1.00  0.00     0.262 A 
HETATM    6  O   UNL     1      43.194 -14.978   7.613  1.00  0.00    -0.267 OA
HETATM    7  C   UNL     1      42.478 -14.142   5.563  1.00  0.00     0.100 A 
HETATM    8  C   UNL     1      42.443 -13.063   4.766  1.00  0.00     0.128 A 
HETATM    9  N   UNL     1      41.903 -13.183   3.510  1.00  0.00    -0.326 N 
HETATM   10  C   UNL     1      41.425 -14.313   3.037  1.00  0.00     0.138 A 
HETATM   11  N   UNL     1      41.412 -15.415   3.746  1.00  0.00    -0.345 N 
HETATM   12  H   UNL     1      41.042 -16.271   3.329  1.00  0.00     0.163 HD
HETATM   13  C   UNL     1      41.901 -15.492   5.200  1.00  0.00     0.264 A 
HETATM   14  H   UNL     1      44.017 -12.677   8.123  1.00  0.00     0.173 HD
HETATM   15  H   UNL     1      41.869 -12.400   2.862  1.00  0.00     0.169 HD
ENDROOT
BRANCH   1  16
HETATM   16  C   UNL     1      42.870 -10.620   4.364  1.00  0.00     0.140 C 
BRANCH  16  17
HETATM   17  C   UNL     1      41.535  -9.876   4.527  1.00  0.00     0.059 C 
BRANCH  17  18
HETATM   18  C   UNL     1      40.589 -10.117   3.378  1.00  0.00    -0.057 A 
HETATM   19  C   UNL     1      40.934  -9.724   2.076  1.00  0.00     0.007 A 
HETATM   20  C   UNL     1      40.067  -9.962   1.008  1.00  0.00     0.001 A 
HETATM   21  C   UNL     1      38.855 -10.611   1.225  1.00  0.00     0.000 A 
HETATM   22  C   UNL     1      38.511 -11.025   2.510  1.00  0.00     0.001 A 
HETATM   23  C   UNL     1      39.371 -10.781   3.582  1.00  0.00     0.007 A 
ENDBRANCH  17  18
ENDBRANCH  16  17
ENDBRANCH   1  16
BRANCH  13  24
HETATM   24  C   UNL     1      40.686 -15.879   6.051  1.00  0.00     0.426 C 
HETATM   25  F   UNL     1      39.905 -14.778   6.223  1.00  0.00    -0.168 F 
HETATM   26  F   UNL     1      39.924 -16.779   5.382  1.00  0.00    -0.168 F 
HETATM   27  F   UNL     1      40.954 -16.375   7.262  1.00  0.00    -0.168 F 
ENDBRANCH  13  24
BRANCH  13  28
HETATM   28  C   UNL     1      42.872 -16.677   5.274  1.00  0.00     0.426 C 
HETATM   29  F   UNL     1      44.140 -16.238   5.074  1.00  0.00    -0.168 F 
HETATM   30  F   UNL     1      42.845 -17.400   6.396  1.00  0.00    -0.168 F 
HETATM   31  F   UNL     1      42.605 -17.523   4.241  1.00  0.00    -0.168 F 
ENDBRANCH  13  28
BRANCH  10  32
HETATM   32  C   UNL     1      40.911 -14.288   1.682  1.00  0.00     0.118 A 
HETATM   33  O   UNL     1      41.207 -13.274   0.810  1.00  0.00    -0.319 OA
HETATM   34  C   UNL     1      40.568 -13.540  -0.357  1.00  0.00     0.142 A 
HETATM   35  C   UNL     1      39.861 -14.713  -0.256  1.00  0.00     0.027 A 
HETATM   36  C   UNL     1      40.080 -15.200   1.058  1.00  0.00     0.043 A 
ENDBRANCH  10  32
TORSDOF 6
ENDMDL
MODEL 6
REMARK VINA RESULT:      -8.3      3.413      7.530
REMARK  6 active torsions:
REMARK  status: ('A' for Active; 'I' for Inactive)
REMARK    1  A    between atoms: C_4  and  C_5 
REMARK    2  A    between atoms: C_5  and  C_6 
REMARK    3  A    between atoms: C_6  and  N_7 
REMARK    4  A    between atoms: C_16  and  C_17 
REMARK    5  A    between atoms: C_24  and  C_25 
REMARK    6  A    between atoms: C_24  and  C_29 
ROOT
HETATM    1  N   UNL     1      41.863 -12.550   2.833  1.00  0.00    -0.284 N 
HETATM    2  C   UNL     1      40.980 -13.212   1.981  1.00  0.00     0.331 A 
HETATM    3  O   UNL     1      40.514 -12.723   0.959  1.00  0.00    -0.246 OA
HETATM    4  N   UNL     1      40.638 -14.477   2.348  1.00  0.00    -0.275 N 
HETATM    5  C   UNL     1      41.073 -15.121   3.453  1.00  0.00     0.262 A 
HETATM    6  O   UNL     1      40.715 -16.248   3.749  1.00  0.00    -0.267 OA
HETATM    7  C   UNL     1      42.005 -14.399   4.324  1.00  0.00     0.100 A 
HETATM    8  C   UNL     1      42.337 -13.142   3.991  1.00  0.00     0.128 A 
HETATM    9  N   UNL     1      43.170 -12.434   4.821  1.00  0.00    -0.326 N 
HETATM   10  C   UNL     1      43.656 -12.923   5.941  1.00  0.00     0.138 A 
HETATM   11  N   UNL     1      43.391 -14.142   6.342  1.00  0.00    -0.345 N 
HETATM   12  H   UNL     1      43.781 -14.471   7.227  1.00  0.00     0.163 HD
HETATM   13  C   UNL     1      42.538 -15.132   5.535  1.00  0.00     0.264 A 
HETATM   14  H   UNL     1      39.989 -14.960   1.738  1.00  0.00     0.173 HD
HETATM   15  H   UNL     1      43.437 -11.474   4.622  1.00  0.00     0.169 HD
ENDROOT
BRANCH   1  16
HETATM   16  C   UNL     1      42.239 -11.196   2.406  1.00  0.00     0.140 C 
BRANCH  16  17
HETATM   17  C   UNL     1      41.126 -10.171   2.673  1.00  0.00     0.059 C 
BRANCH  17  18
HETATM   18  C   UNL     1      40.787 -10.046   4.137  1.00  0.00    -0.057 A 
HETATM   19  C   UNL     1      41.655  -9.379   5.015  1.00  0.00     0.007 A 
HETATM   20  C   UNL     1      41.335  -9.246   6.367  1.00  0.00     0.001 A 
HETATM   21  C   UNL     1      40.137  -9.761   6.854  1.00  0.00     0.000 A 
HETATM   22  C   UNL     1      39.257 -10.407   5.988  1.00  0.00     0.001 A 
HETATM   23  C   UNL     1      39.578 -10.549   4.637  1.00  0.00     0.007 A 
ENDBRANCH  17  18
ENDBRANCH  16  17
ENDBRANCH   1  16
BRANCH  13  24
HETATM   24  C   UNL     1      43.454 -16.307   5.175  1.00  0.00     0.426 C 
HETATM   25  F   UNL     1      43.868 -16.160   3.887  1.00  0.00    -0.168 F 
HETATM   26  F   UNL     1      44.576 -16.266   5.936  1.00  0.00    -0.168 F 
HETATM   27  F   UNL     1      42.916 -17.524   5.287  1.00  0.00    -0.168 F 
ENDBRANCH  13  24
BRANCH  13  28
HETATM   28  C   UNL     1      41.483 -15.690   6.498  1.00  0.00     0.426 C 
HETATM   29  F   UNL     1      40.529 -14.750   6.720  1.00  0.00    -0.168 F 
HETATM   30  F   UNL     1      40.884 -16.826   6.133  1.00  0.00    -0.168 F 
HETATM   31  F   UNL     1      42.072 -15.914   7.705  1.00  0.00    -0.168 F 
ENDBRANCH  13  28
BRANCH  10  32
HETATM   32  C   UNL     1      44.502 -12.044   6.723  1.00  0.00     0.118 A 
HETATM   33  O   UNL     1      44.242 -11.764   8.039  1.00  0.00    -0.319 OA
HETATM   34  C   UNL     1      45.204 -10.910   8.472  1.00  0.00     0.142 A 
HETATM   35  C   UNL     1      46.087 -10.633   7.457  1.00  0.00     0.027 A 
HETATM   36  C   UNL     1      45.638 -11.363   6.326  1.00  0.00     0.043 A 
ENDBRANCH  10  32
TORSDOF 6
ENDMDL
MODEL 7
REMARK VINA RESULT:      -8.3     16.361     18.436
REMARK  6 active torsions:
REMARK  status: ('A' for Active; 'I' for Inactive)
REMARK    1  A    between atoms: C_4  and  C_5 
REMARK    2  A    between atoms: C_5  and  C_6 
REMARK    3  A    between atoms: C_6  and  N_7 
REMARK    4  A    between atoms: C_16  and  C_17 
REMARK    5  A    between atoms: C_24  and  C_25 
REMARK    6  A    between atoms: C_24  and  C_29 
ROOT
HETATM    1  N   UNL     1      49.136 -29.970  -0.605  1.00  0.00    -0.284 N 
HETATM    2  C   UNL     1      50.495 -30.276  -0.652  1.00  0.00     0.331 A 
HETATM    3  O   UNL     1      51.189 -30.172  -1.657  1.00  0.00    -0.246 OA
HETATM    4  N   UNL     1      51.044 -30.717   0.513  1.00  0.00    -0.275 N 
HETATM    5  C   UNL     1      50.385 -30.885   1.679  1.00  0.00     0.262 A 
HETATM    6  O   UNL     1      50.921 -31.308   2.690  1.00  0.00    -0.267 OA
HETATM    7  C   UNL     1      48.958 -30.548   1.696  1.00  0.00     0.100 A 
HETATM    8  C   UNL     1      48.393 -30.133   0.552  1.00  0.00     0.128 A 
HETATM    9  N   UNL     1      47.049 -29.860   0.537  1.00  0.00    -0.326 N 
HETATM   10  C   UNL     1      46.274 -29.997   1.592  1.00  0.00     0.138 A 
HETATM   11  N   UNL     1      46.741 -30.391   2.751  1.00  0.00    -0.345 N 
HETATM   12  H   UNL     1      46.096 -30.494   3.537  1.00  0.00     0.163 HD
HETATM   13  C   UNL     1      48.226 -30.683   3.012  1.00  0.00     0.264 A 
HETATM   14  H   UNL     1      52.030 -30.950   0.483  1.00  0.00     0.173 HD
HETATM   15  H   UNL     1      46.570 -29.560  -0.308  1.00  0.00     0.169 HD
ENDROOT
BRANCH   1  16
HETATM   16  C   UNL     1      48.569 -29.471  -1.865  1.00  0.00     0.140 C 
BRANCH  16  17
HETATM   17  C   UNL     1      47.776 -30.553  -2.615  1.00  0.00     0.059 C 
BRANCH  17  18
HETATM   18  C   UNL     1      46.391 -30.099  -3.002  1.00  0.00    -0.057 A 
HETATM   19  C   UNL     1      45.407 -31.036  -3.356  1.00  0.00     0.007 A 
HETATM   20  C   UNL     1      44.120 -30.619  -3.697  1.00  0.00     0.001 A 
HETATM   21  C   UNL     1      43.794 -29.266  -3.670  1.00  0.00     0.000 A 
HETATM   22  C   UNL     1      44.755 -28.329  -3.299  1.00  0.00     0.001 A 
HETATM   23  C   UNL     1      46.047 -28.741  -2.966  1.00  0.00     0.007 A 
ENDBRANCH  17  18
ENDBRANCH  16  17
ENDBRANCH   1  16
BRANCH  13  24
HETATM   24  C   UNL     1      48.691 -29.675   4.069  1.00  0.00     0.426 C 
HETATM   25  F   UNL     1      48.841 -28.459   3.476  1.00  0.00    -0.168 F 
HETATM   26  F   UNL     1      47.728 -29.517   5.010  1.00  0.00    -0.168 F 
HETATM   27  F   UNL     1      49.839 -29.964   4.688  1.00  0.00    -0.168 F 
ENDBRANCH  13  24
BRANCH  13  28
HETATM   28  C   UNL     1      48.291 -32.063   3.677  1.00  0.00     0.426 C 
HETATM   29  F   UNL     1      48.400 -33.022   2.723  1.00  0.00    -0.168 F 
HETATM   30  F   UNL     1      49.262 -32.245   4.576  1.00  0.00    -0.168 F 
HETATM   31  F   UNL     1      47.107 -32.299   4.308  1.00  0.00    -0.168 F 
ENDBRANCH  13  28
BRANCH  10  32
HETATM   32  C   UNL     1      44.869 -29.694   1.413  1.00  0.00     0.118 A 
HETATM   33  O   UNL     1      43.998 -29.627   2.468  1.00  0.00    -0.319 OA
HETATM   34  C   UNL     1      42.770 -29.340   1.967  1.00  0.00     0.142 A 
HETATM   35  C   UNL     1      42.831 -29.218   0.600  1.00  0.00     0.027 A 
HETATM   36  C   UNL     1      44.183 -29.445   0.238  1.00  0.00     0.043 A 
ENDBRANCH  10  32
TORSDOF 6
ENDMDL
MODEL 8
REMARK VINA RESULT:      -8.1     16.026     18.167
REMARK  6 active torsions:
REMARK  status: ('A' for Active; 'I' for Inactive)
REMARK    1  A    between atoms: C_4  and  C_5 
REMARK    2  A    between atoms: C_5  and  C_6 
REMARK    3  A    between atoms: C_6  and  N_7 
REMARK    4  A    between atoms: C_16  and  C_17 
REMARK    5  A    between atoms: C_24  and  C_25 
REMARK    6  A    between atoms: C_24  and  C_29 
ROOT
HETATM    1  N   UNL     1      45.326 -31.067   2.374  1.00  0.00    -0.284 N 
HETATM    2  C   UNL     1      43.968 -30.800   2.537  1.00  0.00     0.331 A 
HETATM    3  O   UNL     1      43.321 -31.112   3.529  1.00  0.00    -0.246 OA
HETATM    4  N   UNL     1      43.363 -30.154   1.503  1.00  0.00    -0.275 N 
HETATM    5  C   UNL     1      43.962 -29.769   0.356  1.00  0.00     0.262 A 
HETATM    6  O   UNL     1      43.367 -29.214  -0.551  1.00  0.00    -0.267 OA
HETATM    7  C   UNL     1      45.393 -30.060   0.219  1.00  0.00     0.100 A 
HETATM    8  C   UNL     1      46.003 -30.716   1.218  1.00  0.00     0.128 A 
HETATM    9  N   UNL     1      47.330 -31.040   1.085  1.00  0.00    -0.326 N 
HETATM   10  C   UNL     1      48.039 -30.748   0.016  1.00  0.00     0.138 A 
HETATM   11  N   UNL     1      47.528 -30.104  -1.003  1.00  0.00    -0.345 N 
HETATM   12  H   UNL     1      48.117 -29.913  -1.816  1.00  0.00     0.163 HD
HETATM   13  C   UNL     1      46.084 -29.585  -1.040  1.00  0.00     0.264 A 
HETATM   14  H   UNL     1      42.373 -29.965   1.612  1.00  0.00     0.173 HD
HETATM   15  H   UNL     1      47.833 -31.551   1.805  1.00  0.00     0.169 HD
ENDROOT
BRANCH   1  16
HETATM   16  C   UNL     1      45.967 -31.742   3.511  1.00  0.00     0.140 C 
BRANCH  16  17
HETATM   17  C   UNL     1      46.550 -30.746   4.525  1.00  0.00     0.059 C 
BRANCH  17  18
HETATM   18  C   UNL     1      48.058 -30.729   4.526  1.00  0.00    -0.057 A 
HETATM   19  C   UNL     1      48.782 -31.816   5.040  1.00  0.00     0.007 A 
HETATM   20  C   UNL     1      50.178 -31.811   5.026  1.00  0.00     0.001 A 
HETATM   21  C   UNL     1      50.866 -30.731   4.481  1.00  0.00     0.000 A 
HETATM   22  C   UNL     1      50.158 -29.656   3.948  1.00  0.00     0.001 A 
HETATM   23  C   UNL     1      48.762 -29.653   3.969  1.00  0.00     0.007 A 
ENDBRANCH  17  18
ENDBRANCH  16  17
ENDBRANCH   1  16
BRANCH  13  24
HETATM   24  C   UNL     1      46.169 -28.058  -1.143  1.00  0.00     0.426 C 
HETATM   25  F   UNL     1      46.312 -27.543   0.108  1.00  0.00    -0.168 F 
HETATM   26  F   UNL     1      47.287 -27.705  -1.825  1.00  0.00    -0.168 F 
HETATM   27  F   UNL     1      45.123 -27.450  -1.710  1.00  0.00    -0.168 F 
ENDBRANCH  13  24
BRANCH  13  28
HETATM   28  C   UNL     1      45.476 -30.071  -2.362  1.00  0.00     0.426 C 
HETATM   29  F   UNL     1      45.013 -31.338  -2.210  1.00  0.00    -0.168 F 
HETATM   30  F   UNL     1      44.500 -29.321  -2.880  1.00  0.00    -0.168 F 
HETATM   31  F   UNL     1      46.466 -30.147  -3.294  1.00  0.00    -0.168 F 
ENDBRANCH  13  28
BRANCH  10  32
HETATM   32  C   UNL     1      49.423 -31.179   0.015  1.00  0.00     0.118 A 
HETATM   33  O   UNL     1      50.270 -30.903  -1.026  1.00  0.00    -0.319 OA
HETATM   34  C   UNL     1      51.476 -31.448  -0.726  1.00  0.00     0.142 A 
HETATM   35  C   UNL     1      51.425 -32.075   0.495  1.00  0.00     0.027 A 
HETATM   36  C   UNL     1      50.102 -31.902   0.977  1.00  0.00     0.043 A 
ENDBRANCH  10  32
TORSDOF 6
ENDMDL
MODEL 9
REMARK VINA RESULT:      -8.0      3.773      6.831
REMARK  6 active torsions:
REMARK  status: ('A' for Active; 'I' for Inactive)
REMARK    1  A    between atoms: C_4  and  C_5 
REMARK    2  A    between atoms: C_5  and  C_6 
REMARK    3  A    between atoms: C_6  and  N_7 
REMARK    4  A    between atoms: C_16  and  C_17 
REMARK    5  A    between atoms: C_24  and  C_25 
REMARK    6  A    between atoms: C_24  and  C_29 
ROOT
HETATM    1  N   UNL     1      38.589 -11.288   1.365  1.00  0.00    -0.284 N 
HETATM    2  C   UNL     1      37.739 -10.328   0.818  1.00  0.00     0.331 A 
HETATM    3  O   UNL     1      37.156  -9.473   1.473  1.00  0.00    -0.246 OA
HETATM    4  N   UNL     1      37.575 -10.382  -0.532  1.00  0.00    -0.275 N 
HETATM    5  C   UNL     1      38.151 -11.280  -1.360  1.00  0.00     0.262 A 
HETATM    6  O   UNL     1      37.949 -11.300  -2.562  1.00  0.00    -0.267 OA
HETATM    7  C   UNL     1      39.043 -12.273  -0.753  1.00  0.00     0.100 A 
HETATM    8  C   UNL     1      39.202 -12.250   0.579  1.00  0.00     0.128 A 
HETATM    9  N   UNL     1      39.994 -13.202   1.169  1.00  0.00    -0.326 N 
HETATM   10  C   UNL     1      40.603 -14.152   0.493  1.00  0.00     0.138 A 
HETATM   11  N   UNL     1      40.511 -14.247  -0.810  1.00  0.00    -0.345 N 
HETATM   12  H   UNL     1      40.992 -15.011  -1.288  1.00  0.00     0.163 HD
HETATM   13  C   UNL     1      39.734 -13.248  -1.680  1.00  0.00     0.264 A 
HETATM   14  H   UNL     1      36.951  -9.692  -0.935  1.00  0.00     0.173 HD
HETATM   15  H   UNL     1      40.132 -13.238   2.175  1.00  0.00     0.169 HD
ENDROOT
BRANCH   1  16
HETATM   16  C   UNL     1      38.774 -11.197   2.819  1.00  0.00     0.140 C 
BRANCH  16  17
HETATM   17  C   UNL     1      40.018 -10.379   3.197  1.00  0.00     0.059 C 
BRANCH  17  18
HETATM   18  C   UNL     1      41.181 -11.245   3.614  1.00  0.00    -0.057 A 
HETATM   19  C   UNL     1      40.978 -12.361   4.441  1.00  0.00     0.007 A 
HETATM   20  C   UNL     1      42.049 -13.174   4.813  1.00  0.00     0.001 A 
HETATM   21  C   UNL     1      43.331 -12.894   4.350  1.00  0.00     0.000 A 
HETATM   22  C   UNL     1      43.542 -11.802   3.511  1.00  0.00     0.001 A 
HETATM   23  C   UNL     1      42.475 -10.981   3.143  1.00  0.00     0.007 A 
ENDBRANCH  17  18
ENDBRANCH  16  17
ENDBRANCH   1  16
BRANCH  13  24
HETATM   24  C   UNL     1      40.759 -12.581  -2.604  1.00  0.00     0.426 C 
HETATM   25  F   UNL     1      41.671 -11.921  -1.839  1.00  0.00    -0.168 F 
HETATM   26  F   UNL     1      41.453 -13.529  -3.281  1.00  0.00    -0.168 F 
HETATM   27  F   UNL     1      40.269 -11.708  -3.488  1.00  0.00    -0.168 F 
ENDBRANCH  13  24
BRANCH  13  28
HETATM   28  C   UNL     1      38.815 -14.077  -2.586  1.00  0.00     0.426 C 
HETATM   29  F   UNL     1      38.725 -13.486  -3.804  1.00  0.00    -0.168 F 
HETATM   30  F   UNL     1      39.147 -15.358  -2.758  1.00  0.00    -0.168 F 
HETATM   31  F   UNL     1      37.556 -14.051  -2.067  1.00  0.00    -0.168 F 
ENDBRANCH  13  28
BRANCH  10  32
HETATM   32  C   UNL     1      41.386 -15.099   1.261  1.00  0.00     0.118 A 
HETATM   33  O   UNL     1      40.812 -16.158   1.912  1.00  0.00    -0.319 OA
HETATM   34  C   UNL     1      41.805 -16.838   2.540  1.00  0.00     0.142 A 
HETATM   35  C   UNL     1      43.017 -16.236   2.305  1.00  0.00     0.027 A 
HETATM   36  C   UNL     1      42.751 -15.113   1.478  1.00  0.00     0.043 A 
ENDBRANCH  10  32
TORSDOF 6
ENDMDL
MODEL 10
REMARK VINA RESULT:      -7.9      3.297      7.166
REMARK  6 active torsions:
REMARK  status: ('A' for Active; 'I' for Inactive)
REMARK    1  A    between atoms: C_4  and  C_5 
REMARK    2  A    between atoms: C_5  and  C_6 
REMARK    3  A    between atoms: C_6  and  N_7 
REMARK    4  A    between atoms: C_16  and  C_17 
REMARK    5  A    between atoms: C_24  and  C_25 
REMARK    6  A    between atoms: C_24  and  C_29 
ROOT
HETATM    1  N   UNL     1      42.744 -11.733   5.252  1.00  0.00    -0.284 N 
HETATM    2  C   UNL     1      43.366 -11.593   6.492  1.00  0.00     0.331 A 
HETATM    3  O   UNL     1      43.811 -10.536   6.922  1.00  0.00    -0.246 OA
HETATM    4  N   UNL     1      43.466 -12.728   7.236  1.00  0.00    -0.275 N 
HETATM    5  C   UNL     1      43.027 -13.951   6.869  1.00  0.00     0.262 A 
HETATM    6  O   UNL     1      43.164 -14.943   7.565  1.00  0.00    -0.267 OA
HETATM    7  C   UNL     1      42.372 -14.062   5.562  1.00  0.00     0.100 A 
HETATM    8  C   UNL     1      42.284 -12.959   4.803  1.00  0.00     0.128 A 
HETATM    9  N   UNL     1      41.718 -13.055   3.557  1.00  0.00    -0.326 N 
HETATM   10  C   UNL     1      41.265 -14.183   3.056  1.00  0.00     0.138 A 
HETATM   11  N   UNL     1      41.304 -15.308   3.727  1.00  0.00    -0.345 N 
HETATM   12  H   UNL     1      40.951 -16.161   3.290  1.00  0.00     0.163 HD
HETATM   13  C   UNL     1      41.830 -15.418   5.166  1.00  0.00     0.264 A 
HETATM   14  H   UNL     1      43.925 -12.635   8.135  1.00  0.00     0.173 HD
HETATM   15  H   UNL     1      41.644 -12.252   2.937  1.00  0.00     0.169 HD
ENDROOT
BRANCH   1  16
HETATM   16  C   UNL     1      42.623 -10.491   4.475  1.00  0.00     0.140 C 
BRANCH  16  17
HETATM   17  C   UNL     1      41.281  -9.783   4.715  1.00  0.00     0.059 C 
BRANCH  17  18
HETATM   18  C   UNL     1      41.448  -8.344   5.133  1.00  0.00    -0.057 A 
HETATM   19  C   UNL     1      41.367  -7.312   4.184  1.00  0.00     0.007 A 
HETATM   20  C   UNL     1      41.502  -5.978   4.571  1.00  0.00     0.001 A 
HETATM   21  C   UNL     1      41.700  -5.657   5.911  1.00  0.00     0.000 A 
HETATM   22  C   UNL     1      41.761  -6.670   6.865  1.00  0.00     0.001 A 
HETATM   23  C   UNL     1      41.635  -8.007   6.481  1.00  0.00     0.007 A 
ENDBRANCH  17  18
ENDBRANCH  16  17
ENDBRANCH   1  16
BRANCH  13  24
HETATM   24  C   UNL     1      40.649 -15.872   6.031  1.00  0.00     0.426 C 
HETATM   25  F   UNL     1      39.839 -14.803   6.260  1.00  0.00    -0.168 F 
HETATM   26  F   UNL     1      39.899 -16.772   5.349  1.00  0.00    -0.168 F 
HETATM   27  F   UNL     1      40.962 -16.400   7.217  1.00  0.00    -0.168 F 
ENDBRANCH  13  24
BRANCH  13  28
HETATM   28  C   UNL     1      42.840 -16.572   5.177  1.00  0.00     0.426 C 
HETATM   29  F   UNL     1      44.085 -16.089   4.937  1.00  0.00    -0.168 F 
HETATM   30  F   UNL     1      42.880 -17.317   6.284  1.00  0.00    -0.168 F 
HETATM   31  F   UNL     1      42.558 -17.406   4.138  1.00  0.00    -0.168 F 
ENDBRANCH  13  28
BRANCH  10  32
HETATM   32  C   UNL     1      40.718 -14.129   1.716  1.00  0.00     0.118 A 
HETATM   33  O   UNL     1      40.595 -12.952   1.027  1.00  0.00    -0.319 OA
HETATM   34  C   UNL     1      40.043 -13.241  -0.179  1.00  0.00     0.142 A 
HETATM   35  C   UNL     1      39.807 -14.590  -0.285  1.00  0.00     0.027 A 
HETATM   36  C   UNL     1      40.242 -15.167   0.936  1.00  0.00     0.043 A 
ENDBRANCH  10  32
TORSDOF 6
ENDMDL
