MODEL 1
REMARK VINA RESULT:      -8.4      0.000      0.000
REMARK  10 active torsions:
REMARK  status: ('A' for Active; 'I' for Inactive)
REMARK    1  A    between atoms: C_4  and  N_5 
REMARK    2  A    between atoms: N_5  and  C_6 
REMARK    3  A    between atoms: C_6  and  N_7 
REMARK    4  A    between atoms: N_7  and  N_8 
REMARK       I    between atoms: N_8  and  C_9 
REMARK    5  A    between atoms: C_9  and  C_10 
REMARK    6  A    between atoms: C_10  and  O_11 
REMARK    7  A    between atoms: O_11  and  C_12 
REMARK    8  A    between atoms: C_22  and  C_23 
REMARK    9  A    between atoms: C_23  and  O_24 
REMARK   10  A    between atoms: C_27  and  C_28 
ROOT
HETATM    1  N   UNL     1      39.978 -12.895   4.831  1.00  0.00    -0.228 NA
HETATM    2  H   UNL     1      39.101 -13.380   4.998  1.00  0.00     0.136 HD
ENDROOT
BRANCH   1   3
HETATM    3  C   UNL     1      40.965 -13.753   4.367  1.00  0.00     0.073 C 
HETATM    4  S   UNL     1      41.963 -12.981   3.224  1.00  0.00    -0.081 SA
HETATM    5  C   UNL     1      42.761 -14.438   2.835  1.00  0.00    -0.007 C 
HETATM    6  C   UNL     1      43.744 -14.449   1.708  1.00  0.00     0.057 C 
HETATM    7  C   UNL     1      42.367 -15.470   3.677  1.00  0.00     0.005 C 
HETATM    8  C   UNL     1      41.378 -15.041   4.658  1.00  0.00     0.080 C 
BRANCH   7   9
HETATM    9  C   UNL     1      42.889 -16.821   3.492  1.00  0.00    -0.024 A 
HETATM   10  C   UNL     1      43.859 -17.310   4.377  1.00  0.00     0.012 A 
HETATM   11  C   UNL     1      44.363 -18.602   4.221  1.00  0.00     0.001 A 
HETATM   12  C   UNL     1      43.900 -19.411   3.186  1.00  0.00     0.000 A 
HETATM   13  C   UNL     1      42.935 -18.929   2.301  1.00  0.00     0.001 A 
HETATM   14  C   UNL     1      42.433 -17.635   2.449  1.00  0.00     0.012 A 
ENDBRANCH   7   9
BRANCH   8  15
HETATM   15  C   UNL     1      40.898 -15.823   5.798  1.00  0.00     0.296 C 
HETATM   16  O   UNL     1      40.151 -16.788   5.693  1.00  0.00    -0.259 OA
BRANCH  15  17
HETATM   17  O   UNL     1      41.328 -15.336   6.998  1.00  0.00    -0.322 OA
HETATM   18  C   UNL     1      42.572 -15.873   7.446  1.00  0.00     0.213 C 
ENDBRANCH  15  17
ENDBRANCH   8  15
ENDBRANCH   1   3
BRANCH   1  19
HETATM   19  C   UNL     1      40.211 -12.038   5.886  1.00  0.00     0.170 C 
HETATM   20  S   UNL     1      39.015 -10.907   6.233  1.00  0.00    -0.045 SA
BRANCH  19  21
HETATM   21  N   UNL     1      41.358 -12.218   6.617  1.00  0.00    -0.278 N 
HETATM   22  H   UNL     1      41.950 -12.998   6.305  1.00  0.00     0.189 HD
BRANCH  21  23
HETATM   23  N   UNL     1      42.086 -11.107   7.080  1.00  0.00    -0.266 N 
HETATM   24  C   UNL     1      43.404 -11.269   7.462  1.00  0.00     0.260 C 
HETATM   25  O   UNL     1      43.948 -12.363   7.608  1.00  0.00    -0.269 OA
HETATM   26  H   UNL     1      41.765 -10.185   6.786  1.00  0.00     0.190 HD
BRANCH  24  27
HETATM   27  C   UNL     1      44.152  -9.955   7.680  1.00  0.00     0.280 C 
BRANCH  27  28
HETATM   28  O   UNL     1      44.883  -9.983   8.903  1.00  0.00    -0.340 OA
BRANCH  28  29
HETATM   29  C   UNL     1      44.184  -9.791  10.065  1.00  0.00     0.091 A 
HETATM   30  C   UNL     1      43.726  -8.486  10.320  1.00  0.00     0.068 A 
HETATM   31 CL   UNL     1      44.020  -7.201   9.198  1.00  0.00    -0.081 Cl
HETATM   32  C   UNL     1      43.010  -8.191  11.481  1.00  0.00     0.046 A 
HETATM   33  C   UNL     1      42.755  -9.202  12.402  1.00  0.00     0.012 A 
HETATM   34 BR   UNL     1      41.788  -8.816  13.979  1.00  0.00    -0.051 Br
HETATM   35  C   UNL     1      43.211 -10.498  12.171  1.00  0.00     0.022 A 
HETATM   36  C   UNL     1      43.927 -10.793  11.005  1.00  0.00     0.040 A 
ENDBRANCH  28  29
ENDBRANCH  27  28
ENDBRANCH  24  27
ENDBRANCH  21  23
ENDBRANCH  19  21
ENDBRANCH   1  19
TORSDOF 10
ENDMDL
MODEL 2
REMARK VINA RESULT:      -8.4      2.675      3.719
REMARK  10 active torsions:
REMARK  status: ('A' for Active; 'I' for Inactive)
REMARK    1  A    between atoms: C_4  and  N_5 
REMARK    2  A    between atoms: N_5  and  C_6 
REMARK    3  A    between atoms: C_6  and  N_7 
REMARK    4  A    between atoms: N_7  and  N_8 
REMARK       I    between atoms: N_8  and  C_9 
REMARK    5  A    between atoms: C_9  and  C_10 
REMARK    6  A    between atoms: C_10  and  O_11 
REMARK    7  A    between atoms: O_11  and  C_12 
REMARK    8  A    between atoms: C_22  and  C_23 
REMARK    9  A    between atoms: C_23  and  O_24 
REMARK   10  A    between atoms: C_27  and  C_28 
ROOT
HETATM    1  N   UNL     1      41.673  -9.563   5.605  1.00  0.00    -0.228 NA
HETATM    2  H   UNL     1      41.037  -8.839   5.279  1.00  0.00     0.136 HD
ENDROOT
BRANCH   1   3
HETATM    3  C   UNL     1      41.618 -10.697   4.807  1.00  0.00     0.073 C 
HETATM    4  S   UNL     1      40.085 -10.868   4.087  1.00  0.00    -0.081 SA
HETATM    5  C   UNL     1      40.466 -12.418   3.483  1.00  0.00    -0.007 C 
HETATM    6  C   UNL     1      39.395 -13.218   2.810  1.00  0.00     0.057 C 
HETATM    7  C   UNL     1      41.799 -12.733   3.707  1.00  0.00     0.005 C 
HETATM    8  C   UNL     1      42.515 -11.669   4.400  1.00  0.00     0.080 C 
BRANCH   7   9
HETATM    9  C   UNL     1      42.331 -14.036   3.314  1.00  0.00    -0.024 A 
HETATM   10  C   UNL     1      42.244 -15.111   4.209  1.00  0.00     0.012 A 
HETATM   11  C   UNL     1      42.739 -16.365   3.849  1.00  0.00     0.001 A 
HETATM   12  C   UNL     1      43.318 -16.552   2.595  1.00  0.00     0.000 A 
HETATM   13  C   UNL     1      43.409 -15.485   1.701  1.00  0.00     0.001 A 
HETATM   14  C   UNL     1      42.921 -14.227   2.060  1.00  0.00     0.012 A 
ENDBRANCH   7   9
BRANCH   8  15
HETATM   15  C   UNL     1      43.959 -11.602   4.620  1.00  0.00     0.296 C 
HETATM   16  O   UNL     1      44.781 -11.520   3.715  1.00  0.00    -0.259 OA
BRANCH  15  17
HETATM   17  O   UNL     1      44.304 -11.691   5.938  1.00  0.00    -0.322 OA
HETATM   18  C   UNL     1      44.035 -12.958   6.537  1.00  0.00     0.213 C 
ENDBRANCH  15  17
ENDBRANCH   8  15
ENDBRANCH   1   3
BRANCH   1  19
HETATM   19  C   UNL     1      41.576  -9.645   6.977  1.00  0.00     0.170 C 
HETATM   20  S   UNL     1      40.031  -9.604   7.640  1.00  0.00    -0.045 SA
BRANCH  19  21
HETATM   21  N   UNL     1      42.733  -9.830   7.692  1.00  0.00    -0.278 N 
HETATM   22  H   UNL     1      43.507  -9.209   7.426  1.00  0.00     0.189 HD
BRANCH  21  23
HETATM   23  N   UNL     1      42.680 -10.106   9.070  1.00  0.00    -0.266 N 
HETATM   24  C   UNL     1      43.825 -10.517   9.725  1.00  0.00     0.260 C 
HETATM   25  O   UNL     1      44.864 -10.846   9.155  1.00  0.00    -0.269 OA
HETATM   26  H   UNL     1      41.934  -9.662   9.604  1.00  0.00     0.190 HD
BRANCH  24  27
HETATM   27  C   UNL     1      43.699 -10.519  11.248  1.00  0.00     0.280 C 
BRANCH  27  28
HETATM   28  O   UNL     1      42.409 -10.070  11.653  1.00  0.00    -0.340 OA
BRANCH  28  29
HETATM   29  C   UNL     1      42.342  -9.200  12.708  1.00  0.00     0.091 A 
HETATM   30  C   UNL     1      41.235  -9.328  13.566  1.00  0.00     0.068 A 
HETATM   31 CL   UNL     1      40.037 -10.548  13.300  1.00  0.00    -0.081 Cl
HETATM   32  C   UNL     1      41.076  -8.482  14.664  1.00  0.00     0.046 A 
HETATM   33  C   UNL     1      42.023  -7.493  14.907  1.00  0.00     0.012 A 
HETATM   34 BR   UNL     1      41.820  -6.340  16.391  1.00  0.00    -0.051 Br
HETATM   35  C   UNL     1      43.120  -7.343  14.061  1.00  0.00     0.022 A 
HETATM   36  C   UNL     1      43.279  -8.194  12.961  1.00  0.00     0.040 A 
ENDBRANCH  28  29
ENDBRANCH  27  28
ENDBRANCH  24  27
ENDBRANCH  21  23
ENDBRANCH  19  21
ENDBRANCH   1  19
TORSDOF 10
ENDMDL
MODEL 3
REMARK VINA RESULT:      -8.4      2.327      3.121
REMARK  10 active torsions:
REMARK  status: ('A' for Active; 'I' for Inactive)
REMARK    1  A    between atoms: C_4  and  N_5 
REMARK    2  A    between atoms: N_5  and  C_6 
REMARK    3  A    between atoms: C_6  and  N_7 
REMARK    4  A    between atoms: N_7  and  N_8 
REMARK       I    between atoms: N_8  and  C_9 
REMARK    5  A    between atoms: C_9  and  C_10 
REMARK    6  A    between atoms: C_10  and  O_11 
REMARK    7  A    between atoms: O_11  and  C_12 
REMARK    8  A    between atoms: C_22  and  C_23 
REMARK    9  A    between atoms: C_23  and  O_24 
REMARK   10  A    between atoms: C_27  and  C_28 
ROOT
HETATM    1  N   UNL     1      41.401 -11.935   4.132  1.00  0.00    -0.228 NA
HETATM    2  H   UNL     1      40.473 -11.616   4.399  1.00  0.00     0.136 HD
ENDROOT
BRANCH   1   3
HETATM    3  C   UNL     1      41.509 -13.318   4.189  1.00  0.00     0.073 C 
HETATM    4  S   UNL     1      40.653 -13.947   5.519  1.00  0.00    -0.081 SA
HETATM    5  C   UNL     1      41.286 -15.513   5.273  1.00  0.00    -0.007 C 
HETATM    6  C   UNL     1      40.988 -16.582   6.275  1.00  0.00     0.057 C 
HETATM    7  C   UNL     1      42.025 -15.579   4.099  1.00  0.00     0.005 C 
HETATM    8  C   UNL     1      42.072 -14.303   3.397  1.00  0.00     0.080 C 
BRANCH   7   9
HETATM    9  C   UNL     1      42.701 -16.816   3.715  1.00  0.00    -0.024 A 
HETATM   10  C   UNL     1      43.737 -17.311   4.519  1.00  0.00     0.012 A 
HETATM   11  C   UNL     1      44.389 -18.495   4.173  1.00  0.00     0.001 A 
HETATM   12  C   UNL     1      44.007 -19.192   3.028  1.00  0.00     0.000 A 
HETATM   13  C   UNL     1      42.977 -18.704   2.224  1.00  0.00     0.001 A 
HETATM   14  C   UNL     1      42.327 -17.516   2.563  1.00  0.00     0.012 A 
ENDBRANCH   7   9
BRANCH   8  15
HETATM   15  C   UNL     1      42.603 -14.077   2.053  1.00  0.00     0.296 C 
HETATM   16  O   UNL     1      43.754 -14.338   1.725  1.00  0.00    -0.259 OA
BRANCH  15  17
HETATM   17  O   UNL     1      41.698 -13.496   1.211  1.00  0.00    -0.322 OA
HETATM   18  C   UNL     1      40.795 -14.409   0.590  1.00  0.00     0.213 C 
ENDBRANCH  15  17
ENDBRANCH   8  15
ENDBRANCH   1   3
BRANCH   1  19
HETATM   19  C   UNL     1      42.333 -11.117   4.733  1.00  0.00     0.170 C 
HETATM   20  S   UNL     1      41.842  -9.560   5.133  1.00  0.00    -0.045 SA
BRANCH  19  21
HETATM   21  N   UNL     1      43.562 -11.654   5.028  1.00  0.00    -0.278 N 
HETATM   22  H   UNL     1      44.038 -12.101   4.235  1.00  0.00     0.189 HD
BRANCH  21  23
HETATM   23  N   UNL     1      44.435 -10.988   5.908  1.00  0.00    -0.266 N 
HETATM   24  C   UNL     1      44.633 -11.493   7.179  1.00  0.00     0.260 C 
HETATM   25  O   UNL     1      43.954 -12.389   7.677  1.00  0.00    -0.269 OA
HETATM   26  H   UNL     1      45.152 -10.396   5.491  1.00  0.00     0.190 HD
BRANCH  24  27
HETATM   27  C   UNL     1      45.796 -10.843   7.928  1.00  0.00     0.280 C 
BRANCH  27  28
HETATM   28  O   UNL     1      45.453 -10.601   9.289  1.00  0.00    -0.340 OA
BRANCH  28  29
HETATM   29  C   UNL     1      44.698  -9.493   9.566  1.00  0.00     0.091 A 
HETATM   30  C   UNL     1      43.872  -9.556  10.703  1.00  0.00     0.068 A 
HETATM   31 CL   UNL     1      43.841 -10.967  11.705  1.00  0.00    -0.081 Cl
HETATM   32  C   UNL     1      43.062  -8.479  11.063  1.00  0.00     0.046 A 
HETATM   33  C   UNL     1      43.067  -7.329  10.279  1.00  0.00     0.012 A 
HETATM   34 BR   UNL     1      41.974  -5.862  10.754  1.00  0.00    -0.051 Br
HETATM   35  C   UNL     1      43.870  -7.252   9.143  1.00  0.00     0.022 A 
HETATM   36  C   UNL     1      44.683  -8.333   8.785  1.00  0.00     0.040 A 
ENDBRANCH  28  29
ENDBRANCH  27  28
ENDBRANCH  24  27
ENDBRANCH  21  23
ENDBRANCH  19  21
ENDBRANCH   1  19
TORSDOF 10
ENDMDL
MODEL 4
REMARK VINA RESULT:      -8.3      3.912     10.057
REMARK  10 active torsions:
REMARK  status: ('A' for Active; 'I' for Inactive)
REMARK    1  A    between atoms: C_4  and  N_5 
REMARK    2  A    between atoms: N_5  and  C_6 
REMARK    3  A    between atoms: C_6  and  N_7 
REMARK    4  A    between atoms: N_7  and  N_8 
REMARK       I    between atoms: N_8  and  C_9 
REMARK    5  A    between atoms: C_9  and  C_10 
REMARK    6  A    between atoms: C_10  and  O_11 
REMARK    7  A    between atoms: O_11  and  C_12 
REMARK    8  A    between atoms: C_22  and  C_23 
REMARK    9  A    between atoms: C_23  and  O_24 
REMARK   10  A    between atoms: C_27  and  C_28 
ROOT
HETATM    1  N   UNL     1      42.774  -9.660   7.218  1.00  0.00    -0.228 NA
HETATM    2  H   UNL     1      43.641  -9.168   7.019  1.00  0.00     0.136 HD
ENDROOT
BRANCH   1   3
HETATM    3  C   UNL     1      42.273  -9.339   8.472  1.00  0.00     0.073 C 
HETATM    4  S   UNL     1      40.656  -8.814   8.372  1.00  0.00    -0.081 SA
HETATM    5  C   UNL     1      40.634  -8.349  10.014  1.00  0.00    -0.007 C 
HETATM    6  C   UNL     1      39.433  -7.636  10.550  1.00  0.00     0.057 C 
HETATM    7  C   UNL     1      41.801  -8.729  10.662  1.00  0.00     0.005 C 
HETATM    8  C   UNL     1      42.734  -9.412   9.774  1.00  0.00     0.080 C 
BRANCH   7   9
HETATM    9  C   UNL     1      42.018  -8.388  12.065  1.00  0.00    -0.024 A 
HETATM   10  C   UNL     1      41.545  -9.251  13.063  1.00  0.00     0.012 A 
HETATM   11  C   UNL     1      41.749  -8.946  14.410  1.00  0.00     0.001 A 
HETATM   12  C   UNL     1      42.429  -7.782  14.765  1.00  0.00     0.000 A 
HETATM   13  C   UNL     1      42.900  -6.919  13.776  1.00  0.00     0.001 A 
HETATM   14  C   UNL     1      42.692  -7.217  12.428  1.00  0.00     0.012 A 
ENDBRANCH   7   9
BRANCH   8  15
HETATM   15  C   UNL     1      43.962 -10.100  10.176  1.00  0.00     0.296 C 
HETATM   16  O   UNL     1      44.012 -11.293  10.453  1.00  0.00    -0.259 OA
BRANCH  15  17
HETATM   17  O   UNL     1      45.038  -9.265  10.262  1.00  0.00    -0.322 OA
HETATM   18  C   UNL     1      45.893  -9.281   9.120  1.00  0.00     0.213 C 
ENDBRANCH  15  17
ENDBRANCH   8  15
ENDBRANCH   1   3
BRANCH   1  19
HETATM   19  C   UNL     1      42.913 -10.971   6.816  1.00  0.00     0.170 C 
HETATM   20  S   UNL     1      44.477 -11.529   6.551  1.00  0.00    -0.045 SA
BRANCH  19  21
HETATM   21  N   UNL     1      41.779 -11.741   6.735  1.00  0.00    -0.278 N 
HETATM   22  H   UNL     1      40.962 -11.263   6.336  1.00  0.00     0.189 HD
BRANCH  21  23
HETATM   23  N   UNL     1      41.868 -13.100   6.380  1.00  0.00    -0.266 N 
HETATM   24  C   UNL     1      40.712 -13.812   6.127  1.00  0.00     0.260 C 
HETATM   25  O   UNL     1      39.580 -13.396   6.371  1.00  0.00    -0.269 OA
HETATM   26  H   UNL     1      42.746 -13.416   5.971  1.00  0.00     0.190 HD
BRANCH  24  27
HETATM   27  C   UNL     1      40.955 -15.181   5.493  1.00  0.00     0.280 C 
BRANCH  27  28
HETATM   28  O   UNL     1      42.270 -15.265   4.952  1.00  0.00    -0.340 OA
BRANCH  28  29
HETATM   29  C   UNL     1      42.583 -16.375   4.214  1.00  0.00     0.091 A 
HETATM   30  C   UNL     1      43.605 -17.202   4.714  1.00  0.00     0.068 A 
HETATM   31 CL   UNL     1      44.403 -16.830   6.205  1.00  0.00    -0.081 Cl
HETATM   32  C   UNL     1      43.999 -18.351   4.028  1.00  0.00     0.046 A 
HETATM   33  C   UNL     1      43.376 -18.678   2.829  1.00  0.00     0.012 A 
HETATM   34 BR   UNL     1      43.899 -20.232   1.890  1.00  0.00    -0.051 Br
HETATM   35  C   UNL     1      42.369 -17.866   2.312  1.00  0.00     0.022 A 
HETATM   36  C   UNL     1      41.974 -16.714   3.002  1.00  0.00     0.040 A 
ENDBRANCH  28  29
ENDBRANCH  27  28
ENDBRANCH  24  27
ENDBRANCH  21  23
ENDBRANCH  19  21
ENDBRANCH   1  19
TORSDOF 10
ENDMDL
MODEL 5
REMARK VINA RESULT:      -8.3      2.408      3.524
REMARK  10 active torsions:
REMARK  status: ('A' for Active; 'I' for Inactive)
REMARK    1  A    between atoms: C_4  and  N_5 
REMARK    2  A    between atoms: N_5  and  C_6 
REMARK    3  A    between atoms: C_6  and  N_7 
REMARK    4  A    between atoms: N_7  and  N_8 
REMARK       I    between atoms: N_8  and  C_9 
REMARK    5  A    between atoms: C_9  and  C_10 
REMARK    6  A    between atoms: C_10  and  O_11 
REMARK    7  A    between atoms: O_11  and  C_12 
REMARK    8  A    between atoms: C_22  and  C_23 
REMARK    9  A    between atoms: C_23  and  O_24 
REMARK   10  A    between atoms: C_27  and  C_28 
ROOT
HETATM    1  N   UNL     1      41.443 -11.084   5.221  1.00  0.00    -0.228 NA
HETATM    2  H   UNL     1      40.564 -10.669   4.923  1.00  0.00     0.136 HD
ENDROOT
BRANCH   1   3
HETATM    3  C   UNL     1      41.452 -12.461   5.045  1.00  0.00     0.073 C 
HETATM    4  S   UNL     1      40.255 -13.210   5.995  1.00  0.00    -0.081 SA
HETATM    5  C   UNL     1      40.835 -14.770   5.619  1.00  0.00    -0.007 C 
HETATM    6  C   UNL     1      40.233 -15.954   6.307  1.00  0.00     0.057 C 
HETATM    7  C   UNL     1      41.840 -14.717   4.662  1.00  0.00     0.005 C 
HETATM    8  C   UNL     1      42.137 -13.354   4.240  1.00  0.00     0.080 C 
BRANCH   7   9
HETATM    9  C   UNL     1      42.516 -15.937   4.226  1.00  0.00    -0.024 A 
HETATM   10  C   UNL     1      42.096 -16.572   3.049  1.00  0.00     0.012 A 
HETATM   11  C   UNL     1      42.736 -17.733   2.613  1.00  0.00     0.001 A 
HETATM   12  C   UNL     1      43.797 -18.261   3.345  1.00  0.00     0.000 A 
HETATM   13  C   UNL     1      44.218 -17.634   4.518  1.00  0.00     0.001 A 
HETATM   14  C   UNL     1      43.577 -16.476   4.962  1.00  0.00     0.012 A 
ENDBRANCH   7   9
BRANCH   8  15
HETATM   15  C   UNL     1      43.000 -12.965   3.125  1.00  0.00     0.296 C 
HETATM   16  O   UNL     1      43.952 -12.201   3.237  1.00  0.00    -0.259 OA
BRANCH  15  17
HETATM   17  O   UNL     1      42.607 -13.500   1.933  1.00  0.00    -0.322 OA
HETATM   18  C   UNL     1      41.424 -12.921   1.383  1.00  0.00     0.213 C 
ENDBRANCH  15  17
ENDBRANCH   8  15
ENDBRANCH   1   3
BRANCH   1  19
HETATM   19  C   UNL     1      41.812 -10.512   6.420  1.00  0.00     0.170 C 
HETATM   20  S   UNL     1      40.664  -9.566   7.203  1.00  0.00    -0.045 SA
BRANCH  19  21
HETATM   21  N   UNL     1      43.054 -10.816   6.920  1.00  0.00    -0.278 N 
HETATM   22  H   UNL     1      43.828 -10.279   6.507  1.00  0.00     0.189 HD
BRANCH  21  23
HETATM   23  N   UNL     1      43.221 -11.084   8.291  1.00  0.00    -0.266 N 
HETATM   24  C   UNL     1      43.729 -10.100   9.118  1.00  0.00     0.260 C 
HETATM   25  O   UNL     1      44.231  -9.052   8.713  1.00  0.00    -0.269 OA
HETATM   26  H   UNL     1      42.646 -11.823   8.693  1.00  0.00     0.190 HD
BRANCH  24  27
HETATM   27  C   UNL     1      43.604 -10.419  10.607  1.00  0.00     0.280 C 
BRANCH  27  28
HETATM   28  O   UNL     1      42.348  -9.981  11.118  1.00  0.00    -0.340 OA
BRANCH  28  29
HETATM   29  C   UNL     1      42.355  -9.227  12.261  1.00  0.00     0.091 A 
HETATM   30  C   UNL     1      41.301  -9.441  13.167  1.00  0.00     0.068 A 
HETATM   31 CL   UNL     1      40.076 -10.620  12.848  1.00  0.00    -0.081 Cl
HETATM   32  C   UNL     1      41.219  -8.715  14.357  1.00  0.00     0.046 A 
HETATM   33  C   UNL     1      42.191  -7.762  14.643  1.00  0.00     0.012 A 
HETATM   34 BR   UNL     1      42.092  -6.772  16.250  1.00  0.00    -0.051 Br
HETATM   35  C   UNL     1      43.236  -7.529  13.752  1.00  0.00     0.022 A 
HETATM   36  C   UNL     1      43.318  -8.258  12.560  1.00  0.00     0.040 A 
ENDBRANCH  28  29
ENDBRANCH  27  28
ENDBRANCH  24  27
ENDBRANCH  21  23
ENDBRANCH  19  21
ENDBRANCH   1  19
TORSDOF 10
ENDMDL
MODEL 6
REMARK VINA RESULT:      -8.3      2.199      3.246
REMARK  10 active torsions:
REMARK  status: ('A' for Active; 'I' for Inactive)
REMARK    1  A    between atoms: C_4  and  N_5 
REMARK    2  A    between atoms: N_5  and  C_6 
REMARK    3  A    between atoms: C_6  and  N_7 
REMARK    4  A    between atoms: N_7  and  N_8 
REMARK       I    between atoms: N_8  and  C_9 
REMARK    5  A    between atoms: C_9  and  C_10 
REMARK    6  A    between atoms: C_10  and  O_11 
REMARK    7  A    between atoms: O_11  and  C_12 
REMARK    8  A    between atoms: C_22  and  C_23 
REMARK    9  A    between atoms: C_23  and  O_24 
REMARK   10  A    between atoms: C_27  and  C_28 
ROOT
HETATM    1  N   UNL     1      40.479 -11.398   6.746  1.00  0.00    -0.228 NA
HETATM    2  H   UNL     1      40.613 -11.948   7.591  1.00  0.00     0.136 HD
ENDROOT
BRANCH   1   3
HETATM    3  C   UNL     1      40.752 -12.133   5.600  1.00  0.00     0.073 C 
HETATM    4  S   UNL     1      39.701 -11.705   4.332  1.00  0.00    -0.081 SA
HETATM    5  C   UNL     1      40.263 -12.979   3.345  1.00  0.00    -0.007 C 
HETATM    6  C   UNL     1      39.583 -13.239   2.038  1.00  0.00     0.057 C 
HETATM    7  C   UNL     1      41.344 -13.628   3.927  1.00  0.00     0.005 C 
HETATM    8  C   UNL     1      41.705 -13.060   5.220  1.00  0.00     0.080 C 
BRANCH   7   9
HETATM    9  C   UNL     1      41.954 -14.785   3.276  1.00  0.00    -0.024 A 
HETATM   10  C   UNL     1      42.958 -14.585   2.319  1.00  0.00     0.012 A 
HETATM   11  C   UNL     1      43.559 -15.678   1.693  1.00  0.00     0.001 A 
HETATM   12  C   UNL     1      43.164 -16.973   2.022  1.00  0.00     0.000 A 
HETATM   13  C   UNL     1      42.164 -17.179   2.973  1.00  0.00     0.001 A 
HETATM   14  C   UNL     1      41.556 -16.088   3.597  1.00  0.00     0.012 A 
ENDBRANCH   7   9
BRANCH   8  15
HETATM   15  C   UNL     1      42.899 -13.384   6.001  1.00  0.00     0.296 C 
HETATM   16  O   UNL     1      43.880 -12.653   6.077  1.00  0.00    -0.259 OA
BRANCH  15  17
HETATM   17  O   UNL     1      42.831 -14.610   6.598  1.00  0.00    -0.322 OA
HETATM   18  C   UNL     1      43.960 -15.449   6.361  1.00  0.00     0.213 C 
ENDBRANCH  15  17
ENDBRANCH   8  15
ENDBRANCH   1   3
BRANCH   1  19
HETATM   19  C   UNL     1      41.030 -10.150   6.946  1.00  0.00     0.170 C 
HETATM   20  S   UNL     1      39.969  -8.848   7.019  1.00  0.00    -0.045 SA
BRANCH  19  21
HETATM   21  N   UNL     1      42.386 -10.072   7.146  1.00  0.00    -0.278 N 
HETATM   22  H   UNL     1      42.836  -9.249   6.725  1.00  0.00     0.189 HD
BRANCH  21  23
HETATM   23  N   UNL     1      42.944 -10.452   8.379  1.00  0.00    -0.266 N 
HETATM   24  C   UNL     1      43.199  -9.488   9.336  1.00  0.00     0.260 C 
HETATM   25  O   UNL     1      43.148  -8.277   9.123  1.00  0.00    -0.269 OA
HETATM   26  H   UNL     1      42.808 -11.419   8.672  1.00  0.00     0.190 HD
BRANCH  24  27
HETATM   27  C   UNL     1      43.543 -10.057  10.711  1.00  0.00     0.280 C 
BRANCH  27  28
HETATM   28  O   UNL     1      42.388 -10.108  11.545  1.00  0.00    -0.340 OA
BRANCH  28  29
HETATM   29  C   UNL     1      42.335  -9.248  12.609  1.00  0.00     0.091 A 
HETATM   30  C   UNL     1      41.222  -9.364  13.462  1.00  0.00     0.068 A 
HETATM   31 CL   UNL     1      40.001 -10.556  13.177  1.00  0.00    -0.081 Cl
HETATM   32  C   UNL     1      41.076  -8.527  14.569  1.00  0.00     0.046 A 
HETATM   33  C   UNL     1      42.042  -7.560  14.826  1.00  0.00     0.012 A 
HETATM   34 BR   UNL     1      41.857  -6.420  16.322  1.00  0.00    -0.051 Br
HETATM   35  C   UNL     1      43.146  -7.423  13.986  1.00  0.00     0.022 A 
HETATM   36  C   UNL     1      43.291  -8.265  12.877  1.00  0.00     0.040 A 
ENDBRANCH  28  29
ENDBRANCH  27  28
ENDBRANCH  24  27
ENDBRANCH  21  23
ENDBRANCH  19  21
ENDBRANCH   1  19
TORSDOF 10
ENDMDL
MODEL 7
REMARK VINA RESULT:      -8.3      2.734      4.112
REMARK  10 active torsions:
REMARK  status: ('A' for Active; 'I' for Inactive)
REMARK    1  A    between atoms: C_4  and  N_5 
REMARK    2  A    between atoms: N_5  and  C_6 
REMARK    3  A    between atoms: C_6  and  N_7 
REMARK    4  A    between atoms: N_7  and  N_8 
REMARK       I    between atoms: N_8  and  C_9 
REMARK    5  A    between atoms: C_9  and  C_10 
REMARK    6  A    between atoms: C_10  and  O_11 
REMARK    7  A    between atoms: O_11  and  C_12 
REMARK    8  A    between atoms: C_22  and  C_23 
REMARK    9  A    between atoms: C_23  and  O_24 
REMARK   10  A    between atoms: C_27  and  C_28 
ROOT
HETATM    1  N   UNL     1      43.543 -12.938   7.563  1.00  0.00    -0.228 NA
HETATM    2  H   UNL     1      44.173 -13.437   8.186  1.00  0.00     0.136 HD
ENDROOT
BRANCH   1   3
HETATM    3  C   UNL     1      43.095 -13.744   6.525  1.00  0.00     0.073 C 
HETATM    4  S   UNL     1      43.899 -15.244   6.521  1.00  0.00    -0.081 SA
HETATM    5  C   UNL     1      43.209 -15.687   5.025  1.00  0.00    -0.007 C 
HETATM    6  C   UNL     1      43.658 -16.952   4.364  1.00  0.00     0.057 C 
HETATM    7  C   UNL     1      42.263 -14.759   4.611  1.00  0.00     0.005 C 
HETATM    8  C   UNL     1      42.116 -13.655   5.552  1.00  0.00     0.080 C 
BRANCH   7   9
HETATM    9  C   UNL     1      41.581 -14.914   3.328  1.00  0.00    -0.024 A 
HETATM   10  C   UNL     1      40.426 -15.706   3.256  1.00  0.00     0.012 A 
HETATM   11  C   UNL     1      39.756 -15.859   2.042  1.00  0.00     0.001 A 
HETATM   12  C   UNL     1      40.231 -15.220   0.898  1.00  0.00     0.000 A 
HETATM   13  C   UNL     1      41.380 -14.432   0.964  1.00  0.00     0.001 A 
HETATM   14  C   UNL     1      42.058 -14.281   2.175  1.00  0.00     0.012 A 
ENDBRANCH   7   9
BRANCH   8  15
HETATM   15  C   UNL     1      41.085 -12.618   5.511  1.00  0.00     0.296 C 
HETATM   16  O   UNL     1      40.091 -12.621   6.226  1.00  0.00    -0.259 OA
BRANCH  15  17
HETATM   17  O   UNL     1      41.318 -11.671   4.557  1.00  0.00    -0.322 OA
HETATM   18  C   UNL     1      40.165 -10.925   4.167  1.00  0.00     0.213 C 
ENDBRANCH  15  17
ENDBRANCH   8  15
ENDBRANCH   1   3
BRANCH   1  19
HETATM   19  C   UNL     1      44.066 -11.685   7.325  1.00  0.00     0.170 C 
HETATM   20  S   UNL     1      45.228 -11.557   6.117  1.00  0.00    -0.045 SA
BRANCH  19  21
HETATM   21  N   UNL     1      43.549 -10.629   8.033  1.00  0.00    -0.278 N 
HETATM   22  H   UNL     1      42.904 -10.030   7.504  1.00  0.00     0.189 HD
BRANCH  21  23
HETATM   23  N   UNL     1      43.190 -10.789   9.384  1.00  0.00    -0.266 N 
HETATM   24  C   UNL     1      44.164 -10.703  10.360  1.00  0.00     0.260 C 
HETATM   25  O   UNL     1      45.372 -10.682  10.127  1.00  0.00    -0.269 OA
HETATM   26  H   UNL     1      42.220 -10.600   9.633  1.00  0.00     0.190 HD
BRANCH  24  27
HETATM   27  C   UNL     1      43.610 -10.622  11.782  1.00  0.00     0.280 C 
BRANCH  27  28
HETATM   28  O   UNL     1      42.475  -9.762  11.837  1.00  0.00    -0.340 OA
BRANCH  28  29
HETATM   29  C   UNL     1      42.367  -8.923  12.914  1.00  0.00     0.091 A 
HETATM   30  C   UNL     1      41.234  -9.086  13.732  1.00  0.00     0.068 A 
HETATM   31 CL   UNL     1      40.057 -10.308  13.393  1.00  0.00    -0.081 Cl
HETATM   32  C   UNL     1      41.032  -8.273  14.849  1.00  0.00     0.046 A 
HETATM   33  C   UNL     1      41.962  -7.283  15.149  1.00  0.00     0.012 A 
HETATM   34 BR   UNL     1      41.701  -6.174  16.658  1.00  0.00    -0.051 Br
HETATM   35  C   UNL     1      43.084  -7.099  14.344  1.00  0.00     0.022 A 
HETATM   36  C   UNL     1      43.285  -7.916  13.225  1.00  0.00     0.040 A 
ENDBRANCH  28  29
ENDBRANCH  27  28
ENDBRANCH  24  27
ENDBRANCH  21  23
ENDBRANCH  19  21
ENDBRANCH   1  19
TORSDOF 10
ENDMDL
MODEL 8
REMARK VINA RESULT:      -8.1      4.112      9.665
REMARK  10 active torsions:
REMARK  status: ('A' for Active; 'I' for Inactive)
REMARK    1  A    between atoms: C_4  and  N_5 
REMARK    2  A    between atoms: N_5  and  C_6 
REMARK    3  A    between atoms: C_6  and  N_7 
REMARK    4  A    between atoms: N_7  and  N_8 
REMARK       I    between atoms: N_8  and  C_9 
REMARK    5  A    between atoms: C_9  and  C_10 
REMARK    6  A    between atoms: C_10  and  O_11 
REMARK    7  A    between atoms: O_11  and  C_12 
REMARK    8  A    between atoms: C_22  and  C_23 
REMARK    9  A    between atoms: C_23  and  O_24 
REMARK   10  A    between atoms: C_27  and  C_28 
ROOT
HETATM    1  N   UNL     1      41.924  -9.146   6.639  1.00  0.00    -0.228 NA
HETATM    2  H   UNL     1      42.672  -9.179   5.951  1.00  0.00     0.136 HD
ENDROOT
BRANCH   1   3
HETATM    3  C   UNL     1      42.414  -9.059   7.934  1.00  0.00     0.073 C 
HETATM    4  S   UNL     1      44.013  -9.638   8.026  1.00  0.00    -0.081 SA
HETATM    5  C   UNL     1      44.020  -9.547   9.730  1.00  0.00    -0.007 C 
HETATM    6  C   UNL     1      45.198 -10.083  10.481  1.00  0.00     0.057 C 
HETATM    7  C   UNL     1      42.866  -8.942  10.208  1.00  0.00     0.005 C 
HETATM    8  C   UNL     1      41.955  -8.555   9.138  1.00  0.00     0.080 C 
BRANCH   7   9
HETATM    9  C   UNL     1      42.639  -8.804  11.644  1.00  0.00    -0.024 A 
HETATM   10  C   UNL     1      43.270  -7.766  12.343  1.00  0.00     0.012 A 
HETATM   11  C   UNL     1      43.059  -7.613  13.714  1.00  0.00     0.001 A 
HETATM   12  C   UNL     1      42.214  -8.491  14.391  1.00  0.00     0.000 A 
HETATM   13  C   UNL     1      41.584  -9.526  13.701  1.00  0.00     0.001 A 
HETATM   14  C   UNL     1      41.798  -9.687  12.331  1.00  0.00     0.012 A 
ENDBRANCH   7   9
BRANCH   8  15
HETATM   15  C   UNL     1      40.751  -7.737   9.283  1.00  0.00     0.296 C 
HETATM   16  O   UNL     1      40.744  -6.623   9.794  1.00  0.00    -0.259 OA
BRANCH  15  17
HETATM   17  O   UNL     1      39.623  -8.363   8.837  1.00  0.00    -0.322 OA
HETATM   18  C   UNL     1      39.198  -9.464   9.640  1.00  0.00     0.213 C 
ENDBRANCH  15  17
ENDBRANCH   8  15
ENDBRANCH   1   3
BRANCH   1  19
HETATM   19  C   UNL     1      40.971 -10.081   6.293  1.00  0.00     0.170 C 
HETATM   20  S   UNL     1      39.626  -9.529   5.449  1.00  0.00    -0.045 SA
BRANCH  19  21
HETATM   21  N   UNL     1      41.225 -11.396   6.595  1.00  0.00    -0.278 N 
HETATM   22  H   UNL     1      40.709 -11.759   7.406  1.00  0.00     0.189 HD
BRANCH  21  23
HETATM   23  N   UNL     1      41.395 -12.340   5.566  1.00  0.00    -0.266 N 
HETATM   24  C   UNL     1      42.604 -12.409   4.901  1.00  0.00     0.260 C 
HETATM   25  O   UNL     1      43.499 -11.573   5.012  1.00  0.00    -0.269 OA
HETATM   26  H   UNL     1      40.790 -13.160   5.583  1.00  0.00     0.190 HD
BRANCH  24  27
HETATM   27  C   UNL     1      42.749 -13.640   4.008  1.00  0.00     0.280 C 
BRANCH  27  28
HETATM   28  O   UNL     1      43.138 -14.779   4.770  1.00  0.00    -0.340 OA
BRANCH  28  29
HETATM   29  C   UNL     1      43.212 -15.983   4.122  1.00  0.00     0.091 A 
HETATM   30  C   UNL     1      43.931 -17.007   4.764  1.00  0.00     0.068 A 
HETATM   31 CL   UNL     1      44.663 -16.747   6.311  1.00  0.00    -0.081 Cl
HETATM   32  C   UNL     1      44.067 -18.266   4.178  1.00  0.00     0.046 A 
HETATM   33  C   UNL     1      43.488 -18.507   2.937  1.00  0.00     0.012 A 
HETATM   34 BR   UNL     1      43.664 -20.208   2.131  1.00  0.00    -0.051 Br
HETATM   35  C   UNL     1      42.781 -17.502   2.280  1.00  0.00     0.022 A 
HETATM   36  C   UNL     1      42.645 -16.240   2.870  1.00  0.00     0.040 A 
ENDBRANCH  28  29
ENDBRANCH  27  28
ENDBRANCH  24  27
ENDBRANCH  21  23
ENDBRANCH  19  21
ENDBRANCH   1  19
TORSDOF 10
ENDMDL
MODEL 9
REMARK VINA RESULT:      -8.0      3.912      9.688
REMARK  10 active torsions:
REMARK  status: ('A' for Active; 'I' for Inactive)
REMARK    1  A    between atoms: C_4  and  N_5 
REMARK    2  A    between atoms: N_5  and  C_6 
REMARK    3  A    between atoms: C_6  and  N_7 
REMARK    4  A    between atoms: N_7  and  N_8 
REMARK       I    between atoms: N_8  and  C_9 
REMARK    5  A    between atoms: C_9  and  C_10 
REMARK    6  A    between atoms: C_10  and  O_11 
REMARK    7  A    between atoms: O_11  and  C_12 
REMARK    8  A    between atoms: C_22  and  C_23 
REMARK    9  A    between atoms: C_23  and  O_24 
REMARK   10  A    between atoms: C_27  and  C_28 
ROOT
HETATM    1  N   UNL     1      42.030  -9.556   6.409  1.00  0.00    -0.228 NA
HETATM    2  H   UNL     1      43.028  -9.469   6.236  1.00  0.00     0.136 HD
ENDROOT
BRANCH   1   3
HETATM    3  C   UNL     1      41.713  -9.326   7.741  1.00  0.00     0.073 C 
HETATM    4  S   UNL     1      40.075  -8.897   7.917  1.00  0.00    -0.081 SA
HETATM    5  C   UNL     1      40.283  -8.513   9.567  1.00  0.00    -0.007 C 
HETATM    6  C   UNL     1      39.144  -7.902  10.320  1.00  0.00     0.057 C 
HETATM    7  C   UNL     1      41.556  -8.851  10.007  1.00  0.00     0.005 C 
HETATM    8  C   UNL     1      42.375  -9.433   8.951  1.00  0.00     0.080 C 
BRANCH   7   9
HETATM    9  C   UNL     1      41.969  -8.564  11.379  1.00  0.00    -0.024 A 
HETATM   10  C   UNL     1      42.424  -7.279  11.704  1.00  0.00     0.012 A 
HETATM   11  C   UNL     1      42.815  -6.984  13.011  1.00  0.00     0.001 A 
HETATM   12  C   UNL     1      42.750  -7.967  13.997  1.00  0.00     0.000 A 
HETATM   13  C   UNL     1      42.298  -9.247  13.679  1.00  0.00     0.001 A 
HETATM   14  C   UNL     1      41.912  -9.549  12.371  1.00  0.00     0.012 A 
ENDBRANCH   7   9
BRANCH   8  15
HETATM   15  C   UNL     1      43.684 -10.062   9.122  1.00  0.00     0.296 C 
HETATM   16  O   UNL     1      43.876 -11.268   9.023  1.00  0.00    -0.259 OA
BRANCH  15  17
HETATM   17  O   UNL     1      44.665  -9.173   9.454  1.00  0.00    -0.322 OA
HETATM   18  C   UNL     1      45.713  -9.059   8.492  1.00  0.00     0.213 C 
ENDBRANCH  15  17
ENDBRANCH   8  15
ENDBRANCH   1   3
BRANCH   1  19
HETATM   19  C   UNL     1      41.565 -10.670   5.743  1.00  0.00     0.170 C 
HETATM   20  S   UNL     1      41.598 -10.627   4.062  1.00  0.00    -0.045 SA
BRANCH  19  21
HETATM   21  N   UNL     1      41.185 -11.754   6.494  1.00  0.00    -0.278 N 
HETATM   22  H   UNL     1      40.205 -12.039   6.373  1.00  0.00     0.189 HD
BRANCH  21  23
HETATM   23  N   UNL     1      42.068 -12.832   6.682  1.00  0.00    -0.266 N 
HETATM   24  C   UNL     1      41.771 -14.060   6.122  1.00  0.00     0.260 C 
HETATM   25  O   UNL     1      40.684 -14.340   5.618  1.00  0.00    -0.269 OA
HETATM   26  H   UNL     1      43.039 -12.605   6.896  1.00  0.00     0.190 HD
BRANCH  24  27
HETATM   27  C   UNL     1      42.927 -15.057   6.167  1.00  0.00     0.280 C 
BRANCH  27  28
HETATM   28  O   UNL     1      43.574 -15.144   4.900  1.00  0.00    -0.340 OA
BRANCH  28  29
HETATM   29  C   UNL     1      43.623 -16.371   4.295  1.00  0.00     0.091 A 
HETATM   30  C   UNL     1      43.256 -16.424   2.938  1.00  0.00     0.068 A 
HETATM   31 CL   UNL     1      42.789 -14.992   2.085  1.00  0.00    -0.081 Cl
HETATM   32  C   UNL     1      43.267 -17.630   2.238  1.00  0.00     0.046 A 
HETATM   33  C   UNL     1      43.640 -18.798   2.895  1.00  0.00     0.012 A 
HETATM   34 BR   UNL     1      43.660 -20.439   1.958  1.00  0.00    -0.051 Br
HETATM   35  C   UNL     1      43.997 -18.767   4.242  1.00  0.00     0.022 A 
HETATM   36  C   UNL     1      43.986 -17.556   4.942  1.00  0.00     0.040 A 
ENDBRANCH  28  29
ENDBRANCH  27  28
ENDBRANCH  24  27
ENDBRANCH  21  23
ENDBRANCH  19  21
ENDBRANCH   1  19
TORSDOF 10
ENDMDL
MODEL 10
REMARK VINA RESULT:      -7.9      4.222     10.465
REMARK  10 active torsions:
REMARK  status: ('A' for Active; 'I' for Inactive)
REMARK    1  A    between atoms: C_4  and  N_5 
REMARK    2  A    between atoms: N_5  and  C_6 
REMARK    3  A    between atoms: C_6  and  N_7 
REMARK    4  A    between atoms: N_7  and  N_8 
REMARK       I    between atoms: N_8  and  C_9 
REMARK    5  A    between atoms: C_9  and  C_10 
REMARK    6  A    between atoms: C_10  and  O_11 
REMARK    7  A    between atoms: O_11  and  C_12 
REMARK    8  A    between atoms: C_22  and  C_23 
REMARK    9  A    between atoms: C_23  and  O_24 
REMARK   10  A    between atoms: C_27  and  C_28 
ROOT
HETATM    1  N   UNL     1      43.386  -8.677   8.115  1.00  0.00    -0.228 NA
HETATM    2  H   UNL     1      44.312  -9.068   8.268  1.00  0.00     0.136 HD
ENDROOT
BRANCH   1   3
HETATM    3  C   UNL     1      42.924  -7.989   9.228  1.00  0.00     0.073 C 
HETATM    4  S   UNL     1      42.845  -6.315   8.926  1.00  0.00    -0.081 SA
HETATM    5  C   UNL     1      42.496  -5.968  10.560  1.00  0.00    -0.007 C 
HETATM    6  C   UNL     1      42.433  -4.539  11.001  1.00  0.00     0.057 C 
HETATM    7  C   UNL     1      42.298  -7.131  11.292  1.00  0.00     0.005 C 
HETATM    8  C   UNL     1      42.448  -8.332  10.481  1.00  0.00     0.080 C 
BRANCH   7   9
HETATM    9  C   UNL     1      42.035  -7.070  12.728  1.00  0.00    -0.024 A 
HETATM   10  C   UNL     1      40.717  -6.917  13.179  1.00  0.00     0.012 A 
HETATM   11  C   UNL     1      40.445  -6.865  14.547  1.00  0.00     0.001 A 
HETATM   12  C   UNL     1      41.485  -6.970  15.468  1.00  0.00     0.000 A 
HETATM   13  C   UNL     1      42.799  -7.122  15.025  1.00  0.00     0.001 A 
HETATM   14  C   UNL     1      43.077  -7.167  13.657  1.00  0.00     0.012 A 
ENDBRANCH   7   9
BRANCH   8  15
HETATM   15  C   UNL     1      42.126  -9.698  10.894  1.00  0.00     0.296 C 
HETATM   16  O   UNL     1      41.066 -10.016  11.421  1.00  0.00    -0.259 OA
BRANCH  15  17
HETATM   17  O   UNL     1      43.147 -10.577  10.680  1.00  0.00    -0.322 OA
HETATM   18  C   UNL     1      43.808 -11.020  11.864  1.00  0.00     0.213 C 
ENDBRANCH  15  17
ENDBRANCH   8  15
ENDBRANCH   1   3
BRANCH   1  19
HETATM   19  C   UNL     1      42.610  -9.626   7.486  1.00  0.00     0.170 C 
HETATM   20  S   UNL     1      41.381  -9.069   6.482  1.00  0.00    -0.045 SA
BRANCH  19  21
HETATM   21  N   UNL     1      42.941 -10.947   7.663  1.00  0.00    -0.278 N 
HETATM   22  H   UNL     1      42.992 -11.250   8.643  1.00  0.00     0.189 HD
BRANCH  21  23
HETATM   23  N   UNL     1      42.433 -11.929   6.793  1.00  0.00    -0.266 N 
HETATM   24  C   UNL     1      43.225 -13.007   6.449  1.00  0.00     0.260 C 
HETATM   25  O   UNL     1      44.427 -13.084   6.698  1.00  0.00    -0.269 OA
HETATM   26  H   UNL     1      41.419 -12.019   6.737  1.00  0.00     0.190 HD
BRANCH  24  27
HETATM   27  C   UNL     1      42.471 -14.125   5.730  1.00  0.00     0.280 C 
BRANCH  27  28
HETATM   28  O   UNL     1      43.003 -14.342   4.427  1.00  0.00    -0.340 OA
BRANCH  28  29
HETATM   29  C   UNL     1      43.167 -15.637   4.015  1.00  0.00     0.091 A 
HETATM   30  C   UNL     1      42.932 -15.905   2.654  1.00  0.00     0.068 A 
HETATM   31 CL   UNL     1      42.481 -14.641   1.562  1.00  0.00    -0.081 Cl
HETATM   32  C   UNL     1      43.067 -17.196   2.143  1.00  0.00     0.046 A 
HETATM   33  C   UNL     1      43.431 -18.234   2.995  1.00  0.00     0.012 A 
HETATM   34 BR   UNL     1      43.618 -19.987   2.316  1.00  0.00    -0.051 Br
HETATM   35  C   UNL     1      43.657 -17.990   4.348  1.00  0.00     0.022 A 
HETATM   36  C   UNL     1      43.523 -16.694   4.859  1.00  0.00     0.040 A 
ENDBRANCH  28  29
ENDBRANCH  27  28
ENDBRANCH  24  27
ENDBRANCH  21  23
ENDBRANCH  19  21
ENDBRANCH   1  19
TORSDOF 10
ENDMDL
