MODEL 1
REMARK VINA RESULT:      -8.8      0.000      0.000
REMARK  5 active torsions:
REMARK  status: ('A' for Active; 'I' for Inactive)
REMARK    1  A    between atoms: N_3  and  C_4 
REMARK    2  A    between atoms: C_12  and  C_13 
REMARK    3  A    between atoms: C_13  and  N_14 
REMARK       I    between atoms: N_14  and  C_15 
REMARK       I    between atoms: C_15  and  N_16 
REMARK    4  A    between atoms: N_16  and  C_17 
REMARK    5  A    between atoms: C_17  and  C_18 
ROOT
HETATM    1  C   UNL     1      42.047 -13.289   6.140  1.00  0.00     0.165 C 
ENDROOT
BRANCH   1   2
HETATM    2  C   UNL     1      42.450 -14.228   5.044  1.00  0.00    -0.016 A 
HETATM    3  C   UNL     1      42.542 -15.616   5.109  1.00  0.00     0.021 A 
HETATM    4  N   UNL     1      42.978 -16.094   3.873  1.00  0.00    -0.319 N 
HETATM    5  C   UNL     1      42.159 -16.496   6.257  1.00  0.00     0.069 C 
HETATM    6  C   UNL     1      43.102 -15.005   3.014  1.00  0.00     0.014 A 
HETATM    7  C   UNL     1      43.601 -15.078   1.610  1.00  0.00     0.068 C 
HETATM    8  C   UNL     1      42.785 -13.862   3.721  1.00  0.00     0.035 A 
BRANCH   4   9
HETATM    9  C   UNL     1      43.268 -17.454   3.555  1.00  0.00     0.039 A 
HETATM   10  C   UNL     1      44.117 -18.201   4.383  1.00  0.00     0.030 A 
HETATM   11  C   UNL     1      44.410 -19.529   4.069  1.00  0.00     0.002 A 
HETATM   12  C   UNL     1      43.856 -20.118   2.933  1.00  0.00     0.000 A 
HETATM   13  C   UNL     1      43.008 -19.379   2.109  1.00  0.00     0.002 A 
HETATM   14  C   UNL     1      42.715 -18.048   2.415  1.00  0.00     0.030 A 
ENDBRANCH   4   9
ENDBRANCH   1   2
BRANCH   1  15
HETATM   15  N   UNL     1      43.236 -12.920   6.874  1.00  0.00    -0.339 N 
HETATM   16  C   UNL     1      43.706 -11.638   6.859  1.00  0.00     0.316 C 
HETATM   17  N   UNL     1      44.700 -11.458   7.783  1.00  0.00    -0.339 N 
HETATM   18  O   UNL     1      43.272 -10.750   6.139  1.00  0.00    -0.247 OA
HETATM   19  H   UNL     1      45.267 -12.266   7.992  1.00  0.00     0.164 HD
HETATM   20  H   UNL     1      43.469 -13.488   7.673  1.00  0.00     0.164 HD
BRANCH  17  21
HETATM   21  C   UNL     1      45.327 -10.165   7.933  1.00  0.00     0.162 C 
BRANCH  21  22
HETATM   22  C   UNL     1      44.669  -9.346   9.014  1.00  0.00    -0.040 A 
HETATM   23  C   UNL     1      43.980  -8.169   8.691  1.00  0.00     0.009 A 
HETATM   24  C   UNL     1      43.325  -7.435   9.682  1.00  0.00     0.001 A 
HETATM   25  C   UNL     1      43.347  -7.871  11.006  1.00  0.00     0.000 A 
HETATM   26  C   UNL     1      44.017  -9.045  11.340  1.00  0.00     0.001 A 
HETATM   27  C   UNL     1      44.667  -9.784  10.348  1.00  0.00     0.009 A 
ENDBRANCH  21  22
ENDBRANCH  17  21
ENDBRANCH   1  15
TORSDOF 5
ENDMDL
MODEL 2
REMARK VINA RESULT:      -8.6      4.526      8.454
REMARK  5 active torsions:
REMARK  status: ('A' for Active; 'I' for Inactive)
REMARK    1  A    between atoms: N_3  and  C_4 
REMARK    2  A    between atoms: C_12  and  C_13 
REMARK    3  A    between atoms: C_13  and  N_14 
REMARK       I    between atoms: N_14  and  C_15 
REMARK       I    between atoms: C_15  and  N_16 
REMARK    4  A    between atoms: N_16  and  C_17 
REMARK    5  A    between atoms: C_17  and  C_18 
ROOT
HETATM    1  C   UNL     1      41.824 -12.623   3.672  1.00  0.00     0.165 C 
ENDROOT
BRANCH   1   2
HETATM    2  C   UNL     1      41.346 -12.341   2.281  1.00  0.00    -0.016 A 
HETATM    3  C   UNL     1      40.467 -13.102   1.517  1.00  0.00     0.021 A 
HETATM    4  N   UNL     1      40.313 -12.494   0.271  1.00  0.00    -0.319 N 
HETATM    5  C   UNL     1      39.716 -14.324   1.948  1.00  0.00     0.069 C 
HETATM    6  C   UNL     1      41.054 -11.315   0.278  1.00  0.00     0.014 A 
HETATM    7  C   UNL     1      41.204 -10.395  -0.886  1.00  0.00     0.068 C 
HETATM    8  C   UNL     1      41.690 -11.214   1.499  1.00  0.00     0.035 A 
BRANCH   4   9
HETATM    9  C   UNL     1      39.552 -13.003  -0.823  1.00  0.00     0.039 A 
HETATM   10  C   UNL     1      40.099 -13.984  -1.660  1.00  0.00     0.030 A 
HETATM   11  C   UNL     1      39.360 -14.476  -2.737  1.00  0.00     0.002 A 
HETATM   12  C   UNL     1      38.073 -13.998  -2.980  1.00  0.00     0.000 A 
HETATM   13  C   UNL     1      37.524 -13.024  -2.147  1.00  0.00     0.002 A 
HETATM   14  C   UNL     1      38.261 -12.524  -1.070  1.00  0.00     0.030 A 
ENDBRANCH   4   9
ENDBRANCH   1   2
BRANCH   1  15
HETATM   15  N   UNL     1      42.768 -13.716   3.609  1.00  0.00    -0.339 N 
HETATM   16  C   UNL     1      42.756 -14.715   4.541  1.00  0.00     0.316 C 
HETATM   17  N   UNL     1      43.575 -15.749   4.175  1.00  0.00    -0.339 N 
HETATM   18  O   UNL     1      42.076 -14.706   5.556  1.00  0.00    -0.247 OA
HETATM   19  H   UNL     1      44.379 -15.507   3.616  1.00  0.00     0.164 HD
HETATM   20  H   UNL     1      43.146 -13.936   2.701  1.00  0.00     0.164 HD
BRANCH  17  21
HETATM   21  C   UNL     1      43.699 -16.912   5.024  1.00  0.00     0.162 C 
BRANCH  21  22
HETATM   22  C   UNL     1      43.719 -18.189   4.223  1.00  0.00    -0.040 A 
HETATM   23  C   UNL     1      44.070 -19.402   4.832  1.00  0.00     0.009 A 
HETATM   24  C   UNL     1      44.040 -20.595   4.106  1.00  0.00     0.001 A 
HETATM   25  C   UNL     1      43.655 -20.591   2.766  1.00  0.00     0.000 A 
HETATM   26  C   UNL     1      43.293 -19.394   2.152  1.00  0.00     0.001 A 
HETATM   27  C   UNL     1      43.316 -18.201   2.878  1.00  0.00     0.009 A 
ENDBRANCH  21  22
ENDBRANCH  17  21
ENDBRANCH   1  15
TORSDOF 5
ENDMDL
MODEL 3
REMARK VINA RESULT:      -8.6      1.703      2.211
REMARK  5 active torsions:
REMARK  status: ('A' for Active; 'I' for Inactive)
REMARK    1  A    between atoms: N_3  and  C_4 
REMARK    2  A    between atoms: C_12  and  C_13 
REMARK    3  A    between atoms: C_13  and  N_14 
REMARK       I    between atoms: N_14  and  C_15 
REMARK       I    between atoms: C_15  and  N_16 
REMARK    4  A    between atoms: N_16  and  C_17 
REMARK    5  A    between atoms: C_17  and  C_18 
ROOT
HETATM    1  C   UNL     1      39.907 -13.250   5.026  1.00  0.00     0.165 C 
ENDROOT
BRANCH   1   2
HETATM    2  C   UNL     1      40.912 -14.070   4.276  1.00  0.00    -0.016 A 
HETATM    3  C   UNL     1      41.197 -15.422   4.444  1.00  0.00     0.021 A 
HETATM    4  N   UNL     1      42.217 -15.778   3.560  1.00  0.00    -0.319 N 
HETATM    5  C   UNL     1      40.494 -16.391   5.343  1.00  0.00     0.069 C 
HETATM    6  C   UNL     1      42.528 -14.658   2.794  1.00  0.00     0.014 A 
HETATM    7  C   UNL     1      43.608 -14.599   1.768  1.00  0.00     0.068 C 
HETATM    8  C   UNL     1      41.739 -13.609   3.226  1.00  0.00     0.035 A 
BRANCH   4   9
HETATM    9  C   UNL     1      42.843 -17.056   3.475  1.00  0.00     0.039 A 
HETATM   10  C   UNL     1      43.764 -17.452   4.455  1.00  0.00     0.030 A 
HETATM   11  C   UNL     1      44.385 -18.699   4.368  1.00  0.00     0.002 A 
HETATM   12  C   UNL     1      44.090 -19.556   3.309  1.00  0.00     0.000 A 
HETATM   13  C   UNL     1      43.173 -19.168   2.334  1.00  0.00     0.002 A 
HETATM   14  C   UNL     1      42.550 -17.919   2.413  1.00  0.00     0.030 A 
ENDBRANCH   4   9
ENDBRANCH   1   2
BRANCH   1  15
HETATM   15  N   UNL     1      40.586 -12.611   6.131  1.00  0.00    -0.339 N 
HETATM   16  C   UNL     1      41.024 -11.321   6.039  1.00  0.00     0.316 C 
HETATM   17  N   UNL     1      41.436 -10.845   7.255  1.00  0.00    -0.339 N 
HETATM   18  O   UNL     1      41.019 -10.659   5.012  1.00  0.00    -0.247 OA
HETATM   19  H   UNL     1      41.812 -11.526   7.897  1.00  0.00     0.164 HD
HETATM   20  H   UNL     1      40.384 -12.966   7.052  1.00  0.00     0.164 HD
BRANCH  17  21
HETATM   21  C   UNL     1      41.931  -9.493   7.376  1.00  0.00     0.162 C 
BRANCH  21  22
HETATM   22  C   UNL     1      43.412  -9.463   7.658  1.00  0.00    -0.040 A 
HETATM   23  C   UNL     1      43.974  -8.406   8.387  1.00  0.00     0.009 A 
HETATM   24  C   UNL     1      45.337  -8.401   8.693  1.00  0.00     0.001 A 
HETATM   25  C   UNL     1      46.152  -9.452   8.279  1.00  0.00     0.000 A 
HETATM   26  C   UNL     1      45.605 -10.516   7.564  1.00  0.00     0.001 A 
HETATM   27  C   UNL     1      44.241 -10.525   7.263  1.00  0.00     0.009 A 
ENDBRANCH  21  22
ENDBRANCH  17  21
ENDBRANCH   1  15
TORSDOF 5
ENDMDL
MODEL 4
REMARK VINA RESULT:      -8.5      5.069      8.321
REMARK  5 active torsions:
REMARK  status: ('A' for Active; 'I' for Inactive)
REMARK    1  A    between atoms: N_3  and  C_4 
REMARK    2  A    between atoms: C_12  and  C_13 
REMARK    3  A    between atoms: C_13  and  N_14 
REMARK       I    between atoms: N_14  and  C_15 
REMARK       I    between atoms: C_15  and  N_16 
REMARK    4  A    between atoms: N_16  and  C_17 
REMARK    5  A    between atoms: C_17  and  C_18 
ROOT
HETATM    1  C   UNL     1      40.437 -14.368   4.597  1.00  0.00     0.165 C 
ENDROOT
BRANCH   1   2
HETATM    2  C   UNL     1      40.043 -13.727   3.302  1.00  0.00    -0.016 A 
HETATM    3  C   UNL     1      40.431 -14.101   2.019  1.00  0.00     0.021 A 
HETATM    4  N   UNL     1      39.857 -13.219   1.102  1.00  0.00    -0.319 N 
HETATM    5  C   UNL     1      41.250 -15.293   1.632  1.00  0.00     0.069 C 
HETATM    6  C   UNL     1      39.058 -12.327   1.812  1.00  0.00     0.014 A 
HETATM    7  C   UNL     1      38.312 -11.185   1.209  1.00  0.00     0.068 C 
HETATM    8  C   UNL     1      39.167 -12.626   3.156  1.00  0.00     0.035 A 
BRANCH   4   9
HETATM    9  C   UNL     1      40.071 -13.219  -0.308  1.00  0.00     0.039 A 
HETATM   10  C   UNL     1      40.929 -12.273  -0.886  1.00  0.00     0.030 A 
HETATM   11  C   UNL     1      41.132 -12.265  -2.267  1.00  0.00     0.002 A 
HETATM   12  C   UNL     1      40.488 -13.201  -3.074  1.00  0.00     0.000 A 
HETATM   13  C   UNL     1      39.636 -14.145  -2.503  1.00  0.00     0.002 A 
HETATM   14  C   UNL     1      39.425 -14.156  -1.122  1.00  0.00     0.030 A 
ENDBRANCH   4   9
ENDBRANCH   1   2
BRANCH   1  15
HETATM   15  N   UNL     1      41.841 -14.703   4.523  1.00  0.00    -0.339 N 
HETATM   16  C   UNL     1      42.328 -15.839   5.105  1.00  0.00     0.316 C 
HETATM   17  N   UNL     1      43.624 -16.075   4.733  1.00  0.00    -0.339 N 
HETATM   18  O   UNL     1      41.682 -16.573   5.838  1.00  0.00    -0.247 OA
HETATM   19  H   UNL     1      44.184 -15.263   4.522  1.00  0.00     0.164 HD
HETATM   20  H   UNL     1      42.355 -14.328   3.742  1.00  0.00     0.164 HD
BRANCH  17  21
HETATM   21  C   UNL     1      44.324 -17.236   5.235  1.00  0.00     0.162 C 
BRANCH  21  22
HETATM   22  C   UNL     1      44.054 -18.458   4.394  1.00  0.00    -0.040 A 
HETATM   23  C   UNL     1      43.758 -18.329   3.030  1.00  0.00     0.009 A 
HETATM   24  C   UNL     1      43.557 -19.461   2.238  1.00  0.00     0.001 A 
HETATM   25  C   UNL     1      43.655 -20.734   2.797  1.00  0.00     0.000 A 
HETATM   26  C   UNL     1      43.961 -20.878   4.148  1.00  0.00     0.001 A 
HETATM   27  C   UNL     1      44.168 -19.747   4.941  1.00  0.00     0.009 A 
ENDBRANCH  21  22
ENDBRANCH  17  21
ENDBRANCH   1  15
TORSDOF 5
ENDMDL
MODEL 5
REMARK VINA RESULT:      -8.5      5.709      9.466
REMARK  5 active torsions:
REMARK  status: ('A' for Active; 'I' for Inactive)
REMARK    1  A    between atoms: N_3  and  C_4 
REMARK    2  A    between atoms: C_12  and  C_13 
REMARK    3  A    between atoms: C_13  and  N_14 
REMARK       I    between atoms: N_14  and  C_15 
REMARK       I    between atoms: C_15  and  N_16 
REMARK    4  A    between atoms: N_16  and  C_17 
REMARK    5  A    between atoms: C_17  and  C_18 
ROOT
HETATM    1  C   UNL     1      40.035 -14.573   2.127  1.00  0.00     0.165 C 
ENDROOT
BRANCH   1   2
HETATM    2  C   UNL     1      39.878 -14.137   0.703  1.00  0.00    -0.016 A 
HETATM    3  C   UNL     1      39.974 -12.843   0.198  1.00  0.00     0.021 A 
HETATM    4  N   UNL     1      39.735 -12.879  -1.176  1.00  0.00    -0.319 N 
HETATM    5  C   UNL     1      40.357 -11.605   0.947  1.00  0.00     0.069 C 
HETATM    6  C   UNL     1      39.548 -14.210  -1.541  1.00  0.00     0.014 A 
HETATM    7  C   UNL     1      39.209 -14.677  -2.916  1.00  0.00     0.068 C 
HETATM    8  C   UNL     1      39.631 -14.985  -0.401  1.00  0.00     0.035 A 
BRANCH   4   9
HETATM    9  C   UNL     1      39.670 -11.751  -2.046  1.00  0.00     0.039 A 
HETATM   10  C   UNL     1      40.830 -11.287  -2.680  1.00  0.00     0.030 A 
HETATM   11  C   UNL     1      40.770 -10.177  -3.524  1.00  0.00     0.002 A 
HETATM   12  C   UNL     1      39.556  -9.529  -3.742  1.00  0.00     0.000 A 
HETATM   13  C   UNL     1      38.398  -9.989  -3.116  1.00  0.00     0.002 A 
HETATM   14  C   UNL     1      38.453 -11.097  -2.266  1.00  0.00     0.030 A 
ENDBRANCH   4   9
ENDBRANCH   1   2
BRANCH   1  15
HETATM   15  N   UNL     1      41.428 -14.889   2.349  1.00  0.00    -0.339 N 
HETATM   16  C   UNL     1      41.822 -15.627   3.429  1.00  0.00     0.316 C 
HETATM   17  N   UNL     1      43.138 -15.992   3.331  1.00  0.00    -0.339 N 
HETATM   18  O   UNL     1      41.088 -15.951   4.351  1.00  0.00    -0.247 OA
HETATM   19  H   UNL     1      43.741 -15.360   2.828  1.00  0.00     0.164 HD
HETATM   20  H   UNL     1      42.023 -14.907   1.536  1.00  0.00     0.164 HD
BRANCH  17  21
HETATM   21  C   UNL     1      43.750 -16.786   4.372  1.00  0.00     0.162 C 
BRANCH  21  22
HETATM   22  C   UNL     1      43.817 -18.245   3.996  1.00  0.00    -0.040 A 
HETATM   23  C   UNL     1      44.083 -19.217   4.971  1.00  0.00     0.009 A 
HETATM   24  C   UNL     1      44.096 -20.572   4.636  1.00  0.00     0.001 A 
HETATM   25  C   UNL     1      43.839 -20.973   3.326  1.00  0.00     0.000 A 
HETATM   26  C   UNL     1      43.562 -20.019   2.349  1.00  0.00     0.001 A 
HETATM   27  C   UNL     1      43.543 -18.663   2.684  1.00  0.00     0.009 A 
ENDBRANCH  21  22
ENDBRANCH  17  21
ENDBRANCH   1  15
TORSDOF 5
ENDMDL
MODEL 6
REMARK VINA RESULT:      -8.5      2.178      3.644
REMARK  5 active torsions:
REMARK  status: ('A' for Active; 'I' for Inactive)
REMARK    1  A    between atoms: N_3  and  C_4 
REMARK    2  A    between atoms: C_12  and  C_13 
REMARK    3  A    between atoms: C_13  and  N_14 
REMARK       I    between atoms: N_14  and  C_15 
REMARK       I    between atoms: C_15  and  N_16 
REMARK    4  A    between atoms: N_16  and  C_17 
REMARK    5  A    between atoms: C_17  and  C_18 
ROOT
HETATM    1  C   UNL     1      43.893 -11.191   6.719  1.00  0.00     0.165 C 
ENDROOT
BRANCH   1   2
HETATM    2  C   UNL     1      43.489 -12.574   6.309  1.00  0.00    -0.016 A 
HETATM    3  C   UNL     1      43.151 -13.014   5.032  1.00  0.00     0.021 A 
HETATM    4  N   UNL     1      42.814 -14.367   5.099  1.00  0.00    -0.319 N 
HETATM    5  C   UNL     1      43.212 -12.231   3.758  1.00  0.00     0.069 C 
HETATM    6  C   UNL     1      43.001 -14.788   6.413  1.00  0.00     0.014 A 
HETATM    7  C   UNL     1      42.696 -16.157   6.921  1.00  0.00     0.068 C 
HETATM    8  C   UNL     1      43.409 -13.701   7.160  1.00  0.00     0.035 A 
BRANCH   4   9
HETATM    9  C   UNL     1      42.340 -15.167   4.018  1.00  0.00     0.039 A 
HETATM   10  C   UNL     1      43.243 -15.922   3.257  1.00  0.00     0.030 A 
HETATM   11  C   UNL     1      42.782 -16.699   2.192  1.00  0.00     0.002 A 
HETATM   12  C   UNL     1      41.423 -16.729   1.885  1.00  0.00     0.000 A 
HETATM   13  C   UNL     1      40.521 -15.981   2.641  1.00  0.00     0.002 A 
HETATM   14  C   UNL     1      40.977 -15.199   3.705  1.00  0.00     0.030 A 
ENDBRANCH   4   9
ENDBRANCH   1   2
BRANCH   1  15
HETATM   15  N   UNL     1      43.309 -10.920   8.013  1.00  0.00    -0.339 N 
HETATM   16  C   UNL     1      44.093 -10.664   9.102  1.00  0.00     0.316 C 
HETATM   17  N   UNL     1      43.348 -10.222  10.162  1.00  0.00    -0.339 N 
HETATM   18  O   UNL     1      45.310 -10.780   9.122  1.00  0.00    -0.247 OA
HETATM   19  H   UNL     1      42.400 -10.562  10.215  1.00  0.00     0.164 HD
HETATM   20  H   UNL     1      42.375 -10.542   8.018  1.00  0.00     0.164 HD
BRANCH  17  21
HETATM   21  C   UNL     1      43.991  -9.887  11.413  1.00  0.00     0.162 C 
BRANCH  21  22
HETATM   22  C   UNL     1      43.022  -9.278  12.394  1.00  0.00    -0.040 A 
HETATM   23  C   UNL     1      41.831  -9.943  12.719  1.00  0.00     0.009 A 
HETATM   24  C   UNL     1      40.955  -9.407  13.666  1.00  0.00     0.001 A 
HETATM   25  C   UNL     1      41.260  -8.205  14.301  1.00  0.00     0.000 A 
HETATM   26  C   UNL     1      42.446  -7.540  13.996  1.00  0.00     0.001 A 
HETATM   27  C   UNL     1      43.326  -8.077  13.055  1.00  0.00     0.009 A 
ENDBRANCH  21  22
ENDBRANCH  17  21
ENDBRANCH   1  15
TORSDOF 5
ENDMDL
MODEL 7
REMARK VINA RESULT:      -8.4      1.882      2.896
REMARK  5 active torsions:
REMARK  status: ('A' for Active; 'I' for Inactive)
REMARK    1  A    between atoms: N_3  and  C_4 
REMARK    2  A    between atoms: C_12  and  C_13 
REMARK    3  A    between atoms: C_13  and  N_14 
REMARK       I    between atoms: N_14  and  C_15 
REMARK       I    between atoms: C_15  and  N_16 
REMARK    4  A    between atoms: N_16  and  C_17 
REMARK    5  A    between atoms: C_17  and  C_18 
ROOT
HETATM    1  C   UNL     1      41.199 -11.205   5.430  1.00  0.00     0.165 C 
ENDROOT
BRANCH   1   2
HETATM    2  C   UNL     1      41.238 -12.702   5.390  1.00  0.00    -0.016 A 
HETATM    3  C   UNL     1      42.056 -13.506   4.602  1.00  0.00     0.021 A 
HETATM    4  N   UNL     1      41.749 -14.844   4.858  1.00  0.00    -0.319 N 
HETATM    5  C   UNL     1      43.155 -13.062   3.688  1.00  0.00     0.069 C 
HETATM    6  C   UNL     1      40.778 -14.875   5.854  1.00  0.00     0.014 A 
HETATM    7  C   UNL     1      40.132 -16.113   6.377  1.00  0.00     0.068 C 
HETATM    8  C   UNL     1      40.457 -13.573   6.183  1.00  0.00     0.035 A 
BRANCH   4   9
HETATM    9  C   UNL     1      42.315 -15.974   4.197  1.00  0.00     0.039 A 
HETATM   10  C   UNL     1      43.410 -16.641   4.763  1.00  0.00     0.030 A 
HETATM   11  C   UNL     1      43.971 -17.742   4.114  1.00  0.00     0.002 A 
HETATM   12  C   UNL     1      43.440 -18.185   2.903  1.00  0.00     0.000 A 
HETATM   13  C   UNL     1      42.349 -17.527   2.339  1.00  0.00     0.002 A 
HETATM   14  C   UNL     1      41.785 -16.422   2.982  1.00  0.00     0.030 A 
ENDBRANCH   4   9
ENDBRANCH   1   2
BRANCH   1  15
HETATM   15  N   UNL     1      41.212 -10.793   6.816  1.00  0.00    -0.339 N 
HETATM   16  C   UNL     1      42.345 -10.298   7.396  1.00  0.00     0.316 C 
HETATM   17  N   UNL     1      42.085  -9.770   8.632  1.00  0.00    -0.339 N 
HETATM   18  O   UNL     1      43.447 -10.292   6.867  1.00  0.00    -0.247 OA
HETATM   19  H   UNL     1      41.324 -10.188   9.145  1.00  0.00     0.164 HD
HETATM   20  H   UNL     1      40.329 -10.511   7.212  1.00  0.00     0.164 HD
BRANCH  17  21
HETATM   21  C   UNL     1      43.152  -9.186   9.411  1.00  0.00     0.162 C 
BRANCH  21  22
HETATM   22  C   UNL     1      42.816  -9.150  10.880  1.00  0.00    -0.040 A 
HETATM   23  C   UNL     1      43.554  -8.342  11.757  1.00  0.00     0.009 A 
HETATM   24  C   UNL     1      43.213  -8.266  13.109  1.00  0.00     0.001 A 
HETATM   25  C   UNL     1      42.130  -8.992  13.600  1.00  0.00     0.000 A 
HETATM   26  C   UNL     1      41.380  -9.790  12.738  1.00  0.00     0.001 A 
HETATM   27  C   UNL     1      41.716  -9.862  11.385  1.00  0.00     0.009 A 
ENDBRANCH  21  22
ENDBRANCH  17  21
ENDBRANCH   1  15
TORSDOF 5
ENDMDL
MODEL 8
REMARK VINA RESULT:      -8.4      1.867      9.819
REMARK  5 active torsions:
REMARK  status: ('A' for Active; 'I' for Inactive)
REMARK    1  A    between atoms: N_3  and  C_4 
REMARK    2  A    between atoms: C_12  and  C_13 
REMARK    3  A    between atoms: C_13  and  N_14 
REMARK       I    between atoms: N_14  and  C_15 
REMARK       I    between atoms: C_15  and  N_16 
REMARK    4  A    between atoms: N_16  and  C_17 
REMARK    5  A    between atoms: C_17  and  C_18 
ROOT
HETATM    1  C   UNL     1      44.660 -11.124   7.168  1.00  0.00     0.165 C 
ENDROOT
BRANCH   1   2
HETATM    2  C   UNL     1      43.771 -10.406   8.136  1.00  0.00    -0.016 A 
HETATM    3  C   UNL     1      44.020 -10.144   9.480  1.00  0.00     0.021 A 
HETATM    4  N   UNL     1      42.919  -9.476  10.018  1.00  0.00    -0.319 N 
HETATM    5  C   UNL     1      45.277 -10.428  10.241  1.00  0.00     0.069 C 
HETATM    6  C   UNL     1      42.003  -9.267   8.990  1.00  0.00     0.014 A 
HETATM    7  C   UNL     1      40.663  -8.635   9.157  1.00  0.00     0.068 C 
HETATM    8  C   UNL     1      42.512  -9.834   7.838  1.00  0.00     0.035 A 
BRANCH   4   9
HETATM    9  C   UNL     1      42.753  -9.097  11.383  1.00  0.00     0.039 A 
HETATM   10  C   UNL     1      42.140  -9.977  12.285  1.00  0.00     0.030 A 
HETATM   11  C   UNL     1      41.968  -9.604  13.619  1.00  0.00     0.002 A 
HETATM   12  C   UNL     1      42.409  -8.358  14.059  1.00  0.00     0.000 A 
HETATM   13  C   UNL     1      43.022  -7.480  13.167  1.00  0.00     0.002 A 
HETATM   14  C   UNL     1      43.193  -7.846  11.829  1.00  0.00     0.030 A 
ENDBRANCH   4   9
ENDBRANCH   1   2
BRANCH   1  15
HETATM   15  N   UNL     1      44.112 -12.444   6.950  1.00  0.00    -0.339 N 
HETATM   16  C   UNL     1      43.471 -12.759   5.786  1.00  0.00     0.316 C 
HETATM   17  N   UNL     1      43.228 -14.103   5.697  1.00  0.00    -0.339 N 
HETATM   18  O   UNL     1      43.180 -11.951   4.915  1.00  0.00    -0.247 OA
HETATM   19  H   UNL     1      43.089 -14.591   6.569  1.00  0.00     0.164 HD
HETATM   20  H   UNL     1      44.537 -13.200   7.463  1.00  0.00     0.164 HD
BRANCH  17  21
HETATM   21  C   UNL     1      42.562 -14.645   4.534  1.00  0.00     0.162 C 
BRANCH  21  22
HETATM   22  C   UNL     1      43.118 -15.993   4.150  1.00  0.00    -0.040 A 
HETATM   23  C   UNL     1      43.774 -16.787   5.101  1.00  0.00     0.009 A 
HETATM   24  C   UNL     1      44.245 -18.057   4.762  1.00  0.00     0.001 A 
HETATM   25  C   UNL     1      44.063 -18.550   3.471  1.00  0.00     0.000 A 
HETATM   26  C   UNL     1      43.403 -17.777   2.519  1.00  0.00     0.001 A 
HETATM   27  C   UNL     1      42.925 -16.510   2.858  1.00  0.00     0.009 A 
ENDBRANCH  21  22
ENDBRANCH  17  21
ENDBRANCH   1  15
TORSDOF 5
ENDMDL
MODEL 9
REMARK VINA RESULT:      -8.3      2.109     10.193
REMARK  5 active torsions:
REMARK  status: ('A' for Active; 'I' for Inactive)
REMARK    1  A    between atoms: N_3  and  C_4 
REMARK    2  A    between atoms: C_12  and  C_13 
REMARK    3  A    between atoms: C_13  and  N_14 
REMARK       I    between atoms: N_14  and  C_15 
REMARK       I    between atoms: C_15  and  N_16 
REMARK    4  A    between atoms: N_16  and  C_17 
REMARK    5  A    between atoms: C_17  and  C_18 
ROOT
HETATM    1  C   UNL     1      44.777 -10.435   8.462  1.00  0.00     0.165 C 
ENDROOT
BRANCH   1   2
HETATM    2  C   UNL     1      44.142  -9.416   9.357  1.00  0.00    -0.016 A 
HETATM    3  C   UNL     1      43.733  -9.585  10.676  1.00  0.00     0.021 A 
HETATM    4  N   UNL     1      43.169  -8.391  11.127  1.00  0.00    -0.319 N 
HETATM    5  C   UNL     1      43.928 -10.794  11.537  1.00  0.00     0.069 C 
HETATM    6  C   UNL     1      43.281  -7.453  10.104  1.00  0.00     0.014 A 
HETATM    7  C   UNL     1      42.746  -6.062  10.159  1.00  0.00     0.068 C 
HETATM    8  C   UNL     1      43.870  -8.070   9.018  1.00  0.00     0.035 A 
BRANCH   4   9
HETATM    9  C   UNL     1      42.565  -8.177  12.401  1.00  0.00     0.039 A 
HETATM   10  C   UNL     1      41.244  -8.589  12.628  1.00  0.00     0.030 A 
HETATM   11  C   UNL     1      40.648  -8.373  13.871  1.00  0.00     0.002 A 
HETATM   12  C   UNL     1      41.364  -7.751  14.892  1.00  0.00     0.000 A 
HETATM   13  C   UNL     1      42.678  -7.342  14.672  1.00  0.00     0.002 A 
HETATM   14  C   UNL     1      43.280  -7.552  13.429  1.00  0.00     0.030 A 
ENDBRANCH   4   9
ENDBRANCH   1   2
BRANCH   1  15
HETATM   15  N   UNL     1      43.766 -11.399   8.092  1.00  0.00    -0.339 N 
HETATM   16  C   UNL     1      43.626 -11.816   6.798  1.00  0.00     0.316 C 
HETATM   17  N   UNL     1      42.769 -12.879   6.705  1.00  0.00    -0.339 N 
HETATM   18  O   UNL     1      44.217 -11.327   5.846  1.00  0.00    -0.247 OA
HETATM   19  H   UNL     1      42.035 -12.923   7.396  1.00  0.00     0.164 HD
HETATM   20  H   UNL     1      43.453 -12.027   8.815  1.00  0.00     0.164 HD
BRANCH  17  21
HETATM   21  C   UNL     1      42.489 -13.475   5.419  1.00  0.00     0.162 C 
BRANCH  21  22
HETATM   22  C   UNL     1      43.129 -14.834   5.282  1.00  0.00    -0.040 A 
HETATM   23  C   UNL     1      43.868 -15.379   6.341  1.00  0.00     0.009 A 
HETATM   24  C   UNL     1      44.419 -16.658   6.238  1.00  0.00     0.001 A 
HETATM   25  C   UNL     1      44.234 -17.408   5.078  1.00  0.00     0.000 A 
HETATM   26  C   UNL     1      43.492 -16.884   4.022  1.00  0.00     0.001 A 
HETATM   27  C   UNL     1      42.935 -15.608   4.127  1.00  0.00     0.009 A 
ENDBRANCH  21  22
ENDBRANCH  17  21
ENDBRANCH   1  15
TORSDOF 5
ENDMDL
MODEL 10
REMARK VINA RESULT:      -8.3      2.276      3.367
REMARK  5 active torsions:
REMARK  status: ('A' for Active; 'I' for Inactive)
REMARK    1  A    between atoms: N_3  and  C_4 
REMARK    2  A    between atoms: C_12  and  C_13 
REMARK    3  A    between atoms: C_13  and  N_14 
REMARK       I    between atoms: N_14  and  C_15 
REMARK       I    between atoms: C_15  and  N_16 
REMARK    4  A    between atoms: N_16  and  C_17 
REMARK    5  A    between atoms: C_17  and  C_18 
ROOT
HETATM    1  C   UNL     1      44.615 -11.222   7.043  1.00  0.00     0.165 C 
ENDROOT
BRANCH   1   2
HETATM    2  C   UNL     1      43.855 -11.766   5.872  1.00  0.00    -0.016 A 
HETATM    3  C   UNL     1      43.518 -13.093   5.624  1.00  0.00     0.021 A 
HETATM    4  N   UNL     1      42.832 -13.162   4.411  1.00  0.00    -0.319 N 
HETATM    5  C   UNL     1      43.747 -14.269   6.522  1.00  0.00     0.069 C 
HETATM    6  C   UNL     1      42.689 -11.864   3.928  1.00  0.00     0.014 A 
HETATM    7  C   UNL     1      42.063 -11.504   2.623  1.00  0.00     0.068 C 
HETATM    8  C   UNL     1      43.313 -11.005   4.811  1.00  0.00     0.035 A 
BRANCH   4   9
HETATM    9  C   UNL     1      42.382 -14.353   3.769  1.00  0.00     0.039 A 
HETATM   10  C   UNL     1      43.229 -15.038   2.887  1.00  0.00     0.030 A 
HETATM   11  C   UNL     1      42.786 -16.198   2.251  1.00  0.00     0.002 A 
HETATM   12  C   UNL     1      41.502 -16.684   2.494  1.00  0.00     0.000 A 
HETATM   13  C   UNL     1      40.657 -16.008   3.373  1.00  0.00     0.002 A 
HETATM   14  C   UNL     1      41.093 -14.843   4.010  1.00  0.00     0.030 A 
ENDBRANCH   4   9
ENDBRANCH   1   2
BRANCH   1  15
HETATM   15  N   UNL     1      43.690 -11.057   8.141  1.00  0.00    -0.339 N 
HETATM   16  C   UNL     1      44.133 -10.780   9.403  1.00  0.00     0.316 C 
HETATM   17  N   UNL     1      43.098 -10.448  10.235  1.00  0.00    -0.339 N 
HETATM   18  O   UNL     1      45.308 -10.790   9.742  1.00  0.00    -0.247 OA
HETATM   19  H   UNL     1      42.206 -10.872  10.029  1.00  0.00     0.164 HD
HETATM   20  H   UNL     1      42.755 -10.763   7.904  1.00  0.00     0.164 HD
BRANCH  17  21
HETATM   21  C   UNL     1      43.356 -10.112  11.616  1.00  0.00     0.162 C 
BRANCH  21  22
HETATM   22  C   UNL     1      43.036  -8.668  11.909  1.00  0.00    -0.040 A 
HETATM   23  C   UNL     1      42.653  -7.803  10.874  1.00  0.00     0.009 A 
HETATM   24  C   UNL     1      42.307  -6.478  11.149  1.00  0.00     0.001 A 
HETATM   25  C   UNL     1      42.335  -6.004  12.459  1.00  0.00     0.000 A 
HETATM   26  C   UNL     1      42.702  -6.855  13.498  1.00  0.00     0.001 A 
HETATM   27  C   UNL     1      43.042  -8.182  13.227  1.00  0.00     0.009 A 
ENDBRANCH  21  22
ENDBRANCH  17  21
ENDBRANCH   1  15
TORSDOF 5
ENDMDL
