MODEL 1
REMARK VINA RESULT:      -8.2      0.000      0.000
REMARK  8 active torsions:
REMARK  status: ('A' for Active; 'I' for Inactive)
REMARK    1  A    between atoms: O_2  and  C_3 
REMARK    2  A    between atoms: C_4  and  O_5 
REMARK    3  A    between atoms: C_8  and  N_9 
REMARK       I    between atoms: N_9  and  C_10 
REMARK    4  A    between atoms: C_10  and  C_11 
REMARK       I    between atoms: C_11  and  N_12 
REMARK    5  A    between atoms: N_12  and  C_13 
REMARK    6  A    between atoms: C_13  and  C_14 
REMARK    7  A    between atoms: C_14  and  S_15 
REMARK    8  A    between atoms: S_15  and  C_16 
ROOT
HETATM    1  C   UNL     1      42.544 -12.112   3.153  1.00  0.00     0.309 C 
HETATM    2  N   UNL     1      42.303 -13.414   3.517  1.00  0.00    -0.351 N 
HETATM    3  O   UNL     1      43.300 -11.333   3.719  1.00  0.00    -0.262 OA
HETATM    4  H   UNL     1      41.582 -13.908   2.994  1.00  0.00     0.162 HD
ENDROOT
BRANCH   1   5
HETATM    5  C   UNL     1      41.730 -11.636   1.930  1.00  0.00     0.313 C 
HETATM    6  N   UNL     1      40.730 -12.529   1.609  1.00  0.00    -0.319 N 
HETATM    7  H   UNL     1      40.679 -13.337   2.226  1.00  0.00     0.169 HD
HETATM    8  O   UNL     1      42.041 -10.587   1.385  1.00  0.00    -0.262 OA
BRANCH   6   9
HETATM    9  C   UNL     1      39.825 -12.468   0.535  1.00  0.00     0.037 A 
HETATM   10  C   UNL     1      39.973 -13.201  -0.647  1.00  0.00     0.069 A 
HETATM   11  C   UNL     1      39.020 -13.107  -1.671  1.00  0.00     0.103 A 
HETATM   12  C   UNL     1      37.900 -12.274  -1.499  1.00  0.00     0.101 A 
HETATM   13  C   UNL     1      37.764 -11.523  -0.330  1.00  0.00     0.042 A 
HETATM   14  C   UNL     1      38.721 -11.624   0.682  1.00  0.00     0.032 A 
BRANCH  11  15
HETATM   15  O   UNL     1      39.080 -13.794  -2.858  1.00  0.00    -0.353 OA
HETATM   16  C   UNL     1      38.779 -15.182  -2.831  1.00  0.00     0.210 C 
ENDBRANCH  11  15
BRANCH  12  17
HETATM   17  O   UNL     1      37.004 -12.204  -2.539  1.00  0.00    -0.353 OA
HETATM   18  C   UNL     1      36.559 -10.892  -2.865  1.00  0.00     0.210 C 
ENDBRANCH  12  17
ENDBRANCH   6   9
ENDBRANCH   1   5
BRANCH   2  19
HETATM   19  C   UNL     1      42.868 -14.038   4.701  1.00  0.00     0.144 C 
BRANCH  19  20
HETATM   20  C   UNL     1      42.746 -15.597   4.731  1.00  0.00     0.033 C 
HETATM   21  C   UNL     1      43.634 -16.151   5.866  1.00  0.00     0.049 C 
HETATM   22  C   UNL     1      43.045 -15.846   7.241  1.00  0.00     0.169 C 
HETATM   23  O   UNL     1      41.709 -16.333   7.338  1.00  0.00    -0.391 OA
HETATM   24  C   UNL     1      40.832 -15.733   6.386  1.00  0.00     0.169 C 
HETATM   25  C   UNL     1      41.291 -16.049   4.965  1.00  0.00     0.049 C 
BRANCH  20  26
HETATM   26  S   UNL     1      43.388 -16.166   3.056  1.00  0.00    -0.118 SA
BRANCH  26  27
HETATM   27  C   UNL     1      43.488 -17.937   3.215  1.00  0.00     0.001 A 
HETATM   28  C   UNL     1      43.056 -18.764   2.175  1.00  0.00     0.018 A 
HETATM   29  C   UNL     1      43.170 -20.152   2.283  1.00  0.00     0.001 A 
HETATM   30  C   UNL     1      43.736 -20.718   3.423  1.00  0.00     0.000 A 
HETATM   31  C   UNL     1      44.198 -19.898   4.451  1.00  0.00     0.001 A 
HETATM   32  C   UNL     1      44.083 -18.511   4.343  1.00  0.00     0.018 A 
ENDBRANCH  26  27
ENDBRANCH  20  26
ENDBRANCH  19  20
ENDBRANCH   2  19
TORSDOF 8
ENDMDL
MODEL 2
REMARK VINA RESULT:      -8.2      1.229      2.123
REMARK  8 active torsions:
REMARK  status: ('A' for Active; 'I' for Inactive)
REMARK    1  A    between atoms: O_2  and  C_3 
REMARK    2  A    between atoms: C_4  and  O_5 
REMARK    3  A    between atoms: C_8  and  N_9 
REMARK       I    between atoms: N_9  and  C_10 
REMARK    4  A    between atoms: C_10  and  C_11 
REMARK       I    between atoms: C_11  and  N_12 
REMARK    5  A    between atoms: N_12  and  C_13 
REMARK    6  A    between atoms: C_13  and  C_14 
REMARK    7  A    between atoms: C_14  and  S_15 
REMARK    8  A    between atoms: S_15  and  C_16 
ROOT
HETATM    1  C   UNL     1      42.494 -12.631   3.885  1.00  0.00     0.309 C 
HETATM    2  N   UNL     1      42.691 -13.980   4.049  1.00  0.00    -0.351 N 
HETATM    3  O   UNL     1      42.705 -11.764   4.723  1.00  0.00    -0.262 OA
HETATM    4  H   UNL     1      42.389 -14.582   3.286  1.00  0.00     0.162 HD
ENDROOT
BRANCH   1   5
HETATM    5  C   UNL     1      41.916 -12.240   2.507  1.00  0.00     0.313 C 
HETATM    6  N   UNL     1      40.940 -13.122   2.098  1.00  0.00    -0.319 N 
HETATM    7  H   UNL     1      40.748 -13.869   2.764  1.00  0.00     0.169 HD
HETATM    8  O   UNL     1      42.365 -11.256   1.937  1.00  0.00    -0.262 OA
BRANCH   6   9
HETATM    9  C   UNL     1      40.228 -13.128   0.886  1.00  0.00     0.037 A 
HETATM   10  C   UNL     1      39.318 -12.132   0.517  1.00  0.00     0.069 A 
HETATM   11  C   UNL     1      38.657 -12.189  -0.718  1.00  0.00     0.103 A 
HETATM   12  C   UNL     1      38.921 -13.256  -1.595  1.00  0.00     0.101 A 
HETATM   13  C   UNL     1      39.810 -14.264  -1.216  1.00  0.00     0.042 A 
HETATM   14  C   UNL     1      40.462 -14.196   0.017  1.00  0.00     0.032 A 
BRANCH  11  15
HETATM   15  O   UNL     1      37.756 -11.255  -1.165  1.00  0.00    -0.353 OA
HETATM   16  C   UNL     1      36.996 -10.555  -0.189  1.00  0.00     0.210 C 
ENDBRANCH  11  15
BRANCH  12  17
HETATM   17  O   UNL     1      38.235 -13.276  -2.785  1.00  0.00    -0.353 OA
HETATM   18  C   UNL     1      38.165 -14.547  -3.422  1.00  0.00     0.210 C 
ENDBRANCH  12  17
ENDBRANCH   6   9
ENDBRANCH   1   5
BRANCH   2  19
HETATM   19  C   UNL     1      43.117 -14.587   5.299  1.00  0.00     0.144 C 
BRANCH  19  20
HETATM   20  C   UNL     1      42.807 -16.116   5.415  1.00  0.00     0.033 C 
HETATM   21  C   UNL     1      42.101 -16.386   6.760  1.00  0.00     0.049 C 
HETATM   22  C   UNL     1      40.668 -15.858   6.761  1.00  0.00     0.169 C 
HETATM   23  O   UNL     1      39.931 -16.396   5.666  1.00  0.00    -0.391 OA
HETATM   24  C   UNL     1      40.486 -16.043   4.400  1.00  0.00     0.169 C 
HETATM   25  C   UNL     1      41.901 -16.599   4.265  1.00  0.00     0.049 C 
BRANCH  20  26
HETATM   26  S   UNL     1      44.489 -16.957   5.373  1.00  0.00    -0.118 SA
BRANCH  26  27
HETATM   27  C   UNL     1      44.171 -18.511   4.564  1.00  0.00     0.001 A 
HETATM   28  C   UNL     1      44.126 -18.584   3.169  1.00  0.00     0.018 A 
HETATM   29  C   UNL     1      43.915 -19.810   2.533  1.00  0.00     0.001 A 
HETATM   30  C   UNL     1      43.768 -20.971   3.288  1.00  0.00     0.000 A 
HETATM   31  C   UNL     1      43.842 -20.911   4.679  1.00  0.00     0.001 A 
HETATM   32  C   UNL     1      44.053 -19.685   5.314  1.00  0.00     0.018 A 
ENDBRANCH  26  27
ENDBRANCH  20  26
ENDBRANCH  19  20
ENDBRANCH   2  19
TORSDOF 8
ENDMDL
MODEL 3
REMARK VINA RESULT:      -8.1      5.993      9.413
REMARK  8 active torsions:
REMARK  status: ('A' for Active; 'I' for Inactive)
REMARK    1  A    between atoms: O_2  and  C_3 
REMARK    2  A    between atoms: C_4  and  O_5 
REMARK    3  A    between atoms: C_8  and  N_9 
REMARK       I    between atoms: N_9  and  C_10 
REMARK    4  A    between atoms: C_10  and  C_11 
REMARK       I    between atoms: C_11  and  N_12 
REMARK    5  A    between atoms: N_12  and  C_13 
REMARK    6  A    between atoms: C_13  and  C_14 
REMARK    7  A    between atoms: C_14  and  S_15 
REMARK    8  A    between atoms: S_15  and  C_16 
ROOT
HETATM    1  C   UNL     1      44.525 -11.377   7.867  1.00  0.00     0.309 C 
HETATM    2  N   UNL     1      43.572 -12.270   7.443  1.00  0.00    -0.351 N 
HETATM    3  O   UNL     1      45.581 -11.127   7.303  1.00  0.00    -0.262 OA
HETATM    4  H   UNL     1      42.783 -12.428   8.068  1.00  0.00     0.162 HD
ENDROOT
BRANCH   1   5
HETATM    5  C   UNL     1      44.189 -10.682   9.206  1.00  0.00     0.313 C 
HETATM    6  N   UNL     1      43.007  -9.978   9.128  1.00  0.00    -0.319 N 
HETATM    7  H   UNL     1      42.544 -10.039   8.223  1.00  0.00     0.169 HD
HETATM    8  O   UNL     1      44.964 -10.800  10.143  1.00  0.00    -0.262 OA
BRANCH   6   9
HETATM    9  C   UNL     1      42.406  -9.180  10.117  1.00  0.00     0.037 A 
HETATM   10  C   UNL     1      41.417  -9.642  10.991  1.00  0.00     0.069 A 
HETATM   11  C   UNL     1      40.874  -8.796  11.969  1.00  0.00     0.103 A 
HETATM   12  C   UNL     1      41.339  -7.473  12.074  1.00  0.00     0.101 A 
HETATM   13  C   UNL     1      42.309  -7.004  11.185  1.00  0.00     0.042 A 
HETATM   14  C   UNL     1      42.841  -7.855  10.215  1.00  0.00     0.032 A 
BRANCH  11  15
HETATM   15  O   UNL     1      39.908  -9.165  12.870  1.00  0.00    -0.353 OA
HETATM   16  C   UNL     1      39.683 -10.555  13.062  1.00  0.00     0.210 C 
ENDBRANCH  11  15
BRANCH  12  17
HETATM   17  O   UNL     1      40.763  -6.679  13.036  1.00  0.00    -0.353 OA
HETATM   18  C   UNL     1      41.665  -5.834  13.742  1.00  0.00     0.210 C 
ENDBRANCH  12  17
ENDBRANCH   6   9
ENDBRANCH   1   5
BRANCH   2  19
HETATM   19  C   UNL     1      43.727 -13.120   6.275  1.00  0.00     0.144 C 
BRANCH  19  20
HETATM   20  C   UNL     1      42.518 -13.083   5.283  1.00  0.00     0.033 C 
HETATM   21  C   UNL     1      41.679 -11.816   5.558  1.00  0.00     0.049 C 
HETATM   22  C   UNL     1      42.399 -10.552   5.094  1.00  0.00     0.169 C 
HETATM   23  O   UNL     1      42.759 -10.651   3.719  1.00  0.00    -0.391 OA
HETATM   24  C   UNL     1      43.649 -11.736   3.459  1.00  0.00     0.169 C 
HETATM   25  C   UNL     1      42.989 -13.065   3.815  1.00  0.00     0.049 C 
BRANCH  20  26
HETATM   26  S   UNL     1      41.522 -14.630   5.673  1.00  0.00    -0.118 SA
BRANCH  26  27
HETATM   27  C   UNL     1      42.162 -15.847   4.542  1.00  0.00     0.001 A 
HETATM   28  C   UNL     1      43.304 -16.583   4.869  1.00  0.00     0.018 A 
HETATM   29  C   UNL     1      43.784 -17.565   3.999  1.00  0.00     0.001 A 
HETATM   30  C   UNL     1      43.113 -17.831   2.808  1.00  0.00     0.000 A 
HETATM   31  C   UNL     1      41.955 -17.123   2.489  1.00  0.00     0.001 A 
HETATM   32  C   UNL     1      41.476 -16.141   3.359  1.00  0.00     0.018 A 
ENDBRANCH  26  27
ENDBRANCH  20  26
ENDBRANCH  19  20
ENDBRANCH   2  19
TORSDOF 8
ENDMDL
MODEL 4
REMARK VINA RESULT:      -8.1      5.959      8.374
REMARK  8 active torsions:
REMARK  status: ('A' for Active; 'I' for Inactive)
REMARK    1  A    between atoms: O_2  and  C_3 
REMARK    2  A    between atoms: C_4  and  O_5 
REMARK    3  A    between atoms: C_8  and  N_9 
REMARK       I    between atoms: N_9  and  C_10 
REMARK    4  A    between atoms: C_10  and  C_11 
REMARK       I    between atoms: C_11  and  N_12 
REMARK    5  A    between atoms: N_12  and  C_13 
REMARK    6  A    between atoms: C_13  and  C_14 
REMARK    7  A    between atoms: C_14  and  S_15 
REMARK    8  A    between atoms: S_15  and  C_16 
ROOT
HETATM    1  C   UNL     1      39.438  -9.669   8.019  1.00  0.00     0.309 C 
HETATM    2  N   UNL     1      40.278  -9.948   9.069  1.00  0.00    -0.351 N 
HETATM    3  O   UNL     1      38.906  -8.591   7.788  1.00  0.00    -0.262 OA
HETATM    4  H   UNL     1      40.573 -10.917   9.172  1.00  0.00     0.162 HD
ENDROOT
BRANCH   1   5
HETATM    5  C   UNL     1      39.148 -10.878   7.102  1.00  0.00     0.313 C 
HETATM    6  N   UNL     1      40.309 -11.520   6.728  1.00  0.00    -0.319 N 
HETATM    7  H   UNL     1      41.156 -11.111   7.121  1.00  0.00     0.169 HD
HETATM    8  O   UNL     1      37.990 -11.126   6.800  1.00  0.00    -0.262 OA
BRANCH   6   9
HETATM    9  C   UNL     1      40.453 -12.619   5.863  1.00  0.00     0.037 A 
HETATM   10  C   UNL     1      40.752 -13.914   6.298  1.00  0.00     0.069 A 
HETATM   11  C   UNL     1      40.862 -14.968   5.380  1.00  0.00     0.103 A 
HETATM   12  C   UNL     1      40.659 -14.718   4.011  1.00  0.00     0.101 A 
HETATM   13  C   UNL     1      40.385 -13.421   3.574  1.00  0.00     0.042 A 
HETATM   14  C   UNL     1      40.280 -12.378   4.497  1.00  0.00     0.032 A 
BRANCH  11  15
HETATM   15  O   UNL     1      41.144 -16.268   5.717  1.00  0.00    -0.353 OA
HETATM   16  C   UNL     1      42.210 -16.496   6.628  1.00  0.00     0.210 C 
ENDBRANCH  11  15
BRANCH  12  17
HETATM   17  O   UNL     1      40.795 -15.781   3.152  1.00  0.00    -0.353 OA
HETATM   18  C   UNL     1      40.014 -15.703   1.964  1.00  0.00     0.210 C 
ENDBRANCH  12  17
ENDBRANCH   6   9
ENDBRANCH   1   5
BRANCH   2  19
HETATM   19  C   UNL     1      40.598  -8.998  10.120  1.00  0.00     0.144 C 
BRANCH  19  20
HETATM   20  C   UNL     1      42.117  -8.636  10.224  1.00  0.00     0.033 C 
HETATM   21  C   UNL     1      42.286  -7.445  11.192  1.00  0.00     0.049 C 
HETATM   22  C   UNL     1      42.046  -7.859  12.641  1.00  0.00     0.169 C 
HETATM   23  O   UNL     1      42.889  -8.949  13.003  1.00  0.00    -0.391 OA
HETATM   24  C   UNL     1      42.655 -10.113  12.212  1.00  0.00     0.169 C 
HETATM   25  C   UNL     1      42.949  -9.827  10.742  1.00  0.00     0.049 C 
BRANCH  20  26
HETATM   26  S   UNL     1      42.620  -8.145   8.480  1.00  0.00    -0.118 SA
BRANCH  26  27
HETATM   27  C   UNL     1      44.044  -9.159   8.143  1.00  0.00     0.001 A 
HETATM   28  C   UNL     1      43.893 -10.407   7.532  1.00  0.00     0.018 A 
HETATM   29  C   UNL     1      45.014 -11.186   7.232  1.00  0.00     0.001 A 
HETATM   30  C   UNL     1      46.291 -10.713   7.524  1.00  0.00     0.000 A 
HETATM   31  C   UNL     1      46.451  -9.456   8.105  1.00  0.00     0.001 A 
HETATM   32  C   UNL     1      45.331  -8.678   8.405  1.00  0.00     0.018 A 
ENDBRANCH  26  27
ENDBRANCH  20  26
ENDBRANCH  19  20
ENDBRANCH   2  19
TORSDOF 8
ENDMDL
MODEL 5
REMARK VINA RESULT:      -8.0      5.616      9.021
REMARK  8 active torsions:
REMARK  status: ('A' for Active; 'I' for Inactive)
REMARK    1  A    between atoms: O_2  and  C_3 
REMARK    2  A    between atoms: C_4  and  O_5 
REMARK    3  A    between atoms: C_8  and  N_9 
REMARK       I    between atoms: N_9  and  C_10 
REMARK    4  A    between atoms: C_10  and  C_11 
REMARK       I    between atoms: C_11  and  N_12 
REMARK    5  A    between atoms: N_12  and  C_13 
REMARK    6  A    between atoms: C_13  and  C_14 
REMARK    7  A    between atoms: C_14  and  S_15 
REMARK    8  A    between atoms: S_15  and  C_16 
ROOT
HETATM    1  C   UNL     1      43.927 -11.899   7.107  1.00  0.00     0.309 C 
HETATM    2  N   UNL     1      42.929 -12.746   6.691  1.00  0.00    -0.351 N 
HETATM    3  O   UNL     1      45.130 -12.084   6.980  1.00  0.00    -0.262 OA
HETATM    4  H   UNL     1      41.976 -12.490   6.945  1.00  0.00     0.162 HD
ENDROOT
BRANCH   1   5
HETATM    5  C   UNL     1      43.419 -10.630   7.827  1.00  0.00     0.313 C 
HETATM    6  N   UNL     1      43.514 -10.752   9.196  1.00  0.00    -0.319 N 
HETATM    7  H   UNL     1      43.911 -11.637   9.509  1.00  0.00     0.169 HD
HETATM    8  O   UNL     1      42.991  -9.703   7.156  1.00  0.00    -0.262 OA
BRANCH   6   9
HETATM    9  C   UNL     1      43.104  -9.835  10.180  1.00  0.00     0.037 A 
HETATM   10  C   UNL     1      41.782  -9.407  10.338  1.00  0.00     0.069 A 
HETATM   11  C   UNL     1      41.439  -8.504  11.354  1.00  0.00     0.103 A 
HETATM   12  C   UNL     1      42.437  -8.035  12.228  1.00  0.00     0.101 A 
HETATM   13  C   UNL     1      43.761  -8.443  12.056  1.00  0.00     0.042 A 
HETATM   14  C   UNL     1      44.090  -9.342  11.039  1.00  0.00     0.032 A 
BRANCH  11  15
HETATM   15  O   UNL     1      40.170  -8.037  11.586  1.00  0.00    -0.353 OA
HETATM   16  C   UNL     1      39.367  -8.748  12.517  1.00  0.00     0.210 C 
ENDBRANCH  11  15
BRANCH  12  17
HETATM   17  O   UNL     1      42.053  -7.139  13.196  1.00  0.00    -0.353 OA
HETATM   18  C   UNL     1      42.923  -7.051  14.318  1.00  0.00     0.210 C 
ENDBRANCH  12  17
ENDBRANCH   6   9
ENDBRANCH   1   5
BRANCH   2  19
HETATM   19  C   UNL     1      43.173 -14.049   6.096  1.00  0.00     0.144 C 
BRANCH  19  20
HETATM   20  C   UNL     1      42.079 -14.510   5.076  1.00  0.00     0.033 C 
HETATM   21  C   UNL     1      41.489 -15.856   5.546  1.00  0.00     0.049 C 
HETATM   22  C   UNL     1      40.602 -15.684   6.776  1.00  0.00     0.169 C 
HETATM   23  O   UNL     1      39.579 -14.722   6.532  1.00  0.00    -0.391 OA
HETATM   24  C   UNL     1      40.099 -13.428   6.230  1.00  0.00     0.169 C 
HETATM   25  C   UNL     1      40.942 -13.475   4.959  1.00  0.00     0.049 C 
BRANCH  20  26
HETATM   26  S   UNL     1      42.994 -14.724   3.447  1.00  0.00    -0.118 SA
BRANCH  26  27
HETATM   27  C   UNL     1      43.349 -16.468   3.382  1.00  0.00     0.001 A 
HETATM   28  C   UNL     1      44.076 -17.079   4.407  1.00  0.00     0.018 A 
HETATM   29  C   UNL     1      44.321 -18.454   4.377  1.00  0.00     0.001 A 
HETATM   30  C   UNL     1      43.824 -19.227   3.330  1.00  0.00     0.000 A 
HETATM   31  C   UNL     1      43.072 -18.630   2.320  1.00  0.00     0.001 A 
HETATM   32  C   UNL     1      42.827 -17.256   2.351  1.00  0.00     0.018 A 
ENDBRANCH  26  27
ENDBRANCH  20  26
ENDBRANCH  19  20
ENDBRANCH   2  19
TORSDOF 8
ENDMDL
MODEL 6
REMARK VINA RESULT:      -7.9      5.964      8.371
REMARK  8 active torsions:
REMARK  status: ('A' for Active; 'I' for Inactive)
REMARK    1  A    between atoms: O_2  and  C_3 
REMARK    2  A    between atoms: C_4  and  O_5 
REMARK    3  A    between atoms: C_8  and  N_9 
REMARK       I    between atoms: N_9  and  C_10 
REMARK    4  A    between atoms: C_10  and  C_11 
REMARK       I    between atoms: C_11  and  N_12 
REMARK    5  A    between atoms: N_12  and  C_13 
REMARK    6  A    between atoms: C_13  and  C_14 
REMARK    7  A    between atoms: C_14  and  S_15 
REMARK    8  A    between atoms: S_15  and  C_16 
ROOT
HETATM    1  C   UNL     1      39.446  -9.659   8.059  1.00  0.00     0.309 C 
HETATM    2  N   UNL     1      40.356  -9.886   9.062  1.00  0.00    -0.351 N 
HETATM    3  O   UNL     1      38.779  -8.644   7.908  1.00  0.00    -0.262 OA
HETATM    4  H   UNL     1      40.770 -10.816   9.100  1.00  0.00     0.162 HD
ENDROOT
BRANCH   1   5
HETATM    5  C   UNL     1      39.266 -10.846   7.087  1.00  0.00     0.313 C 
HETATM    6  N   UNL     1      40.476 -11.416   6.756  1.00  0.00    -0.319 N 
HETATM    7  H   UNL     1      41.279 -10.983   7.208  1.00  0.00     0.169 HD
HETATM    8  O   UNL     1      38.140 -11.136   6.712  1.00  0.00    -0.262 OA
BRANCH   6   9
HETATM    9  C   UNL     1      40.721 -12.474   5.862  1.00  0.00     0.037 A 
HETATM   10  C   UNL     1      41.314 -12.307   4.607  1.00  0.00     0.069 A 
HETATM   11  C   UNL     1      41.547 -13.411   3.774  1.00  0.00     0.103 A 
HETATM   12  C   UNL     1      41.189 -14.698   4.214  1.00  0.00     0.101 A 
HETATM   13  C   UNL     1      40.573 -14.862   5.456  1.00  0.00     0.042 A 
HETATM   14  C   UNL     1      40.345 -13.755   6.277  1.00  0.00     0.032 A 
BRANCH  11  15
HETATM   15  O   UNL     1      42.129 -13.342   2.533  1.00  0.00    -0.353 OA
HETATM   16  C   UNL     1      41.408 -12.677   1.505  1.00  0.00     0.210 C 
ENDBRANCH  11  15
BRANCH  12  17
HETATM   17  O   UNL     1      41.422 -15.743   3.354  1.00  0.00    -0.353 OA
HETATM   18  C   UNL     1      42.416 -16.667   3.781  1.00  0.00     0.210 C 
ENDBRANCH  12  17
ENDBRANCH   6   9
ENDBRANCH   1   5
BRANCH   2  19
HETATM   19  C   UNL     1      40.603  -8.959  10.153  1.00  0.00     0.144 C 
BRANCH  19  20
HETATM   20  C   UNL     1      42.103  -8.551  10.328  1.00  0.00     0.033 C 
HETATM   21  C   UNL     1      42.200  -7.431  11.385  1.00  0.00     0.049 C 
HETATM   22  C   UNL     1      41.938  -7.960  12.793  1.00  0.00     0.169 C 
HETATM   23  O   UNL     1      42.813  -9.042  13.097  1.00  0.00    -0.391 OA
HETATM   24  C   UNL     1      42.645 -10.152  12.216  1.00  0.00     0.169 C 
HETATM   25  C   UNL     1      42.966  -9.746  10.781  1.00  0.00     0.049 C 
BRANCH  20  26
HETATM   26  S   UNL     1      42.633  -7.912   8.640  1.00  0.00    -0.118 SA
BRANCH  26  27
HETATM   27  C   UNL     1      43.995  -8.968   8.191  1.00  0.00     0.001 A 
HETATM   28  C   UNL     1      45.308  -8.584   8.475  1.00  0.00     0.018 A 
HETATM   29  C   UNL     1      46.375  -9.430   8.159  1.00  0.00     0.001 A 
HETATM   30  C   UNL     1      46.131 -10.671   7.575  1.00  0.00     0.000 A 
HETATM   31  C   UNL     1      44.822 -11.074   7.317  1.00  0.00     0.001 A 
HETATM   32  C   UNL     1      43.757 -10.228   7.634  1.00  0.00     0.018 A 
ENDBRANCH  26  27
ENDBRANCH  20  26
ENDBRANCH  19  20
ENDBRANCH   2  19
TORSDOF 8
ENDMDL
MODEL 7
REMARK VINA RESULT:      -7.7      6.261      9.772
REMARK  8 active torsions:
REMARK  status: ('A' for Active; 'I' for Inactive)
REMARK    1  A    between atoms: O_2  and  C_3 
REMARK    2  A    between atoms: C_4  and  O_5 
REMARK    3  A    between atoms: C_8  and  N_9 
REMARK       I    between atoms: N_9  and  C_10 
REMARK    4  A    between atoms: C_10  and  C_11 
REMARK       I    between atoms: C_11  and  N_12 
REMARK    5  A    between atoms: N_12  and  C_13 
REMARK    6  A    between atoms: C_13  and  C_14 
REMARK    7  A    between atoms: C_14  and  S_15 
REMARK    8  A    between atoms: S_15  and  C_16 
ROOT
HETATM    1  C   UNL     1      39.467 -10.597   7.480  1.00  0.00     0.309 C 
HETATM    2  N   UNL     1      40.618 -10.831   6.768  1.00  0.00    -0.351 N 
HETATM    3  O   UNL     1      38.340 -10.960   7.168  1.00  0.00    -0.262 OA
HETATM    4  H   UNL     1      41.468 -10.391   7.117  1.00  0.00     0.162 HD
ENDROOT
BRANCH   1   5
HETATM    5  C   UNL     1      39.675  -9.763   8.763  1.00  0.00     0.313 C 
HETATM    6  N   UNL     1      41.007  -9.696   9.113  1.00  0.00    -0.319 N 
HETATM    7  H   UNL     1      41.631 -10.184   8.473  1.00  0.00     0.169 HD
HETATM    8  O   UNL     1      38.698  -9.287   9.323  1.00  0.00    -0.262 OA
BRANCH   6   9
HETATM    9  C   UNL     1      41.578  -9.078  10.239  1.00  0.00     0.037 A 
HETATM   10  C   UNL     1      41.720  -7.694  10.375  1.00  0.00     0.069 A 
HETATM   11  C   UNL     1      42.281  -7.143  11.536  1.00  0.00     0.103 A 
HETATM   12  C   UNL     1      42.695  -7.995  12.576  1.00  0.00     0.101 A 
HETATM   13  C   UNL     1      42.576  -9.378  12.430  1.00  0.00     0.042 A 
HETATM   14  C   UNL     1      42.017  -9.915  11.269  1.00  0.00     0.032 A 
BRANCH  11  15
HETATM   15  O   UNL     1      42.452  -5.800  11.758  1.00  0.00    -0.353 OA
HETATM   16  C   UNL     1      42.367  -4.931  10.636  1.00  0.00     0.210 C 
ENDBRANCH  11  15
BRANCH  12  17
HETATM   17  O   UNL     1      43.254  -7.407  13.684  1.00  0.00    -0.353 OA
HETATM   18  C   UNL     1      42.446  -7.433  14.855  1.00  0.00     0.210 C 
ENDBRANCH  12  17
ENDBRANCH   6   9
ENDBRANCH   1   5
BRANCH   2  19
HETATM   19  C   UNL     1      40.647 -11.493   5.475  1.00  0.00     0.144 C 
BRANCH  19  20
HETATM   20  C   UNL     1      41.745 -12.598   5.338  1.00  0.00     0.033 C 
HETATM   21  C   UNL     1      42.313 -12.569   3.903  1.00  0.00     0.049 C 
HETATM   22  C   UNL     1      43.189 -11.341   3.668  1.00  0.00     0.169 C 
HETATM   23  O   UNL     1      44.227 -11.266   4.642  1.00  0.00    -0.391 OA
HETATM   24  C   UNL     1      43.727 -11.152   5.973  1.00  0.00     0.169 C 
HETATM   25  C   UNL     1      42.897 -12.380   6.339  1.00  0.00     0.049 C 
BRANCH  20  26
HETATM   26  S   UNL     1      40.846 -14.219   5.658  1.00  0.00    -0.118 SA
BRANCH  26  27
HETATM   27  C   UNL     1      41.682 -15.387   4.606  1.00  0.00     0.001 A 
HETATM   28  C   UNL     1      42.934 -15.892   4.968  1.00  0.00     0.018 A 
HETATM   29  C   UNL     1      43.573 -16.839   4.163  1.00  0.00     0.001 A 
HETATM   30  C   UNL     1      42.955 -17.298   3.002  1.00  0.00     0.000 A 
HETATM   31  C   UNL     1      41.692 -16.822   2.651  1.00  0.00     0.001 A 
HETATM   32  C   UNL     1      41.054 -15.876   3.456  1.00  0.00     0.018 A 
ENDBRANCH  26  27
ENDBRANCH  20  26
ENDBRANCH  19  20
ENDBRANCH   2  19
TORSDOF 8
ENDMDL
MODEL 8
REMARK VINA RESULT:      -7.7      7.174     10.375
REMARK  8 active torsions:
REMARK  status: ('A' for Active; 'I' for Inactive)
REMARK    1  A    between atoms: O_2  and  C_3 
REMARK    2  A    between atoms: C_4  and  O_5 
REMARK    3  A    between atoms: C_8  and  N_9 
REMARK       I    between atoms: N_9  and  C_10 
REMARK    4  A    between atoms: C_10  and  C_11 
REMARK       I    between atoms: C_11  and  N_12 
REMARK    5  A    between atoms: N_12  and  C_13 
REMARK    6  A    between atoms: C_13  and  C_14 
REMARK    7  A    between atoms: C_14  and  S_15 
REMARK    8  A    between atoms: S_15  and  C_16 
ROOT
HETATM    1  C   UNL     1      43.782 -10.024   8.962  1.00  0.00     0.309 C 
HETATM    2  N   UNL     1      42.444  -9.729   9.053  1.00  0.00    -0.351 N 
HETATM    3  O   UNL     1      44.685  -9.477   9.581  1.00  0.00    -0.262 OA
HETATM    4  H   UNL     1      41.824 -10.216   8.409  1.00  0.00     0.162 HD
ENDROOT
BRANCH   1   5
HETATM    5  C   UNL     1      44.117 -11.132   7.938  1.00  0.00     0.313 C 
HETATM    6  N   UNL     1      42.995 -11.541   7.251  1.00  0.00    -0.319 N 
HETATM    7  H   UNL     1      42.143 -11.047   7.511  1.00  0.00     0.169 HD
HETATM    8  O   UNL     1      45.270 -11.528   7.854  1.00  0.00    -0.262 OA
BRANCH   6   9
HETATM    9  C   UNL     1      42.892 -12.559   6.286  1.00  0.00     0.037 A 
HETATM   10  C   UNL     1      43.316 -13.874   6.498  1.00  0.00     0.069 A 
HETATM   11  C   UNL     1      43.165 -14.845   5.498  1.00  0.00     0.103 A 
HETATM   12  C   UNL     1      42.570 -14.489   4.274  1.00  0.00     0.101 A 
HETATM   13  C   UNL     1      42.170 -13.170   4.052  1.00  0.00     0.042 A 
HETATM   14  C   UNL     1      42.327 -12.212   5.056  1.00  0.00     0.032 A 
BRANCH  11  15
HETATM   15  O   UNL     1      43.545 -16.158   5.621  1.00  0.00    -0.353 OA
HETATM   16  C   UNL     1      44.373 -16.502   6.723  1.00  0.00     0.210 C 
ENDBRANCH  11  15
BRANCH  12  17
HETATM   17  O   UNL     1      42.461 -15.472   3.320  1.00  0.00    -0.353 OA
HETATM   18  C   UNL     1      43.310 -15.314   2.188  1.00  0.00     0.210 C 
ENDBRANCH  12  17
ENDBRANCH   6   9
ENDBRANCH   1   5
BRANCH   2  19
HETATM   19  C   UNL     1      41.911  -8.647   9.863  1.00  0.00     0.144 C 
BRANCH  19  20
HETATM   20  C   UNL     1      40.808  -9.085  10.883  1.00  0.00     0.033 C 
HETATM   21  C   UNL     1      40.125  -7.827  11.459  1.00  0.00     0.049 C 
HETATM   22  C   UNL     1      39.229  -7.149  10.426  1.00  0.00     0.169 C 
HETATM   23  O   UNL     1      38.274  -8.069   9.905  1.00  0.00    -0.391 OA
HETATM   24  C   UNL     1      38.880  -9.178   9.242  1.00  0.00     0.169 C 
HETATM   25  C   UNL     1      39.741  -9.976  10.217  1.00  0.00     0.049 C 
BRANCH  20  26
HETATM   26  S   UNL     1      41.737 -10.008  12.234  1.00  0.00    -0.118 SA
BRANCH  26  27
HETATM   27  C   UNL     1      41.994  -8.776  13.494  1.00  0.00     0.001 A 
HETATM   28  C   UNL     1      41.185  -8.752  14.633  1.00  0.00     0.018 A 
HETATM   29  C   UNL     1      41.412  -7.810  15.640  1.00  0.00     0.001 A 
HETATM   30  C   UNL     1      42.461  -6.901  15.522  1.00  0.00     0.000 A 
HETATM   31  C   UNL     1      43.292  -6.940  14.403  1.00  0.00     0.001 A 
HETATM   32  C   UNL     1      43.065  -7.881  13.397  1.00  0.00     0.018 A 
ENDBRANCH  26  27
ENDBRANCH  20  26
ENDBRANCH  19  20
ENDBRANCH   2  19
TORSDOF 8
ENDMDL
MODEL 9
REMARK VINA RESULT:      -7.7      5.776      9.474
REMARK  8 active torsions:
REMARK  status: ('A' for Active; 'I' for Inactive)
REMARK    1  A    between atoms: O_2  and  C_3 
REMARK    2  A    between atoms: C_4  and  O_5 
REMARK    3  A    between atoms: C_8  and  N_9 
REMARK       I    between atoms: N_9  and  C_10 
REMARK    4  A    between atoms: C_10  and  C_11 
REMARK       I    between atoms: C_11  and  N_12 
REMARK    5  A    between atoms: N_12  and  C_13 
REMARK    6  A    between atoms: C_13  and  C_14 
REMARK    7  A    between atoms: C_14  and  S_15 
REMARK    8  A    between atoms: S_15  and  C_16 
ROOT
HETATM    1  C   UNL     1      40.888  -9.778   6.414  1.00  0.00     0.309 C 
HETATM    2  N   UNL     1      40.868 -11.150   6.358  1.00  0.00    -0.351 N 
HETATM    3  O   UNL     1      41.037  -9.020   5.465  1.00  0.00    -0.262 OA
HETATM    4  H   UNL     1      40.818 -11.643   7.248  1.00  0.00     0.162 HD
ENDROOT
BRANCH   1   5
HETATM    5  C   UNL     1      40.739  -9.201   7.839  1.00  0.00     0.313 C 
HETATM    6  N   UNL     1      41.777  -9.595   8.656  1.00  0.00    -0.319 N 
HETATM    7  H   UNL     1      42.472 -10.179   8.194  1.00  0.00     0.169 HD
HETATM    8  O   UNL     1      39.765  -8.509   8.097  1.00  0.00    -0.262 OA
BRANCH   6   9
HETATM    9  C   UNL     1      41.959  -9.318  10.022  1.00  0.00     0.037 A 
HETATM   10  C   UNL     1      41.029  -9.651  11.011  1.00  0.00     0.069 A 
HETATM   11  C   UNL     1      41.285  -9.363  12.360  1.00  0.00     0.103 A 
HETATM   12  C   UNL     1      42.495  -8.741  12.717  1.00  0.00     0.101 A 
HETATM   13  C   UNL     1      43.413  -8.385  11.726  1.00  0.00     0.042 A 
HETATM   14  C   UNL     1      43.146  -8.677  10.387  1.00  0.00     0.032 A 
BRANCH  11  15
HETATM   15  O   UNL     1      40.435  -9.659  13.395  1.00  0.00    -0.353 OA
HETATM   16  C   UNL     1      39.595 -10.796  13.252  1.00  0.00     0.210 C 
ENDBRANCH  11  15
BRANCH  12  17
HETATM   17  O   UNL     1      42.689  -8.464  14.048  1.00  0.00    -0.353 OA
HETATM   18  C   UNL     1      43.082  -7.127  14.336  1.00  0.00     0.210 C 
ENDBRANCH  12  17
ENDBRANCH   6   9
ENDBRANCH   1   5
BRANCH   2  19
HETATM   19  C   UNL     1      41.104 -11.911   5.143  1.00  0.00     0.144 C 
BRANCH  19  20
HETATM   20  C   UNL     1      42.291 -12.926   5.236  1.00  0.00     0.033 C 
HETATM   21  C   UNL     1      42.937 -13.075   3.841  1.00  0.00     0.049 C 
HETATM   22  C   UNL     1      43.728 -11.829   3.451  1.00  0.00     0.169 C 
HETATM   23  O   UNL     1      44.699 -11.514   4.445  1.00  0.00    -0.391 OA
HETATM   24  C   UNL     1      44.115 -11.234   5.717  1.00  0.00     0.169 C 
HETATM   25  C   UNL     1      43.363 -12.455   6.239  1.00  0.00     0.049 C 
BRANCH  20  26
HETATM   26  S   UNL     1      41.503 -14.547   5.773  1.00  0.00    -0.118 SA
BRANCH  26  27
HETATM   27  C   UNL     1      42.134 -15.737   4.608  1.00  0.00     0.001 A 
HETATM   28  C   UNL     1      43.305 -16.447   4.889  1.00  0.00     0.018 A 
HETATM   29  C   UNL     1      43.779 -17.408   3.994  1.00  0.00     0.001 A 
HETATM   30  C   UNL     1      43.075 -17.678   2.823  1.00  0.00     0.000 A 
HETATM   31  C   UNL     1      41.890 -16.997   2.550  1.00  0.00     0.001 A 
HETATM   32  C   UNL     1      41.416 -16.035   3.446  1.00  0.00     0.018 A 
ENDBRANCH  26  27
ENDBRANCH  20  26
ENDBRANCH  19  20
ENDBRANCH   2  19
TORSDOF 8
ENDMDL
MODEL 10
REMARK VINA RESULT:      -7.7      5.762      9.215
REMARK  8 active torsions:
REMARK  status: ('A' for Active; 'I' for Inactive)
REMARK    1  A    between atoms: O_2  and  C_3 
REMARK    2  A    between atoms: C_4  and  O_5 
REMARK    3  A    between atoms: C_8  and  N_9 
REMARK       I    between atoms: N_9  and  C_10 
REMARK    4  A    between atoms: C_10  and  C_11 
REMARK       I    between atoms: C_11  and  N_12 
REMARK    5  A    between atoms: N_12  and  C_13 
REMARK    6  A    between atoms: C_13  and  C_14 
REMARK    7  A    between atoms: C_14  and  S_15 
REMARK    8  A    between atoms: S_15  and  C_16 
ROOT
HETATM    1  C   UNL     1      44.007 -11.648   7.106  1.00  0.00     0.309 C 
HETATM    2  N   UNL     1      43.486 -12.919   7.092  1.00  0.00    -0.351 N 
HETATM    3  O   UNL     1      44.547 -11.081   6.166  1.00  0.00    -0.262 OA
HETATM    4  H   UNL     1      43.144 -13.282   7.980  1.00  0.00     0.162 HD
ENDROOT
BRANCH   1   5
HETATM    5  C   UNL     1      43.904 -10.938   8.474  1.00  0.00     0.313 C 
HETATM    6  N   UNL     1      42.810 -10.101   8.528  1.00  0.00    -0.319 N 
HETATM    7  H   UNL     1      42.246 -10.097   7.680  1.00  0.00     0.169 HD
HETATM    8  O   UNL     1      44.760 -11.156   9.318  1.00  0.00    -0.262 OA
BRANCH   6   9
HETATM    9  C   UNL     1      42.419  -9.253   9.579  1.00  0.00     0.037 A 
HETATM   10  C   UNL     1      41.416  -9.571  10.500  1.00  0.00     0.069 A 
HETATM   11  C   UNL     1      41.090  -8.684  11.536  1.00  0.00     0.103 A 
HETATM   12  C   UNL     1      41.787  -7.469  11.652  1.00  0.00     0.101 A 
HETATM   13  C   UNL     1      42.771  -7.139  10.718  1.00  0.00     0.042 A 
HETATM   14  C   UNL     1      43.086  -8.030   9.689  1.00  0.00     0.032 A 
BRANCH  11  15
HETATM   15  O   UNL     1      40.127  -8.917  12.487  1.00  0.00    -0.353 OA
HETATM   16  C   UNL     1      40.129 -10.184  13.128  1.00  0.00     0.210 C 
ENDBRANCH  11  15
BRANCH  12  17
HETATM   17  O   UNL     1      41.418  -6.628  12.674  1.00  0.00    -0.353 OA
HETATM   18  C   UNL     1      42.395  -6.448  13.693  1.00  0.00     0.210 C 
ENDBRANCH  12  17
ENDBRANCH   6   9
ENDBRANCH   1   5
BRANCH   2  19
HETATM   19  C   UNL     1      43.575 -13.815   5.952  1.00  0.00     0.144 C 
BRANCH  19  20
HETATM   20  C   UNL     1      42.508 -14.959   5.943  1.00  0.00     0.033 C 
HETATM   21  C   UNL     1      42.949 -16.052   4.947  1.00  0.00     0.049 C 
HETATM   22  C   UNL     1      44.139 -16.849   5.474  1.00  0.00     0.169 C 
HETATM   23  O   UNL     1      43.851 -17.398   6.757  1.00  0.00    -0.391 OA
HETATM   24  C   UNL     1      43.575 -16.397   7.736  1.00  0.00     0.169 C 
HETATM   25  C   UNL     1      42.342 -15.590   7.340  1.00  0.00     0.049 C 
BRANCH  20  26
HETATM   26  S   UNL     1      40.919 -14.137   5.360  1.00  0.00    -0.118 SA
BRANCH  26  27
HETATM   27  C   UNL     1      40.900 -14.441   3.605  1.00  0.00     0.001 A 
HETATM   28  C   UNL     1      41.665 -13.649   2.744  1.00  0.00     0.018 A 
HETATM   29  C   UNL     1      41.681 -13.912   1.372  1.00  0.00     0.001 A 
HETATM   30  C   UNL     1      40.949 -14.979   0.857  1.00  0.00     0.000 A 
HETATM   31  C   UNL     1      40.208 -15.793   1.714  1.00  0.00     0.001 A 
HETATM   32  C   UNL     1      40.193 -15.530   3.086  1.00  0.00     0.018 A 
ENDBRANCH  26  27
ENDBRANCH  20  26
ENDBRANCH  19  20
ENDBRANCH   2  19
TORSDOF 8
ENDMDL
