MODEL 1
REMARK VINA RESULT:      -9.0      0.000      0.000
REMARK  8 active torsions:
REMARK  status: ('A' for Active; 'I' for Inactive)
REMARK    1  A    between atoms: C_5  and  C_6 
REMARK    2  A    between atoms: N_7  and  N_8 
REMARK       I    between atoms: N_8  and  C_9 
REMARK    3  A    between atoms: C_9  and  C_10 
REMARK    4  A    between atoms: N_11  and  C_12 
REMARK    5  A    between atoms: C_16  and  N_17 
REMARK    6  A    between atoms: C_20  and  C_21 
REMARK    7  A    between atoms: C_21  and  N_22 
REMARK    8  A    between atoms: C_30  and  O_31 
ROOT
HETATM    1  C   UNL     1      42.084 -14.639   3.236  1.00  0.00     0.159 A 
HETATM    2  N   UNL     1      40.906 -14.686   2.483  1.00  0.00    -0.184 N 
HETATM    3  N   UNL     1      40.647 -15.991   2.175  1.00  0.00    -0.058 NA
HETATM    4  N   UNL     1      41.554 -16.771   2.726  1.00  0.00    -0.132 NA
HETATM    5  C   UNL     1      42.446 -15.980   3.374  1.00  0.00     0.118 A 
ENDROOT
BRANCH   1   6
HETATM    6  C   UNL     1      42.829 -13.545   3.816  1.00  0.00     0.292 C 
HETATM    7  N   UNL     1      42.694 -13.271   5.162  1.00  0.00    -0.242 N 
HETATM    8  H   UNL     1      42.206 -13.904   5.793  1.00  0.00     0.192 HD
HETATM    9  O   UNL     1      43.529 -12.846   3.077  1.00  0.00    -0.264 OA
BRANCH   7  10
HETATM   10  N   UNL     1      43.360 -12.209   5.700  1.00  0.00    -0.183 NA
HETATM   11  C   UNL     1      43.789 -12.375   6.913  1.00  0.00     0.153 C 
BRANCH  11  12
HETATM   12  C   UNL     1      44.522 -11.304   7.617  1.00  0.00     0.017 A 
HETATM   13  C   UNL     1      43.977 -10.809   8.806  1.00  0.00     0.034 A 
HETATM   14  C   UNL     1      44.643  -9.793   9.493  1.00  0.00     0.012 A 
HETATM   15  C   UNL     1      45.841  -9.270   9.009  1.00  0.00     0.022 A 
HETATM   16 BR   UNL     1      43.908  -9.120  11.100  1.00  0.00    -0.051 Br
HETATM   17  C   UNL     1      46.384  -9.766   7.823  1.00  0.00     0.039 A 
HETATM   18  C   UNL     1      45.727 -10.780   7.128  1.00  0.00     0.077 A 
BRANCH  18  19
HETATM   19  O   UNL     1      46.321 -11.214   5.975  1.00  0.00    -0.360 OA
HETATM   20  H   UNL     1      46.006 -10.640   5.244  1.00  0.00     0.217 HD
ENDBRANCH  18  19
ENDBRANCH  11  12
ENDBRANCH   7  10
ENDBRANCH   1   6
BRANCH   2  21
HETATM   21  C   UNL     1      40.013 -13.666   2.072  1.00  0.00     0.230 A 
HETATM   22  N   UNL     1      39.826 -13.399   0.779  1.00  0.00    -0.081 NA
HETATM   23  O   UNL     1      38.921 -12.337   0.777  1.00  0.00    -0.103 OA
HETATM   24  N   UNL     1      38.552 -11.993   2.068  1.00  0.00    -0.083 NA
HETATM   25  C   UNL     1      39.230 -12.810   2.872  1.00  0.00     0.201 A 
BRANCH  25  26
HETATM   26  N   UNL     1      39.142 -12.799   4.211  1.00  0.00    -0.379 N 
HETATM   27  H   UNL     1      39.246 -13.660   4.740  1.00  0.00     0.158 HD
HETATM   28  H   UNL     1      38.835 -11.995   4.753  1.00  0.00     0.158 HD
ENDBRANCH  25  26
ENDBRANCH   2  21
BRANCH   5  29
HETATM   29  C   UNL     1      43.619 -16.608   4.062  1.00  0.00     0.298 C 
BRANCH  29  30
HETATM   30  N   UNL     1      43.487 -18.078   4.399  1.00  0.00    -0.066 N 
HETATM   31  H   UNL     1      42.472 -18.282   4.270  1.00  0.00     0.280 HD
HETATM   32  C   UNL     1      44.258 -18.975   3.470  1.00  0.00     0.235 C 
HETATM   33  C   UNL     1      43.940 -20.430   3.788  1.00  0.00     0.028 C 
HETATM   34  C   UNL     1      44.210 -20.760   5.252  1.00  0.00     0.003 C 
HETATM   35  C   UNL     1      43.472 -19.799   6.176  1.00  0.00     0.028 C 
HETATM   36  C   UNL     1      43.789 -18.347   5.849  1.00  0.00     0.235 C 
ENDBRANCH  29  30
ENDBRANCH   5  29
TORSDOF 8
ENDMDL
MODEL 2
REMARK VINA RESULT:      -9.0      3.592      7.626
REMARK  8 active torsions:
REMARK  status: ('A' for Active; 'I' for Inactive)
REMARK    1  A    between atoms: C_5  and  C_6 
REMARK    2  A    between atoms: N_7  and  N_8 
REMARK       I    between atoms: N_8  and  C_9 
REMARK    3  A    between atoms: C_9  and  C_10 
REMARK    4  A    between atoms: N_11  and  C_12 
REMARK    5  A    between atoms: C_16  and  N_17 
REMARK    6  A    between atoms: C_20  and  C_21 
REMARK    7  A    between atoms: C_21  and  N_22 
REMARK    8  A    between atoms: C_30  and  O_31 
ROOT
HETATM    1  C   UNL     1      42.239 -12.129   6.036  1.00  0.00     0.159 A 
HETATM    2  N   UNL     1      42.791 -11.021   6.688  1.00  0.00    -0.184 N 
HETATM    3  N   UNL     1      42.287  -9.891   6.112  1.00  0.00    -0.058 NA
HETATM    4  N   UNL     1      41.417 -10.213   5.177  1.00  0.00    -0.132 NA
HETATM    5  C   UNL     1      41.368 -11.566   5.101  1.00  0.00     0.118 A 
ENDROOT
BRANCH   1   6
HETATM    6  C   UNL     1      42.415 -13.553   6.211  1.00  0.00     0.292 C 
HETATM    7  N   UNL     1      43.644 -14.121   5.950  1.00  0.00    -0.242 N 
HETATM    8  H   UNL     1      44.474 -13.555   5.783  1.00  0.00     0.192 HD
HETATM    9  O   UNL     1      41.438 -14.235   6.539  1.00  0.00    -0.264 OA
BRANCH   7  10
HETATM   10  N   UNL     1      43.797 -15.472   6.068  1.00  0.00    -0.183 NA
HETATM   11  C   UNL     1      43.461 -16.165   5.024  1.00  0.00     0.153 C 
BRANCH  11  12
HETATM   12  C   UNL     1      43.573 -17.637   5.017  1.00  0.00     0.017 A 
HETATM   13  C   UNL     1      43.721 -18.277   3.782  1.00  0.00     0.034 A 
HETATM   14  C   UNL     1      43.826 -19.668   3.740  1.00  0.00     0.012 A 
HETATM   15  C   UNL     1      43.785 -20.423   4.912  1.00  0.00     0.022 A 
HETATM   16 BR   UNL     1      44.025 -20.537   2.073  1.00  0.00    -0.051 Br
HETATM   17  C   UNL     1      43.638 -19.782   6.143  1.00  0.00     0.039 A 
HETATM   18  C   UNL     1      43.532 -18.394   6.197  1.00  0.00     0.077 A 
BRANCH  18  19
HETATM   19  O   UNL     1      43.391 -17.838   7.439  1.00  0.00    -0.360 OA
HETATM   20  H   UNL     1      42.445 -17.601   7.553  1.00  0.00     0.217 HD
ENDBRANCH  18  19
ENDBRANCH  11  12
ENDBRANCH   7  10
ENDBRANCH   1   6
BRANCH   2  21
HETATM   21  C   UNL     1      43.683 -10.926   7.784  1.00  0.00     0.230 A 
HETATM   22  N   UNL     1      44.905 -11.456   7.720  1.00  0.00    -0.081 NA
HETATM   23  O   UNL     1      45.458 -11.190   8.973  1.00  0.00    -0.103 OA
HETATM   24  N   UNL     1      44.573 -10.480   9.769  1.00  0.00    -0.083 NA
HETATM   25  C   UNL     1      43.472 -10.319   9.038  1.00  0.00     0.201 A 
BRANCH  25  26
HETATM   26  N   UNL     1      42.375  -9.669   9.455  1.00  0.00    -0.379 N 
HETATM   27  H   UNL     1      41.456  -9.937   9.112  1.00  0.00     0.158 HD
HETATM   28  H   UNL     1      42.396  -8.813  10.003  1.00  0.00     0.158 HD
ENDBRANCH  25  26
ENDBRANCH   2  21
BRANCH   5  29
HETATM   29  C   UNL     1      40.483 -12.213   4.080  1.00  0.00     0.298 C 
BRANCH  29  30
HETATM   30  N   UNL     1      41.033 -13.456   3.413  1.00  0.00    -0.066 N 
HETATM   31  H   UNL     1      41.440 -14.012   4.196  1.00  0.00     0.280 HD
HETATM   32  C   UNL     1      39.975 -14.298   2.753  1.00  0.00     0.235 C 
HETATM   33  C   UNL     1      40.597 -15.594   2.251  1.00  0.00     0.028 C 
HETATM   34  C   UNL     1      41.776 -15.332   1.320  1.00  0.00     0.003 C 
HETATM   35  C   UNL     1      42.805 -14.424   1.982  1.00  0.00     0.028 C 
HETATM   36  C   UNL     1      42.176 -13.133   2.488  1.00  0.00     0.235 C 
ENDBRANCH  29  30
ENDBRANCH   5  29
TORSDOF 8
ENDMDL
MODEL 3
REMARK VINA RESULT:      -8.8      4.035      8.316
REMARK  8 active torsions:
REMARK  status: ('A' for Active; 'I' for Inactive)
REMARK    1  A    between atoms: C_5  and  C_6 
REMARK    2  A    between atoms: N_7  and  N_8 
REMARK       I    between atoms: N_8  and  C_9 
REMARK    3  A    between atoms: C_9  and  C_10 
REMARK    4  A    between atoms: N_11  and  C_12 
REMARK    5  A    between atoms: C_16  and  N_17 
REMARK    6  A    between atoms: C_20  and  C_21 
REMARK    7  A    between atoms: C_21  and  N_22 
REMARK    8  A    between atoms: C_30  and  O_31 
ROOT
HETATM    1  C   UNL     1      42.767 -16.926   4.358  1.00  0.00     0.159 A 
HETATM    2  N   UNL     1      43.607 -18.044   4.332  1.00  0.00    -0.184 N 
HETATM    3  N   UNL     1      44.455 -17.967   5.400  1.00  0.00    -0.058 NA
HETATM    4  N   UNL     1      44.171 -16.903   6.123  1.00  0.00    -0.132 NA
HETATM    5  C   UNL     1      43.154 -16.244   5.514  1.00  0.00     0.118 A 
ENDROOT
BRANCH   1   6
HETATM    6  C   UNL     1      41.703 -16.483   3.486  1.00  0.00     0.292 C 
HETATM    7  N   UNL     1      41.998 -16.108   2.192  1.00  0.00    -0.242 N 
HETATM    8  H   UNL     1      42.914 -16.273   1.780  1.00  0.00     0.192 HD
HETATM    9  O   UNL     1      40.558 -16.401   3.943  1.00  0.00    -0.264 OA
BRANCH   7  10
HETATM   10  N   UNL     1      41.001 -15.645   1.384  1.00  0.00    -0.183 NA
HETATM   11  C   UNL     1      41.051 -14.378   1.106  1.00  0.00     0.153 C 
BRANCH  11  12
HETATM   12  C   UNL     1      40.032 -13.745   0.245  1.00  0.00     0.017 A 
HETATM   13  C   UNL     1      39.687 -14.392  -0.945  1.00  0.00     0.034 A 
HETATM   14  C   UNL     1      38.730 -13.817  -1.783  1.00  0.00     0.012 A 
HETATM   15  C   UNL     1      38.117 -12.611  -1.446  1.00  0.00     0.022 A 
HETATM   16 BR   UNL     1      38.261 -14.687  -3.395  1.00  0.00    -0.051 Br
HETATM   17  C   UNL     1      38.463 -11.968  -0.256  1.00  0.00     0.039 A 
HETATM   18  C   UNL     1      39.417 -12.532   0.587  1.00  0.00     0.077 A 
BRANCH  18  19
HETATM   19  O   UNL     1      39.703 -11.844   1.734  1.00  0.00    -0.360 OA
HETATM   20  H   UNL     1      39.268 -10.966   1.671  1.00  0.00     0.217 HD
ENDBRANCH  18  19
ENDBRANCH  11  12
ENDBRANCH   7  10
ENDBRANCH   1   6
BRANCH   2  21
HETATM   21  C   UNL     1      43.662 -19.156   3.457  1.00  0.00     0.230 A 
HETATM   22  N   UNL     1      43.383 -19.021   2.160  1.00  0.00    -0.081 NA
HETATM   23  O   UNL     1      43.513 -20.313   1.647  1.00  0.00    -0.103 OA
HETATM   24  N   UNL     1      43.894 -21.206   2.635  1.00  0.00    -0.083 NA
HETATM   25  C   UNL     1      43.982 -20.495   3.757  1.00  0.00     0.201 A 
BRANCH  25  26
HETATM   26  N   UNL     1      44.336 -21.002   4.949  1.00  0.00    -0.379 N 
HETATM   27  H   UNL     1      45.182 -20.682   5.413  1.00  0.00     0.158 HD
HETATM   28  H   UNL     1      43.885 -21.804   5.380  1.00  0.00     0.158 HD
ENDBRANCH  25  26
ENDBRANCH   2  21
BRANCH   5  29
HETATM   29  C   UNL     1      42.653 -14.961   6.103  1.00  0.00     0.298 C 
BRANCH  29  30
HETATM   30  N   UNL     1      43.081 -13.692   5.397  1.00  0.00    -0.066 N 
HETATM   31  H   UNL     1      43.821 -14.003   4.731  1.00  0.00     0.280 HD
HETATM   32  C   UNL     1      41.979 -13.053   4.596  1.00  0.00     0.235 C 
HETATM   33  C   UNL     1      42.542 -11.881   3.803  1.00  0.00     0.028 C 
HETATM   34  C   UNL     1      43.245 -10.873   4.705  1.00  0.00     0.003 C 
HETATM   35  C   UNL     1      44.312 -11.551   5.556  1.00  0.00     0.028 C 
HETATM   36  C   UNL     1      43.745 -12.726   6.341  1.00  0.00     0.235 C 
ENDBRANCH  29  30
ENDBRANCH   5  29
TORSDOF 8
ENDMDL
MODEL 4
REMARK VINA RESULT:      -8.8      2.109      5.602
REMARK  8 active torsions:
REMARK  status: ('A' for Active; 'I' for Inactive)
REMARK    1  A    between atoms: C_5  and  C_6 
REMARK    2  A    between atoms: N_7  and  N_8 
REMARK       I    between atoms: N_8  and  C_9 
REMARK    3  A    between atoms: C_9  and  C_10 
REMARK    4  A    between atoms: N_11  and  C_12 
REMARK    5  A    between atoms: C_16  and  N_17 
REMARK    6  A    between atoms: C_20  and  C_21 
REMARK    7  A    between atoms: C_21  and  N_22 
REMARK    8  A    between atoms: C_30  and  O_31 
ROOT
HETATM    1  C   UNL     1      42.277 -14.692   2.958  1.00  0.00     0.159 A 
HETATM    2  N   UNL     1      42.359 -16.076   3.143  1.00  0.00    -0.184 N 
HETATM    3  N   UNL     1      41.445 -16.673   2.323  1.00  0.00    -0.058 NA
HETATM    4  N   UNL     1      40.830 -15.761   1.597  1.00  0.00    -0.132 NA
HETATM    5  C   UNL     1      41.308 -14.546   1.963  1.00  0.00     0.118 A 
ENDROOT
BRANCH   1   6
HETATM    6  C   UNL     1      42.984 -13.583   3.556  1.00  0.00     0.292 C 
HETATM    7  N   UNL     1      42.907 -13.387   4.920  1.00  0.00    -0.242 N 
HETATM    8  H   UNL     1      42.493 -14.080   5.540  1.00  0.00     0.192 HD
HETATM    9  O   UNL     1      43.598 -12.804   2.820  1.00  0.00    -0.264 OA
BRANCH   7  10
HETATM   10  N   UNL     1      43.534 -12.312   5.479  1.00  0.00    -0.183 NA
HETATM   11  C   UNL     1      43.877 -12.450   6.723  1.00  0.00     0.153 C 
BRANCH  11  12
HETATM   12  C   UNL     1      44.560 -11.362   7.451  1.00  0.00     0.017 A 
HETATM   13  C   UNL     1      44.028 -10.965   8.683  1.00  0.00     0.034 A 
HETATM   14  C   UNL     1      44.648  -9.936   9.395  1.00  0.00     0.012 A 
HETATM   15  C   UNL     1      45.786  -9.306   8.894  1.00  0.00     0.022 A 
HETATM   16 BR   UNL     1      43.932  -9.394  11.058  1.00  0.00    -0.051 Br
HETATM   17  C   UNL     1      46.315  -9.706   7.666  1.00  0.00     0.039 A 
HETATM   18  C   UNL     1      45.705 -10.731   6.946  1.00  0.00     0.077 A 
BRANCH  18  19
HETATM   19  O   UNL     1      46.281 -11.067   5.752  1.00  0.00    -0.360 OA
HETATM   20  H   UNL     1      47.226 -11.268   5.923  1.00  0.00     0.217 HD
ENDBRANCH  18  19
ENDBRANCH  11  12
ENDBRANCH   7  10
ENDBRANCH   1   6
BRANCH   2  21
HETATM   21  C   UNL     1      43.208 -16.866   3.957  1.00  0.00     0.230 A 
HETATM   22  N   UNL     1      43.584 -16.444   5.165  1.00  0.00    -0.081 NA
HETATM   23  O   UNL     1      44.421 -17.457   5.635  1.00  0.00    -0.103 OA
HETATM   24  N   UNL     1      44.519 -18.489   4.716  1.00  0.00    -0.083 NA
HETATM   25  C   UNL     1      43.774 -18.124   3.674  1.00  0.00     0.201 A 
BRANCH  25  26
HETATM   26  N   UNL     1      43.604 -18.866   2.569  1.00  0.00    -0.379 N 
HETATM   27  H   UNL     1      44.004 -18.568   1.683  1.00  0.00     0.158 HD
HETATM   28  H   UNL     1      42.973 -19.661   2.510  1.00  0.00     0.158 HD
ENDBRANCH  25  26
ENDBRANCH   2  21
BRANCH   5  29
HETATM   29  C   UNL     1      40.747 -13.313   1.323  1.00  0.00     0.298 C 
BRANCH  29  30
HETATM   30  N   UNL     1      40.901 -13.214  -0.180  1.00  0.00    -0.066 N 
HETATM   31  H   UNL     1      41.817 -13.670  -0.377  1.00  0.00     0.280 HD
HETATM   32  C   UNL     1      39.840 -13.964  -0.939  1.00  0.00     0.235 C 
HETATM   33  C   UNL     1      40.166 -13.938  -2.427  1.00  0.00     0.028 C 
HETATM   34  C   UNL     1      40.334 -12.513  -2.943  1.00  0.00     0.003 C 
HETATM   35  C   UNL     1      41.363 -11.749  -2.120  1.00  0.00     0.028 C 
HETATM   36  C   UNL     1      41.036 -11.785  -0.634  1.00  0.00     0.235 C 
ENDBRANCH  29  30
ENDBRANCH   5  29
TORSDOF 8
ENDMDL
MODEL 5
REMARK VINA RESULT:      -8.7      3.721      7.097
REMARK  8 active torsions:
REMARK  status: ('A' for Active; 'I' for Inactive)
REMARK    1  A    between atoms: C_5  and  C_6 
REMARK    2  A    between atoms: N_7  and  N_8 
REMARK       I    between atoms: N_8  and  C_9 
REMARK    3  A    between atoms: C_9  and  C_10 
REMARK    4  A    between atoms: N_11  and  C_12 
REMARK    5  A    between atoms: C_16  and  N_17 
REMARK    6  A    between atoms: C_20  and  C_21 
REMARK    7  A    between atoms: C_21  and  N_22 
REMARK    8  A    between atoms: C_30  and  O_31 
ROOT
HETATM    1  C   UNL     1      40.113 -12.443   0.922  1.00  0.00     0.159 A 
HETATM    2  N   UNL     1      39.776 -11.972  -0.351  1.00  0.00    -0.184 N 
HETATM    3  N   UNL     1      39.386 -10.669  -0.236  1.00  0.00    -0.058 NA
HETATM    4  N   UNL     1      39.505 -10.273   1.014  1.00  0.00    -0.132 NA
HETATM    5  C   UNL     1      39.939 -11.329   1.747  1.00  0.00     0.118 A 
ENDROOT
BRANCH   1   6
HETATM    6  C   UNL     1      40.574 -13.727   1.399  1.00  0.00     0.292 C 
HETATM    7  N   UNL     1      41.901 -14.071   1.246  1.00  0.00    -0.242 N 
HETATM    8  H   UNL     1      42.601 -13.395   0.945  1.00  0.00     0.192 HD
HETATM    9  O   UNL     1      39.750 -14.509   1.885  1.00  0.00    -0.264 OA
BRANCH   7  10
HETATM   10  N   UNL     1      42.326 -15.302   1.652  1.00  0.00    -0.183 NA
HETATM   11  C   UNL     1      42.794 -15.361   2.861  1.00  0.00     0.153 C 
BRANCH  11  12
HETATM   12  C   UNL     1      43.291 -16.632   3.425  1.00  0.00     0.017 A 
HETATM   13  C   UNL     1      43.290 -17.760   2.598  1.00  0.00     0.034 A 
HETATM   14  C   UNL     1      43.750 -18.978   3.103  1.00  0.00     0.012 A 
HETATM   15  C   UNL     1      44.208 -19.080   4.416  1.00  0.00     0.022 A 
HETATM   16 BR   UNL     1      43.749 -20.506   1.990  1.00  0.00    -0.051 Br
HETATM   17  C   UNL     1      44.209 -17.952   5.238  1.00  0.00     0.039 A 
HETATM   18  C   UNL     1      43.752 -16.731   4.745  1.00  0.00     0.077 A 
BRANCH  18  19
HETATM   19  O   UNL     1      43.783 -15.672   5.610  1.00  0.00    -0.360 OA
HETATM   20  H   UNL     1      43.588 -14.861   5.094  1.00  0.00     0.217 HD
ENDBRANCH  18  19
ENDBRANCH  11  12
ENDBRANCH   7  10
ENDBRANCH   1   6
BRANCH   2  21
HETATM   21  C   UNL     1      39.818 -12.595  -1.623  1.00  0.00     0.230 A 
HETATM   22  N   UNL     1      40.934 -12.584  -2.353  1.00  0.00    -0.081 NA
HETATM   23  O   UNL     1      40.582 -13.254  -3.525  1.00  0.00    -0.103 OA
HETATM   24  N   UNL     1      39.265 -13.683  -3.477  1.00  0.00    -0.083 NA
HETATM   25  C   UNL     1      38.789 -13.272  -2.304  1.00  0.00     0.201 A 
BRANCH  25  26
HETATM   26  N   UNL     1      37.538 -13.500  -1.874  1.00  0.00    -0.379 N 
HETATM   27  H   UNL     1      36.771 -12.911  -2.187  1.00  0.00     0.158 HD
HETATM   28  H   UNL     1      37.303 -14.151  -1.128  1.00  0.00     0.158 HD
ENDBRANCH  25  26
ENDBRANCH   2  21
BRANCH   5  29
HETATM   29  C   UNL     1      40.122 -11.172   3.225  1.00  0.00     0.298 C 
BRANCH  29  30
HETATM   30  N   UNL     1      41.435 -11.669   3.790  1.00  0.00    -0.066 N 
HETATM   31  H   UNL     1      41.451 -12.685   3.556  1.00  0.00     0.280 HD
HETATM   32  C   UNL     1      42.639 -11.031   3.152  1.00  0.00     0.235 C 
HETATM   33  C   UNL     1      43.904 -11.702   3.670  1.00  0.00     0.028 C 
HETATM   34  C   UNL     1      43.981 -11.664   5.192  1.00  0.00     0.003 C 
HETATM   35  C   UNL     1      42.724 -12.254   5.819  1.00  0.00     0.028 C 
HETATM   36  C   UNL     1      41.463 -11.584   5.293  1.00  0.00     0.235 C 
ENDBRANCH  29  30
ENDBRANCH   5  29
TORSDOF 8
ENDMDL
MODEL 6
REMARK VINA RESULT:      -8.6      1.896      2.746
REMARK  8 active torsions:
REMARK  status: ('A' for Active; 'I' for Inactive)
REMARK    1  A    between atoms: C_5  and  C_6 
REMARK    2  A    between atoms: N_7  and  N_8 
REMARK       I    between atoms: N_8  and  C_9 
REMARK    3  A    between atoms: C_9  and  C_10 
REMARK    4  A    between atoms: N_11  and  C_12 
REMARK    5  A    between atoms: C_16  and  N_17 
REMARK    6  A    between atoms: C_20  and  C_21 
REMARK    7  A    between atoms: C_21  and  N_22 
REMARK    8  A    between atoms: C_30  and  O_31 
ROOT
HETATM    1  C   UNL     1      41.483 -13.647   2.055  1.00  0.00     0.159 A 
HETATM    2  N   UNL     1      40.940 -13.185   0.852  1.00  0.00    -0.184 N 
HETATM    3  N   UNL     1      40.022 -14.098   0.418  1.00  0.00    -0.058 NA
HETATM    4  N   UNL     1      39.914 -15.077   1.293  1.00  0.00    -0.132 NA
HETATM    5  C   UNL     1      40.794 -14.837   2.297  1.00  0.00     0.118 A 
ENDROOT
BRANCH   1   6
HETATM    6  C   UNL     1      42.488 -13.109   2.944  1.00  0.00     0.292 C 
HETATM    7  N   UNL     1      42.204 -11.983   3.687  1.00  0.00    -0.242 N 
HETATM    8  H   UNL     1      41.261 -11.602   3.747  1.00  0.00     0.192 HD
HETATM    9  O   UNL     1      43.601 -13.644   2.973  1.00  0.00    -0.264 OA
BRANCH   7  10
HETATM   10  N   UNL     1      43.169 -11.446   4.489  1.00  0.00    -0.183 NA
HETATM   11  C   UNL     1      43.097 -11.772   5.743  1.00  0.00     0.153 C 
BRANCH  11  12
HETATM   12  C   UNL     1      44.076 -11.259   6.722  1.00  0.00     0.017 A 
HETATM   13  C   UNL     1      43.630 -11.006   8.023  1.00  0.00     0.034 A 
HETATM   14  C   UNL     1      44.530 -10.516   8.971  1.00  0.00     0.012 A 
HETATM   15  C   UNL     1      45.863 -10.279   8.635  1.00  0.00     0.022 A 
HETATM   16 BR   UNL     1      43.932 -10.171  10.731  1.00  0.00    -0.051 Br
HETATM   17  C   UNL     1      46.305 -10.534   7.336  1.00  0.00     0.039 A 
HETATM   18  C   UNL     1      45.416 -11.022   6.382  1.00  0.00     0.077 A 
BRANCH  18  19
HETATM   19  O   UNL     1      45.923 -11.247   5.132  1.00  0.00    -0.360 OA
HETATM   20  H   UNL     1      46.841 -10.900   5.116  1.00  0.00     0.217 HD
ENDBRANCH  18  19
ENDBRANCH  11  12
ENDBRANCH   7  10
ENDBRANCH   1   6
BRANCH   2  21
HETATM   21  C   UNL     1      41.164 -11.994   0.118  1.00  0.00     0.230 A 
HETATM   22  N   UNL     1      41.341 -10.829   0.741  1.00  0.00    -0.081 NA
HETATM   23  O   UNL     1      41.497  -9.908  -0.296  1.00  0.00    -0.103 OA
HETATM   24  N   UNL     1      41.439 -10.533  -1.531  1.00  0.00    -0.083 NA
HETATM   25  C   UNL     1      41.227 -11.823  -1.279  1.00  0.00     0.201 A 
BRANCH  25  26
HETATM   26  N   UNL     1      41.115 -12.770  -2.223  1.00  0.00    -0.379 N 
HETATM   27  H   UNL     1      41.832 -12.873  -2.936  1.00  0.00     0.158 HD
HETATM   28  H   UNL     1      40.278 -13.328  -2.371  1.00  0.00     0.158 HD
ENDBRANCH  25  26
ENDBRANCH   2  21
BRANCH   5  29
HETATM   29  C   UNL     1      40.915 -15.823   3.418  1.00  0.00     0.298 C 
BRANCH  29  30
HETATM   30  N   UNL     1      42.263 -16.497   3.570  1.00  0.00    -0.066 N 
HETATM   31  H   UNL     1      42.949 -15.778   3.254  1.00  0.00     0.280 HD
HETATM   32  C   UNL     1      42.595 -16.854   4.994  1.00  0.00     0.235 C 
HETATM   33  C   UNL     1      44.023 -17.378   5.066  1.00  0.00     0.028 C 
HETATM   34  C   UNL     1      44.243 -18.553   4.120  1.00  0.00     0.003 C 
HETATM   35  C   UNL     1      43.839 -18.192   2.696  1.00  0.00     0.028 C 
HETATM   36  C   UNL     1      42.413 -17.663   2.630  1.00  0.00     0.235 C 
ENDBRANCH  29  30
ENDBRANCH   5  29
TORSDOF 8
ENDMDL
MODEL 7
REMARK VINA RESULT:      -8.5      4.105      8.443
REMARK  8 active torsions:
REMARK  status: ('A' for Active; 'I' for Inactive)
REMARK    1  A    between atoms: C_5  and  C_6 
REMARK    2  A    between atoms: N_7  and  N_8 
REMARK       I    between atoms: N_8  and  C_9 
REMARK    3  A    between atoms: C_9  and  C_10 
REMARK    4  A    between atoms: N_11  and  C_12 
REMARK    5  A    between atoms: C_16  and  N_17 
REMARK    6  A    between atoms: C_20  and  C_21 
REMARK    7  A    between atoms: C_21  and  N_22 
REMARK    8  A    between atoms: C_30  and  O_31 
ROOT
HETATM    1  C   UNL     1      43.232 -16.558   3.868  1.00  0.00     0.159 A 
HETATM    2  N   UNL     1      43.560 -17.859   4.262  1.00  0.00    -0.184 N 
HETATM    3  N   UNL     1      43.823 -17.848   5.602  1.00  0.00    -0.058 NA
HETATM    4  N   UNL     1      43.632 -16.638   6.086  1.00  0.00    -0.132 NA
HETATM    5  C   UNL     1      43.279 -15.828   5.058  1.00  0.00     0.118 A 
ENDROOT
BRANCH   1   6
HETATM    6  C   UNL     1      42.880 -15.983   2.590  1.00  0.00     0.292 C 
HETATM    7  N   UNL     1      41.628 -16.220   2.062  1.00  0.00    -0.242 N 
HETATM    8  H   UNL     1      40.889 -16.659   2.607  1.00  0.00     0.192 HD
HETATM    9  O   UNL     1      43.734 -15.337   1.975  1.00  0.00    -0.264 OA
BRANCH   7  10
HETATM   10  N   UNL     1      41.313 -15.718   0.833  1.00  0.00    -0.183 NA
HETATM   11  C   UNL     1      40.511 -14.698   0.835  1.00  0.00     0.153 C 
BRANCH  11  12
HETATM   12  C   UNL     1      40.085 -14.059  -0.426  1.00  0.00     0.017 A 
HETATM   13  C   UNL     1      40.547 -12.766  -0.694  1.00  0.00     0.034 A 
HETATM   14  C   UNL     1      40.159 -12.133  -1.876  1.00  0.00     0.012 A 
HETATM   15  C   UNL     1      39.322 -12.773  -2.788  1.00  0.00     0.022 A 
HETATM   16 BR   UNL     1      40.780 -10.384  -2.241  1.00  0.00    -0.051 Br
HETATM   17  C   UNL     1      38.864 -14.064  -2.520  1.00  0.00     0.039 A 
HETATM   18  C   UNL     1      39.244 -14.706  -1.343  1.00  0.00     0.077 A 
BRANCH  18  19
HETATM   19  O   UNL     1      38.755 -15.968  -1.150  1.00  0.00    -0.360 OA
HETATM   20  H   UNL     1      38.577 -16.357  -2.033  1.00  0.00     0.217 HD
ENDBRANCH  18  19
ENDBRANCH  11  12
ENDBRANCH   7  10
ENDBRANCH   1   6
BRANCH   2  21
HETATM   21  C   UNL     1      43.612 -19.074   3.535  1.00  0.00     0.230 A 
HETATM   22  N   UNL     1      43.235 -19.124   2.257  1.00  0.00    -0.081 NA
HETATM   23  O   UNL     1      43.395 -20.465   1.906  1.00  0.00    -0.103 OA
HETATM   24  N   UNL     1      43.892 -21.203   2.969  1.00  0.00    -0.083 NA
HETATM   25  C   UNL     1      44.022 -20.346   3.980  1.00  0.00     0.201 A 
BRANCH  25  26
HETATM   26  N   UNL     1      44.485 -20.675   5.196  1.00  0.00    -0.379 N 
HETATM   27  H   UNL     1      45.251 -20.154   5.613  1.00  0.00     0.158 HD
HETATM   28  H   UNL     1      44.214 -21.518   5.698  1.00  0.00     0.158 HD
ENDBRANCH  25  26
ENDBRANCH   2  21
BRANCH   5  29
HETATM   29  C   UNL     1      43.040 -14.372   5.318  1.00  0.00     0.298 C 
BRANCH  29  30
HETATM   30  N   UNL     1      42.135 -13.659   4.336  1.00  0.00    -0.066 N 
HETATM   31  H   UNL     1      42.038 -14.327   3.541  1.00  0.00     0.280 HD
HETATM   32  C   UNL     1      40.758 -13.389   4.881  1.00  0.00     0.235 C 
HETATM   33  C   UNL     1      39.879 -12.817   3.777  1.00  0.00     0.028 C 
HETATM   34  C   UNL     1      40.497 -11.570   3.152  1.00  0.00     0.003 C 
HETATM   35  C   UNL     1      41.914 -11.847   2.667  1.00  0.00     0.028 C 
HETATM   36  C   UNL     1      42.787 -12.425   3.772  1.00  0.00     0.235 C 
ENDBRANCH  29  30
ENDBRANCH   5  29
TORSDOF 8
ENDMDL
MODEL 8
REMARK VINA RESULT:      -8.3      3.820      8.132
REMARK  8 active torsions:
REMARK  status: ('A' for Active; 'I' for Inactive)
REMARK    1  A    between atoms: C_5  and  C_6 
REMARK    2  A    between atoms: N_7  and  N_8 
REMARK       I    between atoms: N_8  and  C_9 
REMARK    3  A    between atoms: C_9  and  C_10 
REMARK    4  A    between atoms: N_11  and  C_12 
REMARK    5  A    between atoms: C_16  and  N_17 
REMARK    6  A    between atoms: C_20  and  C_21 
REMARK    7  A    between atoms: C_21  and  N_22 
REMARK    8  A    between atoms: C_30  and  O_31 
ROOT
HETATM    1  C   UNL     1      43.202 -10.801   7.088  1.00  0.00     0.159 A 
HETATM    2  N   UNL     1      43.219 -10.052   8.269  1.00  0.00    -0.184 N 
HETATM    3  N   UNL     1      42.627  -8.847   8.020  1.00  0.00    -0.058 NA
HETATM    4  N   UNL     1      42.194  -8.808   6.777  1.00  0.00    -0.132 NA
HETATM    5  C   UNL     1      42.533  -9.978   6.180  1.00  0.00     0.118 A 
ENDROOT
BRANCH   1   6
HETATM    6  C   UNL     1      43.690 -12.122   6.763  1.00  0.00     0.292 C 
HETATM    7  N   UNL     1      42.935 -13.226   7.098  1.00  0.00    -0.242 N 
HETATM    8  H   UNL     1      41.977 -13.141   7.432  1.00  0.00     0.192 HD
HETATM    9  O   UNL     1      44.803 -12.230   6.238  1.00  0.00    -0.264 OA
BRANCH   7  10
HETATM   10  N   UNL     1      43.418 -14.475   6.834  1.00  0.00    -0.183 NA
HETATM   11  C   UNL     1      42.677 -15.209   6.062  1.00  0.00     0.153 C 
BRANCH  11  12
HETATM   12  C   UNL     1      43.080 -16.582   5.699  1.00  0.00     0.017 A 
HETATM   13  C   UNL     1      43.073 -16.930   4.344  1.00  0.00     0.034 A 
HETATM   14  C   UNL     1      43.444 -18.222   3.967  1.00  0.00     0.012 A 
HETATM   15  C   UNL     1      43.821 -19.164   4.924  1.00  0.00     0.022 A 
HETATM   16 BR   UNL     1      43.435 -18.697   2.137  1.00  0.00    -0.051 Br
HETATM   17  C   UNL     1      43.829 -18.813   6.275  1.00  0.00     0.039 A 
HETATM   18  C   UNL     1      43.460 -17.527   6.662  1.00  0.00     0.077 A 
BRANCH  18  19
HETATM   19  O   UNL     1      43.492 -17.259   8.003  1.00  0.00    -0.360 OA
HETATM   20  H   UNL     1      42.836 -16.551   8.181  1.00  0.00     0.217 HD
ENDBRANCH  18  19
ENDBRANCH  11  12
ENDBRANCH   7  10
ENDBRANCH   1   6
BRANCH   2  21
HETATM   21  C   UNL     1      43.685 -10.362   9.571  1.00  0.00     0.230 A 
HETATM   22  N   UNL     1      44.949 -10.734   9.775  1.00  0.00    -0.081 NA
HETATM   23  O   UNL     1      45.016 -10.977  11.147  1.00  0.00    -0.103 OA
HETATM   24  N   UNL     1      43.799 -10.723  11.759  1.00  0.00    -0.083 NA
HETATM   25  C   UNL     1      42.972 -10.347  10.785  1.00  0.00     0.201 A 
BRANCH  25  26
HETATM   26  N   UNL     1      41.688 -10.005  10.974  1.00  0.00    -0.379 N 
HETATM   27  H   UNL     1      40.942 -10.555  10.555  1.00  0.00     0.158 HD
HETATM   28  H   UNL     1      41.390  -9.133  11.404  1.00  0.00     0.158 HD
ENDBRANCH  25  26
ENDBRANCH   2  21
BRANCH   5  29
HETATM   29  C   UNL     1      42.198 -10.191   4.736  1.00  0.00     0.298 C 
BRANCH  29  30
HETATM   30  N   UNL     1      41.524 -11.503   4.394  1.00  0.00    -0.066 N 
HETATM   31  H   UNL     1      41.659 -12.092   5.244  1.00  0.00     0.280 HD
HETATM   32  C   UNL     1      40.045 -11.370   4.156  1.00  0.00     0.235 C 
HETATM   33  C   UNL     1      39.433 -12.753   3.976  1.00  0.00     0.028 C 
HETATM   34  C   UNL     1      40.121 -13.534   2.861  1.00  0.00     0.003 C 
HETATM   35  C   UNL     1      41.626 -13.600   3.086  1.00  0.00     0.028 C 
HETATM   36  C   UNL     1      42.230 -12.216   3.271  1.00  0.00     0.235 C 
ENDBRANCH  29  30
ENDBRANCH   5  29
TORSDOF 8
ENDMDL
MODEL 9
REMARK VINA RESULT:      -8.2      1.607      5.502
REMARK  8 active torsions:
REMARK  status: ('A' for Active; 'I' for Inactive)
REMARK    1  A    between atoms: C_5  and  C_6 
REMARK    2  A    between atoms: N_7  and  N_8 
REMARK       I    between atoms: N_8  and  C_9 
REMARK    3  A    between atoms: C_9  and  C_10 
REMARK    4  A    between atoms: N_11  and  C_12 
REMARK    5  A    between atoms: C_16  and  N_17 
REMARK    6  A    between atoms: C_20  and  C_21 
REMARK    7  A    between atoms: C_21  and  N_22 
REMARK    8  A    between atoms: C_30  and  O_31 
ROOT
HETATM    1  C   UNL     1      42.132 -14.620   3.101  1.00  0.00     0.159 A 
HETATM    2  N   UNL     1      42.245 -16.012   3.180  1.00  0.00    -0.184 N 
HETATM    3  N   UNL     1      41.232 -16.566   2.452  1.00  0.00    -0.058 NA
HETATM    4  N   UNL     1      40.520 -15.617   1.878  1.00  0.00    -0.132 NA
HETATM    5  C   UNL     1      41.037 -14.422   2.258  1.00  0.00     0.118 A 
ENDROOT
BRANCH   1   6
HETATM    6  C   UNL     1      42.907 -13.543   3.674  1.00  0.00     0.292 C 
HETATM    7  N   UNL     1      42.958 -13.398   5.044  1.00  0.00    -0.242 N 
HETATM    8  H   UNL     1      42.592 -14.109   5.674  1.00  0.00     0.192 HD
HETATM    9  O   UNL     1      43.463 -12.744   2.913  1.00  0.00    -0.264 OA
BRANCH   7  10
HETATM   10  N   UNL     1      43.649 -12.352   5.583  1.00  0.00    -0.183 NA
HETATM   11  C   UNL     1      43.804 -12.390   6.871  1.00  0.00     0.153 C 
BRANCH  11  12
HETATM   12  C   UNL     1      44.530 -11.320   7.584  1.00  0.00     0.017 A 
HETATM   13  C   UNL     1      43.988 -10.847   8.783  1.00  0.00     0.034 A 
HETATM   14  C   UNL     1      44.648  -9.833   9.479  1.00  0.00     0.012 A 
HETATM   15  C   UNL     1      45.836  -9.290   8.993  1.00  0.00     0.022 A 
HETATM   16 BR   UNL     1      43.918  -9.190  11.101  1.00  0.00    -0.051 Br
HETATM   17  C   UNL     1      46.376  -9.764   7.796  1.00  0.00     0.039 A 
HETATM   18  C   UNL     1      45.725 -10.776   7.093  1.00  0.00     0.077 A 
BRANCH  18  19
HETATM   19  O   UNL     1      46.314 -11.187   5.929  1.00  0.00    -0.360 OA
HETATM   20  H   UNL     1      46.468 -10.392   5.376  1.00  0.00     0.217 HD
ENDBRANCH  18  19
ENDBRANCH  11  12
ENDBRANCH   7  10
ENDBRANCH   1   6
BRANCH   2  21
HETATM   21  C   UNL     1      43.200 -16.841   3.818  1.00  0.00     0.230 A 
HETATM   22  N   UNL     1      43.806 -16.450   4.939  1.00  0.00    -0.081 NA
HETATM   23  O   UNL     1      44.679 -17.497   5.239  1.00  0.00    -0.103 OA
HETATM   24  N   UNL     1      44.569 -18.519   4.310  1.00  0.00    -0.083 NA
HETATM   25  C   UNL     1      43.659 -18.114   3.427  1.00  0.00     0.201 A 
BRANCH  25  26
HETATM   26  N   UNL     1      43.262 -18.834   2.365  1.00  0.00    -0.379 N 
HETATM   27  H   UNL     1      42.699 -18.406   1.635  1.00  0.00     0.158 HD
HETATM   28  H   UNL     1      43.367 -19.843   2.292  1.00  0.00     0.158 HD
ENDBRANCH  25  26
ENDBRANCH   2  21
BRANCH   5  29
HETATM   29  C   UNL     1      40.388 -13.158   1.783  1.00  0.00     0.298 C 
BRANCH  29  30
HETATM   30  N   UNL     1      40.238 -12.058   2.813  1.00  0.00    -0.066 N 
HETATM   31  H   UNL     1      41.174 -12.001   3.270  1.00  0.00     0.280 HD
HETATM   32  C   UNL     1      39.937 -10.713   2.211  1.00  0.00     0.235 C 
HETATM   33  C   UNL     1      39.960  -9.651   3.303  1.00  0.00     0.028 C 
HETATM   34  C   UNL     1      39.004  -9.990   4.441  1.00  0.00     0.003 C 
HETATM   35  C   UNL     1      39.281 -11.383   4.993  1.00  0.00     0.028 C 
HETATM   36  C   UNL     1      39.264 -12.439   3.896  1.00  0.00     0.235 C 
ENDBRANCH  29  30
ENDBRANCH   5  29
TORSDOF 8
ENDMDL
MODEL 10
REMARK VINA RESULT:      -8.1      3.228      7.695
REMARK  8 active torsions:
REMARK  status: ('A' for Active; 'I' for Inactive)
REMARK    1  A    between atoms: C_5  and  C_6 
REMARK    2  A    between atoms: N_7  and  N_8 
REMARK       I    between atoms: N_8  and  C_9 
REMARK    3  A    between atoms: C_9  and  C_10 
REMARK    4  A    between atoms: N_11  and  C_12 
REMARK    5  A    between atoms: C_16  and  N_17 
REMARK    6  A    between atoms: C_20  and  C_21 
REMARK    7  A    between atoms: C_21  and  N_22 
REMARK    8  A    between atoms: C_30  and  O_31 
ROOT
HETATM    1  C   UNL     1      42.873 -16.924   4.737  1.00  0.00     0.159 A 
HETATM    2  N   UNL     1      43.373 -18.228   4.802  1.00  0.00    -0.184 N 
HETATM    3  N   UNL     1      43.651 -18.516   6.107  1.00  0.00    -0.058 NA
HETATM    4  N   UNL     1      43.310 -17.500   6.873  1.00  0.00    -0.132 NA
HETATM    5  C   UNL     1      42.840 -16.513   6.071  1.00  0.00     0.118 A 
ENDROOT
BRANCH   1   6
HETATM    6  C   UNL     1      42.432 -16.100   3.635  1.00  0.00     0.292 C 
HETATM    7  N   UNL     1      41.123 -16.186   3.205  1.00  0.00    -0.242 N 
HETATM    8  H   UNL     1      40.417 -16.697   3.732  1.00  0.00     0.192 HD
HETATM    9  O   UNL     1      43.257 -15.377   3.067  1.00  0.00    -0.264 OA
BRANCH   7  10
HETATM   10  N   UNL     1      40.719 -15.445   2.133  1.00  0.00    -0.183 NA
HETATM   11  C   UNL     1      40.287 -14.253   2.410  1.00  0.00     0.153 C 
BRANCH  11  12
HETATM   12  C   UNL     1      39.815 -13.346   1.344  1.00  0.00     0.017 A 
HETATM   13  C   UNL     1      38.894 -12.352   1.690  1.00  0.00     0.034 A 
HETATM   14  C   UNL     1      38.426 -11.481   0.705  1.00  0.00     0.012 A 
HETATM   15  C   UNL     1      38.865 -11.591  -0.613  1.00  0.00     0.022 A 
HETATM   16 BR   UNL     1      37.179 -10.137   1.168  1.00  0.00    -0.051 Br
HETATM   17  C   UNL     1      39.785 -12.584  -0.956  1.00  0.00     0.039 A 
HETATM   18  C   UNL     1      40.259 -13.458   0.019  1.00  0.00     0.077 A 
BRANCH  18  19
HETATM   19  O   UNL     1      41.158 -14.404  -0.392  1.00  0.00    -0.360 OA
HETATM   20  H   UNL     1      41.624 -14.049  -1.180  1.00  0.00     0.217 HD
ENDBRANCH  18  19
ENDBRANCH  11  12
ENDBRANCH   7  10
ENDBRANCH   1   6
BRANCH   2  21
HETATM   21  C   UNL     1      43.572 -19.208   3.797  1.00  0.00     0.230 A 
HETATM   22  N   UNL     1      43.366 -18.922   2.512  1.00  0.00    -0.081 NA
HETATM   23  O   UNL     1      43.631 -20.121   1.849  1.00  0.00    -0.103 OA
HETATM   24  N   UNL     1      44.019 -21.108   2.740  1.00  0.00    -0.083 NA
HETATM   25  C   UNL     1      43.979 -20.548   3.947  1.00  0.00     0.201 A 
BRANCH  25  26
HETATM   26  N   UNL     1      44.295 -21.183   5.087  1.00  0.00    -0.379 N 
HETATM   27  H   UNL     1      44.822 -22.051   5.062  1.00  0.00     0.158 HD
HETATM   28  H   UNL     1      43.924 -20.930   5.999  1.00  0.00     0.158 HD
ENDBRANCH  25  26
ENDBRANCH   2  21
BRANCH   5  29
HETATM   29  C   UNL     1      42.418 -15.211   6.680  1.00  0.00     0.298 C 
BRANCH  29  30
HETATM   30  N   UNL     1      42.963 -13.960   6.024  1.00  0.00    -0.066 N 
HETATM   31  H   UNL     1      43.571 -14.316   5.255  1.00  0.00     0.280 HD
HETATM   32  C   UNL     1      41.897 -13.097   5.405  1.00  0.00     0.235 C 
HETATM   33  C   UNL     1      42.550 -11.955   4.639  1.00  0.00     0.028 C 
HETATM   34  C   UNL     1      43.492 -11.146   5.525  1.00  0.00     0.003 C 
HETATM   35  C   UNL     1      44.522 -12.047   6.194  1.00  0.00     0.028 C 
HETATM   36  C   UNL     1      43.864 -13.191   6.952  1.00  0.00     0.235 C 
ENDBRANCH  29  30
ENDBRANCH   5  29
TORSDOF 8
ENDMDL
