MODEL 1
REMARK VINA RESULT:      -9.3      0.000      0.000
REMARK  3 active torsions:
REMARK  status: ('A' for Active; 'I' for Inactive)
REMARK    1  A    between atoms: C_4  and  N_5 
REMARK       I    between atoms: N_5  and  C_6 
REMARK    2  A    between atoms: C_6  and  C_7 
REMARK    3  A    between atoms: C_7  and  C_8 
ROOT
HETATM    1  C   UNL     1      40.575 -13.461   0.518  1.00  0.00     0.286 C 
HETATM    2  N   UNL     1      41.064 -13.124  -0.910  1.00  0.00    -0.056 N 
HETATM    3  H   UNL     1      41.571 -12.230  -0.818  1.00  0.00     0.278 HD
HETATM    4  H   UNL     1      41.778 -13.802  -1.210  1.00  0.00     0.278 HD
HETATM    5  C   UNL     1      40.001 -12.932  -1.978  1.00  0.00     0.209 C 
HETATM    6  C   UNL     1      38.815 -12.086  -1.432  1.00  0.00     0.115 C 
HETATM    7  N   UNL     1      38.435 -12.378  -0.051  1.00  0.00    -0.353 N 
HETATM    8  C   UNL     1      39.396 -12.563   0.915  1.00  0.00     0.249 C 
HETATM    9  O   UNL     1      39.247 -12.081   2.029  1.00  0.00    -0.271 OA
HETATM   10  C   UNL     1      39.646 -14.277  -2.621  1.00  0.00     0.035 C 
HETATM   11  C   UNL     1      38.394 -14.215  -3.488  1.00  0.00     0.002 C 
HETATM   12  C   UNL     1      37.232 -13.576  -2.739  1.00  0.00     0.002 C 
HETATM   13  C   UNL     1      37.584 -12.147  -2.339  1.00  0.00     0.027 C 
HETATM   14  H   UNL     1      37.683 -11.799   0.325  1.00  0.00     0.163 HD
ENDROOT
BRANCH   1  15
HETATM   15  C   UNL     1      40.162 -14.928   0.596  1.00  0.00     0.146 C 
BRANCH  15  16
HETATM   16  C   UNL     1      40.657 -15.558   1.880  1.00  0.00     0.224 C 
HETATM   17  N   UNL     1      42.027 -15.732   1.856  1.00  0.00    -0.327 N 
HETATM   18  H   UNL     1      42.563 -15.202   1.181  1.00  0.00     0.169 HD
HETATM   19  O   UNL     1      39.883 -15.838   2.782  1.00  0.00    -0.273 OA
BRANCH  17  20
HETATM   20  C   UNL     1      42.788 -16.608   2.653  1.00  0.00     0.035 A 
HETATM   21  C   UNL     1      43.329 -16.255   3.891  1.00  0.00     0.036 A 
HETATM   22  C   UNL     1      43.985 -17.215   4.679  1.00  0.00    -0.059 A 
HETATM   23  C   UNL     1      44.559 -16.847   6.015  1.00  0.00     0.048 C 
HETATM   24  C   UNL     1      44.121 -18.524   4.197  1.00  0.00     0.013 A 
HETATM   25  C   UNL     1      43.585 -18.891   2.960  1.00  0.00    -0.059 A 
HETATM   26  C   UNL     1      42.927 -17.923   2.192  1.00  0.00     0.036 A 
HETATM   27  C   UNL     1      43.749 -20.295   2.454  1.00  0.00     0.048 C 
ENDBRANCH  17  20
ENDBRANCH  15  16
ENDBRANCH   1  15
TORSDOF 3
ENDMDL
MODEL 2
REMARK VINA RESULT:      -9.2      0.163      1.798
REMARK  3 active torsions:
REMARK  status: ('A' for Active; 'I' for Inactive)
REMARK    1  A    between atoms: C_4  and  N_5 
REMARK       I    between atoms: N_5  and  C_6 
REMARK    2  A    between atoms: C_6  and  C_7 
REMARK    3  A    between atoms: C_7  and  C_8 
ROOT
HETATM    1  C   UNL     1      40.593 -13.512   0.574  1.00  0.00     0.286 C 
HETATM    2  N   UNL     1      41.088 -13.132  -0.840  1.00  0.00    -0.056 N 
HETATM    3  H   UNL     1      41.595 -12.242  -0.719  1.00  0.00     0.278 HD
HETATM    4  H   UNL     1      41.802 -13.802  -1.157  1.00  0.00     0.278 HD
HETATM    5  C   UNL     1      40.030 -12.906  -1.906  1.00  0.00     0.209 C 
HETATM    6  C   UNL     1      38.842 -12.075  -1.340  1.00  0.00     0.115 C 
HETATM    7  N   UNL     1      38.457 -12.408   0.030  1.00  0.00    -0.353 N 
HETATM    8  C   UNL     1      39.413 -12.624   0.994  1.00  0.00     0.249 C 
HETATM    9  O   UNL     1      39.260 -12.176   2.121  1.00  0.00    -0.271 OA
HETATM   10  C   UNL     1      39.676 -14.231  -2.592  1.00  0.00     0.035 C 
HETATM   11  C   UNL     1      38.428 -14.140  -3.461  1.00  0.00     0.002 C 
HETATM   12  C   UNL     1      37.264 -13.522  -2.699  1.00  0.00     0.002 C 
HETATM   13  C   UNL     1      37.615 -12.107  -2.254  1.00  0.00     0.027 C 
HETATM   14  H   UNL     1      37.704 -11.840   0.420  1.00  0.00     0.163 HD
ENDROOT
BRANCH   1  15
HETATM   15  C   UNL     1      40.177 -14.980   0.607  1.00  0.00     0.146 C 
BRANCH  15  16
HETATM   16  C   UNL     1      40.633 -15.639   1.889  1.00  0.00     0.224 C 
HETATM   17  N   UNL     1      41.975 -15.966   1.834  1.00  0.00    -0.327 N 
HETATM   18  H   UNL     1      42.548 -15.511   1.135  1.00  0.00     0.169 HD
HETATM   19  O   UNL     1      39.859 -15.816   2.816  1.00  0.00    -0.273 OA
BRANCH  17  20
HETATM   20  C   UNL     1      42.655 -16.909   2.628  1.00  0.00     0.035 A 
HETATM   21  C   UNL     1      42.860 -18.236   2.249  1.00  0.00     0.036 A 
HETATM   22  C   UNL     1      43.641 -19.090   3.046  1.00  0.00    -0.059 A 
HETATM   23  C   UNL     1      43.875 -20.515   2.640  1.00  0.00     0.048 C 
HETATM   24  C   UNL     1      44.188 -18.606   4.241  1.00  0.00     0.013 A 
HETATM   25  C   UNL     1      43.993 -17.278   4.633  1.00  0.00    -0.059 A 
HETATM   26  C   UNL     1      43.218 -16.440   3.823  1.00  0.00     0.036 A 
HETATM   27  C   UNL     1      44.577 -16.779   5.923  1.00  0.00     0.048 C 
ENDBRANCH  17  20
ENDBRANCH  15  16
ENDBRANCH   1  15
TORSDOF 3
ENDMDL
MODEL 3
REMARK VINA RESULT:      -8.3      2.079      2.847
REMARK  3 active torsions:
REMARK  status: ('A' for Active; 'I' for Inactive)
REMARK    1  A    between atoms: C_4  and  N_5 
REMARK       I    between atoms: N_5  and  C_6 
REMARK    2  A    between atoms: C_6  and  C_7 
REMARK    3  A    between atoms: C_7  and  C_8 
ROOT
HETATM    1  C   UNL     1      39.055 -13.984  -1.127  1.00  0.00     0.286 C 
HETATM    2  N   UNL     1      38.397 -12.736  -0.495  1.00  0.00    -0.056 N 
HETATM    3  H   UNL     1      37.382 -12.911  -0.546  1.00  0.00     0.278 HD
HETATM    4  H   UNL     1      38.608 -12.695   0.511  1.00  0.00     0.278 HD
HETATM    5  C   UNL     1      38.658 -11.400  -1.169  1.00  0.00     0.209 C 
HETATM    6  C   UNL     1      38.555 -11.531  -2.716  1.00  0.00     0.115 C 
HETATM    7  N   UNL     1      39.116 -12.763  -3.268  1.00  0.00    -0.353 N 
HETATM    8  C   UNL     1      38.890 -13.972  -2.653  1.00  0.00     0.249 C 
HETATM    9  O   UNL     1      38.644 -14.964  -3.323  1.00  0.00    -0.271 OA
HETATM   10  C   UNL     1      39.942 -10.769  -0.618  1.00  0.00     0.035 C 
HETATM   11  C   UNL     1      40.426  -9.580  -1.440  1.00  0.00     0.002 C 
HETATM   12  C   UNL     1      40.508  -9.926  -2.921  1.00  0.00     0.002 C 
HETATM   13  C   UNL     1      39.132 -10.318  -3.449  1.00  0.00     0.027 C 
HETATM   14  H   UNL     1      39.017 -12.872  -4.278  1.00  0.00     0.163 HD
ENDROOT
BRANCH   1  15
HETATM   15  C   UNL     1      40.537 -14.035  -0.764  1.00  0.00     0.146 C 
BRANCH  15  16
HETATM   16  C   UNL     1      40.725 -14.499   0.664  1.00  0.00     0.224 C 
HETATM   17  N   UNL     1      42.057 -14.733   0.942  1.00  0.00    -0.327 N 
HETATM   18  H   UNL     1      42.752 -14.327   0.328  1.00  0.00     0.169 HD
HETATM   19  O   UNL     1      39.772 -14.616   1.417  1.00  0.00    -0.273 OA
BRANCH  17  20
HETATM   20  C   UNL     1      42.584 -15.521   1.984  1.00  0.00     0.035 A 
HETATM   21  C   UNL     1      42.804 -15.045   3.278  1.00  0.00     0.036 A 
HETATM   22  C   UNL     1      43.230 -15.918   4.292  1.00  0.00    -0.059 A 
HETATM   23  C   UNL     1      43.459 -15.418   5.688  1.00  0.00     0.048 C 
HETATM   24  C   UNL     1      43.462 -17.266   3.987  1.00  0.00     0.013 A 
HETATM   25  C   UNL     1      43.245 -17.756   2.696  1.00  0.00    -0.059 A 
HETATM   26  C   UNL     1      42.813 -16.873   1.700  1.00  0.00     0.036 A 
HETATM   27  C   UNL     1      43.510 -19.201   2.384  1.00  0.00     0.048 C 
ENDBRANCH  17  20
ENDBRANCH  15  16
ENDBRANCH   1  15
TORSDOF 3
ENDMDL
MODEL 4
REMARK VINA RESULT:      -8.0      2.132      7.358
REMARK  3 active torsions:
REMARK  status: ('A' for Active; 'I' for Inactive)
REMARK    1  A    between atoms: C_4  and  N_5 
REMARK       I    between atoms: N_5  and  C_6 
REMARK    2  A    between atoms: C_6  and  C_7 
REMARK    3  A    between atoms: C_7  and  C_8 
ROOT
HETATM    1  C   UNL     1      41.494 -13.841   4.273  1.00  0.00     0.286 C 
HETATM    2  N   UNL     1      40.579 -15.082   4.157  1.00  0.00    -0.056 N 
HETATM    3  H   UNL     1      40.042 -15.105   5.037  1.00  0.00     0.278 HD
HETATM    4  H   UNL     1      39.875 -14.936   3.420  1.00  0.00     0.278 HD
HETATM    5  C   UNL     1      41.261 -16.431   4.009  1.00  0.00     0.209 C 
HETATM    6  C   UNL     1      42.472 -16.549   4.979  1.00  0.00     0.115 C 
HETATM    7  N   UNL     1      43.264 -15.329   5.125  1.00  0.00    -0.353 N 
HETATM    8  C   UNL     1      42.649 -14.106   5.247  1.00  0.00     0.249 C 
HETATM    9  O   UNL     1      43.073 -13.284   6.048  1.00  0.00    -0.271 OA
HETATM   10  C   UNL     1      41.535 -16.729   2.530  1.00  0.00     0.035 C 
HETATM   11  C   UNL     1      42.468 -17.916   2.321  1.00  0.00     0.002 C 
HETATM   12  C   UNL     1      43.733 -17.782   3.157  1.00  0.00     0.002 C 
HETATM   13  C   UNL     1      43.384 -17.730   4.640  1.00  0.00     0.027 C 
HETATM   14  H   UNL     1      44.036 -15.389   5.789  1.00  0.00     0.163 HD
ENDROOT
BRANCH   1  15
HETATM   15  C   UNL     1      42.046 -13.466   2.900  1.00  0.00     0.146 C 
BRANCH  15  16
HETATM   16  C   UNL     1      40.921 -13.227   1.916  1.00  0.00     0.224 C 
HETATM   17  N   UNL     1      41.271 -13.645   0.646  1.00  0.00    -0.327 N 
HETATM   18  H   UNL     1      42.050 -14.285   0.552  1.00  0.00     0.169 HD
HETATM   19  O   UNL     1      39.865 -12.734   2.276  1.00  0.00    -0.273 OA
BRANCH  17  20
HETATM   20  C   UNL     1      40.685 -13.250  -0.572  1.00  0.00     0.035 A 
HETATM   21  C   UNL     1      40.928 -12.019  -1.184  1.00  0.00     0.036 A 
HETATM   22  C   UNL     1      40.392 -11.738  -2.452  1.00  0.00    -0.059 A 
HETATM   23  C   UNL     1      40.657 -10.423  -3.121  1.00  0.00     0.048 C 
HETATM   24  C   UNL     1      39.585 -12.693  -3.084  1.00  0.00     0.013 A 
HETATM   25  C   UNL     1      39.334 -13.930  -2.484  1.00  0.00    -0.059 A 
HETATM   26  C   UNL     1      39.883 -14.196  -1.224  1.00  0.00     0.036 A 
HETATM   27  C   UNL     1      38.458 -14.938  -3.170  1.00  0.00     0.048 C 
ENDBRANCH  17  20
ENDBRANCH  15  16
ENDBRANCH   1  15
TORSDOF 3
ENDMDL
MODEL 5
REMARK VINA RESULT:      -7.7      1.750      3.160
REMARK  3 active torsions:
REMARK  status: ('A' for Active; 'I' for Inactive)
REMARK    1  A    between atoms: C_4  and  N_5 
REMARK       I    between atoms: N_5  and  C_6 
REMARK    2  A    between atoms: C_6  and  C_7 
REMARK    3  A    between atoms: C_7  and  C_8 
ROOT
HETATM    1  C   UNL     1      40.048 -13.794   1.539  1.00  0.00     0.286 C 
HETATM    2  N   UNL     1      39.193 -12.614   1.025  1.00  0.00    -0.056 N 
HETATM    3  H   UNL     1      38.219 -12.867   1.251  1.00  0.00     0.278 HD
HETATM    4  H   UNL     1      39.382 -11.769   1.582  1.00  0.00     0.278 HD
HETATM    5  C   UNL     1      39.247 -12.317  -0.464  1.00  0.00     0.209 C 
HETATM    6  C   UNL     1      39.186 -13.631  -1.294  1.00  0.00     0.115 C 
HETATM    7  N   UNL     1      39.942 -14.749  -0.731  1.00  0.00    -0.353 N 
HETATM    8  C   UNL     1      39.903 -15.013   0.617  1.00  0.00     0.249 C 
HETATM    9  O   UNL     1      39.826 -16.167   1.014  1.00  0.00    -0.271 OA
HETATM   10  C   UNL     1      40.408 -11.363  -0.773  1.00  0.00     0.035 C 
HETATM   11  C   UNL     1      40.708 -11.248  -2.262  1.00  0.00     0.002 C 
HETATM   12  C   UNL     1      40.862 -12.619  -2.906  1.00  0.00     0.002 C 
HETATM   13  C   UNL     1      39.572 -13.420  -2.759  1.00  0.00     0.027 C 
HETATM   14  H   UNL     1      39.874 -15.625  -1.251  1.00  0.00     0.163 HD
ENDROOT
BRANCH   1  15
HETATM   15  C   UNL     1      41.515 -13.379   1.626  1.00  0.00     0.146 C 
BRANCH  15  16
HETATM   16  C   UNL     1      42.364 -14.514   2.156  1.00  0.00     0.224 C 
HETATM   17  N   UNL     1      41.737 -15.161   3.203  1.00  0.00    -0.327 N 
HETATM   18  H   UNL     1      40.739 -15.031   3.315  1.00  0.00     0.169 HD
HETATM   19  O   UNL     1      43.450 -14.771   1.661  1.00  0.00    -0.273 OA
BRANCH  17  20
HETATM   20  C   UNL     1      42.337 -15.974   4.184  1.00  0.00     0.035 A 
HETATM   21  C   UNL     1      42.967 -17.187   3.903  1.00  0.00     0.036 A 
HETATM   22  C   UNL     1      43.638 -17.890   4.917  1.00  0.00    -0.059 A 
HETATM   23  C   UNL     1      44.326 -19.189   4.622  1.00  0.00     0.048 C 
HETATM   24  C   UNL     1      43.642 -17.379   6.221  1.00  0.00     0.013 A 
HETATM   25  C   UNL     1      43.016 -16.165   6.517  1.00  0.00    -0.059 A 
HETATM   26  C   UNL     1      42.359 -15.474   5.492  1.00  0.00     0.036 A 
HETATM   27  C   UNL     1      43.021 -15.636   7.923  1.00  0.00     0.048 C 
ENDBRANCH  17  20
ENDBRANCH  15  16
ENDBRANCH   1  15
TORSDOF 3
ENDMDL
MODEL 6
REMARK VINA RESULT:      -7.7      2.392      7.810
REMARK  3 active torsions:
REMARK  status: ('A' for Active; 'I' for Inactive)
REMARK    1  A    between atoms: C_4  and  N_5 
REMARK       I    between atoms: N_5  and  C_6 
REMARK    2  A    between atoms: C_6  and  C_7 
REMARK    3  A    between atoms: C_7  and  C_8 
ROOT
HETATM    1  C   UNL     1      40.483 -14.382   4.044  1.00  0.00     0.286 C 
HETATM    2  N   UNL     1      40.708 -15.910   4.130  1.00  0.00    -0.056 N 
HETATM    3  H   UNL     1      39.781 -16.308   4.342  1.00  0.00     0.278 HD
HETATM    4  H   UNL     1      40.951 -16.285   3.203  1.00  0.00     0.278 HD
HETATM    5  C   UNL     1      41.668 -16.408   5.196  1.00  0.00     0.209 C 
HETATM    6  C   UNL     1      41.435 -15.664   6.543  1.00  0.00     0.115 C 
HETATM    7  N   UNL     1      41.144 -14.238   6.415  1.00  0.00    -0.353 N 
HETATM    8  C   UNL     1      40.284 -13.783   5.443  1.00  0.00     0.249 C 
HETATM    9  O   UNL     1      39.473 -12.906   5.703  1.00  0.00    -0.271 OA
HETATM   10  C   UNL     1      43.103 -16.417   4.656  1.00  0.00     0.035 C 
HETATM   11  C   UNL     1      44.151 -16.624   5.744  1.00  0.00     0.002 C 
HETATM   12  C   UNL     1      43.946 -15.659   6.903  1.00  0.00     0.002 C 
HETATM   13  C   UNL     1      42.577 -15.880   7.538  1.00  0.00     0.027 C 
HETATM   14  H   UNL     1      40.952 -13.753   7.292  1.00  0.00     0.163 HD
ENDROOT
BRANCH   1  15
HETATM   15  C   UNL     1      41.671 -13.716   3.356  1.00  0.00     0.146 C 
BRANCH  15  16
HETATM   16  C   UNL     1      41.708 -14.070   1.885  1.00  0.00     0.224 C 
HETATM   17  N   UNL     1      41.260 -13.019   1.107  1.00  0.00    -0.327 N 
HETATM   18  H   UNL     1      41.237 -12.096   1.520  1.00  0.00     0.169 HD
HETATM   19  O   UNL     1      42.105 -15.161   1.511  1.00  0.00    -0.273 OA
BRANCH  17  20
HETATM   20  C   UNL     1      40.784 -13.083  -0.217  1.00  0.00     0.035 A 
HETATM   21  C   UNL     1      40.060 -14.161  -0.727  1.00  0.00     0.036 A 
HETATM   22  C   UNL     1      39.525 -14.107  -2.025  1.00  0.00    -0.059 A 
HETATM   23  C   UNL     1      38.736 -15.257  -2.578  1.00  0.00     0.048 C 
HETATM   24  C   UNL     1      39.752 -12.972  -2.815  1.00  0.00     0.013 A 
HETATM   25  C   UNL     1      40.475 -11.884  -2.317  1.00  0.00    -0.059 A 
HETATM   26  C   UNL     1      40.993 -11.953  -1.018  1.00  0.00     0.036 A 
HETATM   27  C   UNL     1      40.717 -10.681  -3.181  1.00  0.00     0.048 C 
ENDBRANCH  17  20
ENDBRANCH  15  16
ENDBRANCH   1  15
TORSDOF 3
ENDMDL
MODEL 7
REMARK VINA RESULT:      -7.4      2.604      7.544
REMARK  3 active torsions:
REMARK  status: ('A' for Active; 'I' for Inactive)
REMARK    1  A    between atoms: C_4  and  N_5 
REMARK       I    between atoms: N_5  and  C_6 
REMARK    2  A    between atoms: C_6  and  C_7 
REMARK    3  A    between atoms: C_7  and  C_8 
ROOT
HETATM    1  C   UNL     1      40.280 -13.664   4.064  1.00  0.00     0.286 C 
HETATM    2  N   UNL     1      40.435 -15.182   3.816  1.00  0.00    -0.056 N 
HETATM    3  H   UNL     1      39.480 -15.565   3.881  1.00  0.00     0.278 HD
HETATM    4  H   UNL     1      40.725 -15.355   2.844  1.00  0.00     0.278 HD
HETATM    5  C   UNL     1      41.299 -15.957   4.796  1.00  0.00     0.209 C 
HETATM    6  C   UNL     1      41.007 -15.519   6.260  1.00  0.00     0.115 C 
HETATM    7  N   UNL     1      40.784 -14.086   6.440  1.00  0.00    -0.353 N 
HETATM    8  C   UNL     1      40.012 -13.379   5.548  1.00  0.00     0.249 C 
HETATM    9  O   UNL     1      39.222 -12.538   5.953  1.00  0.00    -0.271 OA
HETATM   10  C   UNL     1      42.766 -15.926   4.350  1.00  0.00     0.035 C 
HETATM   11  C   UNL     1      43.728 -16.427   5.420  1.00  0.00     0.002 C 
HETATM   12  C   UNL     1      43.485 -15.734   6.754  1.00  0.00     0.002 C 
HETATM   13  C   UNL     1      42.068 -16.014   7.244  1.00  0.00     0.027 C 
HETATM   14  H   UNL     1      40.554 -13.798   7.391  1.00  0.00     0.163 HD
ENDROOT
BRANCH   1  15
HETATM   15  C   UNL     1      41.538 -12.928   3.612  1.00  0.00     0.146 C 
BRANCH  15  16
HETATM   16  C   UNL     1      41.771 -13.123   2.130  1.00  0.00     0.224 C 
HETATM   17  N   UNL     1      40.951 -12.299   1.382  1.00  0.00    -0.327 N 
HETATM   18  H   UNL     1      40.528 -11.503   1.842  1.00  0.00     0.169 HD
HETATM   19  O   UNL     1      42.604 -13.917   1.723  1.00  0.00    -0.273 OA
BRANCH  17  20
HETATM   20  C   UNL     1      40.593 -12.456   0.030  1.00  0.00     0.035 A 
HETATM   21  C   UNL     1      40.889 -11.520  -0.962  1.00  0.00     0.036 A 
HETATM   22  C   UNL     1      40.595 -11.794  -2.309  1.00  0.00    -0.059 A 
HETATM   23  C   UNL     1      40.920 -10.799  -3.382  1.00  0.00     0.048 C 
HETATM   24  C   UNL     1      39.971 -13.003  -2.643  1.00  0.00     0.013 A 
HETATM   25  C   UNL     1      39.669 -13.950  -1.660  1.00  0.00    -0.059 A 
HETATM   26  C   UNL     1      39.977 -13.663  -0.326  1.00  0.00     0.036 A 
HETATM   27  C   UNL     1      38.991 -15.236  -2.035  1.00  0.00     0.048 C 
ENDBRANCH  17  20
ENDBRANCH  15  16
ENDBRANCH   1  15
TORSDOF 3
ENDMDL
MODEL 8
REMARK VINA RESULT:      -7.4      2.057      7.689
REMARK  3 active torsions:
REMARK  status: ('A' for Active; 'I' for Inactive)
REMARK    1  A    between atoms: C_4  and  N_5 
REMARK       I    between atoms: N_5  and  C_6 
REMARK    2  A    between atoms: C_6  and  C_7 
REMARK    3  A    between atoms: C_7  and  C_8 
ROOT
HETATM    1  C   UNL     1      41.207 -13.789   3.779  1.00  0.00     0.286 C 
HETATM    2  N   UNL     1      40.396 -15.097   3.636  1.00  0.00    -0.056 N 
HETATM    3  H   UNL     1      39.711 -15.075   4.406  1.00  0.00     0.278 HD
HETATM    4  H   UNL     1      39.829 -15.070   2.777  1.00  0.00     0.278 HD
HETATM    5  C   UNL     1      41.163 -16.402   3.751  1.00  0.00     0.209 C 
HETATM    6  C   UNL     1      42.184 -16.344   4.923  1.00  0.00     0.115 C 
HETATM    7  N   UNL     1      42.871 -15.063   5.076  1.00  0.00    -0.353 N 
HETATM    8  C   UNL     1      42.181 -13.879   4.961  1.00  0.00     0.249 C 
HETATM    9  O   UNL     1      42.410 -12.959   5.733  1.00  0.00    -0.271 OA
HETATM   10  C   UNL     1      41.714 -16.817   2.381  1.00  0.00     0.035 C 
HETATM   11  C   UNL     1      42.730 -17.950   2.462  1.00  0.00     0.002 C 
HETATM   12  C   UNL     1      43.816 -17.649   3.487  1.00  0.00     0.002 C 
HETATM   13  C   UNL     1      43.203 -17.484   4.873  1.00  0.00     0.027 C 
HETATM   14  H   UNL     1      43.513 -15.006   5.867  1.00  0.00     0.163 HD
ENDROOT
BRANCH   1  15
HETATM   15  C   UNL     1      41.977 -13.507   2.491  1.00  0.00     0.146 C 
BRANCH  15  16
HETATM   16  C   UNL     1      41.134 -12.701   1.527  1.00  0.00     0.224 C 
HETATM   17  N   UNL     1      40.083 -13.451   1.034  1.00  0.00    -0.327 N 
HETATM   18  H   UNL     1      39.817 -14.287   1.537  1.00  0.00     0.169 HD
HETATM   19  O   UNL     1      41.404 -11.538   1.275  1.00  0.00    -0.273 OA
BRANCH  17  20
HETATM   20  C   UNL     1      39.339 -13.208  -0.136  1.00  0.00     0.035 A 
HETATM   21  C   UNL     1      39.283 -14.091  -1.215  1.00  0.00     0.036 A 
HETATM   22  C   UNL     1      38.433 -13.831  -2.303  1.00  0.00    -0.059 A 
HETATM   23  C   UNL     1      38.359 -14.781  -3.462  1.00  0.00     0.048 C 
HETATM   24  C   UNL     1      37.664 -12.660  -2.310  1.00  0.00     0.013 A 
HETATM   25  C   UNL     1      37.709 -11.766  -1.236  1.00  0.00    -0.059 A 
HETATM   26  C   UNL     1      38.556 -12.046  -0.157  1.00  0.00     0.036 A 
HETATM   27  C   UNL     1      36.887 -10.510  -1.266  1.00  0.00     0.048 C 
ENDBRANCH  17  20
ENDBRANCH  15  16
ENDBRANCH   1  15
TORSDOF 3
ENDMDL
MODEL 9
REMARK VINA RESULT:      -7.2      3.035      4.166
REMARK  3 active torsions:
REMARK  status: ('A' for Active; 'I' for Inactive)
REMARK    1  A    between atoms: C_4  and  N_5 
REMARK       I    between atoms: N_5  and  C_6 
REMARK    2  A    between atoms: C_6  and  C_7 
REMARK    3  A    between atoms: C_7  and  C_8 
ROOT
HETATM    1  C   UNL     1      39.885 -13.389   1.413  1.00  0.00     0.286 C 
HETATM    2  N   UNL     1      38.886 -12.503   0.633  1.00  0.00    -0.056 N 
HETATM    3  H   UNL     1      37.952 -12.834   0.919  1.00  0.00     0.278 HD
HETATM    4  H   UNL     1      38.937 -11.532   0.968  1.00  0.00     0.278 HD
HETATM    5  C   UNL     1      38.942 -12.568  -0.883  1.00  0.00     0.209 C 
HETATM    6  C   UNL     1      39.093 -14.039  -1.370  1.00  0.00     0.115 C 
HETATM    7  N   UNL     1      39.983 -14.866  -0.558  1.00  0.00    -0.353 N 
HETATM    8  C   UNL     1      39.942 -14.801   0.815  1.00  0.00     0.249 C 
HETATM    9  O   UNL     1      40.017 -15.824   1.480  1.00  0.00    -0.271 OA
HETATM   10  C   UNL     1      39.964 -11.560  -1.421  1.00  0.00     0.035 C 
HETATM   11  C   UNL     1      40.289 -11.763  -2.896  1.00  0.00     0.002 C 
HETATM   12  C   UNL     1      40.656 -13.212  -3.188  1.00  0.00     0.002 C 
HETATM   13  C   UNL     1      39.489 -14.132  -2.845  1.00  0.00     0.027 C 
HETATM   14  H   UNL     1      40.056 -15.842  -0.849  1.00  0.00     0.163 HD
ENDROOT
BRANCH   1  15
HETATM   15  C   UNL     1      41.275 -12.757   1.389  1.00  0.00     0.146 C 
BRANCH  15  16
HETATM   16  C   UNL     1      42.173 -13.395   2.425  1.00  0.00     0.224 C 
HETATM   17  N   UNL     1      41.684 -13.197   3.702  1.00  0.00    -0.327 N 
HETATM   18  H   UNL     1      40.712 -12.933   3.805  1.00  0.00     0.169 HD
HETATM   19  O   UNL     1      43.180 -14.002   2.096  1.00  0.00    -0.273 OA
BRANCH  17  20
HETATM   20  C   UNL     1      42.400 -13.282   4.911  1.00  0.00     0.035 A 
HETATM   21  C   UNL     1      42.270 -14.339   5.814  1.00  0.00     0.036 A 
HETATM   22  C   UNL     1      43.097 -14.410   6.947  1.00  0.00    -0.059 A 
HETATM   23  C   UNL     1      42.971 -15.548   7.917  1.00  0.00     0.048 C 
HETATM   24  C   UNL     1      44.033 -13.394   7.181  1.00  0.00     0.013 A 
HETATM   25  C   UNL     1      44.175 -12.331   6.285  1.00  0.00    -0.059 A 
HETATM   26  C   UNL     1      43.348 -12.281   5.157  1.00  0.00     0.036 A 
HETATM   27  C   UNL     1      45.175 -11.244   6.557  1.00  0.00     0.048 C 
ENDBRANCH  17  20
ENDBRANCH  15  16
ENDBRANCH   1  15
TORSDOF 3
ENDMDL
MODEL 10
REMARK VINA RESULT:      -7.2      5.607      7.993
REMARK  3 active torsions:
REMARK  status: ('A' for Active; 'I' for Inactive)
REMARK    1  A    between atoms: C_4  and  N_5 
REMARK       I    between atoms: N_5  and  C_6 
REMARK    2  A    between atoms: C_6  and  C_7 
REMARK    3  A    between atoms: C_7  and  C_8 
ROOT
HETATM    1  C   UNL     1      40.627 -14.111   5.464  1.00  0.00     0.286 C 
HETATM    2  N   UNL     1      40.209 -13.905   3.989  1.00  0.00    -0.056 N 
HETATM    3  H   UNL     1      39.199 -14.113   3.963  1.00  0.00     0.278 HD
HETATM    4  H   UNL     1      40.280 -12.909   3.736  1.00  0.00     0.278 HD
HETATM    5  C   UNL     1      40.879 -14.787   2.951  1.00  0.00     0.209 C 
HETATM    6  C   UNL     1      40.966 -16.259   3.448  1.00  0.00     0.115 C 
HETATM    7  N   UNL     1      41.283 -16.411   4.867  1.00  0.00    -0.353 N 
HETATM    8  C   UNL     1      40.687 -15.605   5.808  1.00  0.00     0.249 C 
HETATM    9  O   UNL     1      40.303 -16.079   6.868  1.00  0.00    -0.271 OA
HETATM   10  C   UNL     1      42.187 -14.146   2.473  1.00  0.00     0.035 C 
HETATM   11  C   UNL     1      43.056 -15.095   1.656  1.00  0.00     0.002 C 
HETATM   12  C   UNL     1      43.259 -16.420   2.377  1.00  0.00     0.002 C 
HETATM   13  C   UNL     1      41.918 -17.109   2.604  1.00  0.00     0.027 C 
HETATM   14  H   UNL     1      41.304 -17.372   5.208  1.00  0.00     0.163 HD
ENDROOT
BRANCH   1  15
HETATM   15  C   UNL     1      41.985 -13.463   5.718  1.00  0.00     0.146 C 
BRANCH  15  16
HETATM   16  C   UNL     1      41.820 -12.031   6.178  1.00  0.00     0.224 C 
HETATM   17  N   UNL     1      43.042 -11.455   6.469  1.00  0.00    -0.327 N 
HETATM   18  H   UNL     1      43.876 -11.893   6.099  1.00  0.00     0.169 HD
HETATM   19  O   UNL     1      40.716 -11.516   6.245  1.00  0.00    -0.273 OA
BRANCH  17  20
HETATM   20  C   UNL     1      43.279 -10.322   7.270  1.00  0.00     0.035 A 
HETATM   21  C   UNL     1      42.654  -9.090   7.072  1.00  0.00     0.036 A 
HETATM   22  C   UNL     1      42.860  -8.035   7.978  1.00  0.00    -0.059 A 
HETATM   23  C   UNL     1      42.183  -6.712   7.779  1.00  0.00     0.048 C 
HETATM   24  C   UNL     1      43.723  -8.222   9.065  1.00  0.00     0.013 A 
HETATM   25  C   UNL     1      44.356  -9.450   9.276  1.00  0.00    -0.059 A 
HETATM   26  C   UNL     1      44.133 -10.492   8.368  1.00  0.00     0.036 A 
HETATM   27  C   UNL     1      45.287  -9.628  10.440  1.00  0.00     0.048 C 
ENDBRANCH  17  20
ENDBRANCH  15  16
ENDBRANCH   1  15
TORSDOF 3
ENDMDL
