MODEL 1
REMARK VINA RESULT:      -8.7      0.000      0.000
REMARK  4 active torsions:
REMARK  status: ('A' for Active; 'I' for Inactive)
REMARK    1  A    between atoms: C_5  and  C_6 
REMARK    2  A    between atoms: C_16  and  C_17 
REMARK       I    between atoms: C_17  and  N_18 
REMARK    3  A    between atoms: N_18  and  C_19 
REMARK    4  A    between atoms: C_20  and  O_21 
ROOT
HETATM    1  C   UNL     1      40.748 -13.206   4.624  1.00  0.00     0.202 C 
HETATM    2  N   UNL     1      39.922 -12.036   4.308  1.00  0.00    -0.083 N 
HETATM    3  C   UNL     1      39.568 -11.676   3.036  1.00  0.00     0.726 A 
HETATM    4  N   UNL     1      38.816 -10.606   3.077  1.00  0.00    -0.046 NA
HETATM    5  C   UNL     1      38.694 -10.371   4.430  1.00  0.00     0.162 A 
HETATM    6  C   UNL     1      37.868  -9.272   4.967  1.00  0.00     0.096 C 
HETATM    7  N   UNL     1      39.344 -11.233   5.225  1.00  0.00    -0.141 NA
HETATM    8  N   UNL     1      39.957 -12.449   1.999  1.00  0.00    -0.192 N 
HETATM    9  C   UNL     1      40.448 -13.742   2.183  1.00  0.00     0.037 C 
HETATM   10  C   UNL     1      40.406 -14.636   0.969  1.00  0.00     0.070 C 
HETATM   11  C   UNL     1      40.829 -14.140   3.424  1.00  0.00     0.062 C 
HETATM   12  H   UNL     1      39.555 -12.236   1.088  1.00  0.00     0.184 HD
ENDROOT
BRANCH  11  13
HETATM   13  C   UNL     1      41.159 -15.546   3.763  1.00  0.00     0.256 C 
HETATM   14  N   UNL     1      42.414 -15.938   3.375  1.00  0.00    -0.321 N 
HETATM   15  H   UNL     1      43.068 -15.233   3.048  1.00  0.00     0.169 HD
HETATM   16  O   UNL     1      40.324 -16.214   4.360  1.00  0.00    -0.267 OA
BRANCH  14  17
HETATM   17  C   UNL     1      42.928 -17.257   3.337  1.00  0.00     0.068 A 
HETATM   18  C   UNL     1      43.737 -17.667   4.418  1.00  0.00     0.095 A 
HETATM   19  C   UNL     1      44.323 -18.938   4.402  1.00  0.00     0.039 A 
HETATM   20  C   UNL     1      44.104 -19.800   3.325  1.00  0.00     0.003 A 
HETATM   21  C   UNL     1      43.299 -19.399   2.264  1.00  0.00     0.002 A 
HETATM   22  C   UNL     1      42.712 -18.133   2.269  1.00  0.00     0.032 A 
BRANCH  18  23
HETATM   23  O   UNL     1      43.906 -16.741   5.421  1.00  0.00    -0.354 OA
HETATM   24  C   UNL     1      43.398 -17.094   6.703  1.00  0.00     0.210 C 
ENDBRANCH  18  23
ENDBRANCH  14  17
ENDBRANCH  11  13
BRANCH   1  25
HETATM   25  C   UNL     1      42.131 -12.757   5.095  1.00  0.00    -0.028 A 
HETATM   26  C   UNL     1      42.649 -13.239   6.306  1.00  0.00     0.010 A 
HETATM   27  C   UNL     1      43.899 -12.816   6.767  1.00  0.00     0.007 A 
HETATM   28  C   UNL     1      44.658 -11.902   6.030  1.00  0.00    -0.062 A 
HETATM   29  C   UNL     1      45.994 -11.429   6.521  1.00  0.00     0.048 C 
HETATM   30  C   UNL     1      44.163 -11.442   4.806  1.00  0.00     0.007 A 
HETATM   31  C   UNL     1      42.915 -11.865   4.341  1.00  0.00     0.010 A 
ENDBRANCH   1  25
TORSDOF 4
ENDMDL
MODEL 2
REMARK VINA RESULT:      -8.3      2.479      6.023
REMARK  4 active torsions:
REMARK  status: ('A' for Active; 'I' for Inactive)
REMARK    1  A    between atoms: C_5  and  C_6 
REMARK    2  A    between atoms: C_16  and  C_17 
REMARK       I    between atoms: C_17  and  N_18 
REMARK    3  A    between atoms: N_18  and  C_19 
REMARK    4  A    between atoms: C_20  and  O_21 
ROOT
HETATM    1  C   UNL     1      41.733 -12.978   2.885  1.00  0.00     0.202 C 
HETATM    2  N   UNL     1      40.845 -12.517   1.813  1.00  0.00    -0.083 N 
HETATM    3  C   UNL     1      39.521 -12.223   1.997  1.00  0.00     0.726 A 
HETATM    4  N   UNL     1      39.002 -11.820   0.866  1.00  0.00    -0.046 NA
HETATM    5  C   UNL     1      40.082 -11.837   0.011  1.00  0.00     0.162 A 
HETATM    6  C   UNL     1      39.982 -11.397  -1.395  1.00  0.00     0.096 C 
HETATM    7  N   UNL     1      41.239 -12.245   0.553  1.00  0.00    -0.141 NA
HETATM    8  N   UNL     1      38.989 -12.317   3.235  1.00  0.00    -0.192 N 
HETATM    9  C   UNL     1      39.785 -12.417   4.376  1.00  0.00     0.037 C 
HETATM   10  C   UNL     1      39.111 -12.056   5.677  1.00  0.00     0.070 C 
HETATM   11  C   UNL     1      41.101 -12.725   4.247  1.00  0.00     0.062 C 
HETATM   12  H   UNL     1      38.047 -11.952   3.362  1.00  0.00     0.184 HD
ENDROOT
BRANCH  11  13
HETATM   13  C   UNL     1      42.070 -12.644   5.368  1.00  0.00     0.256 C 
HETATM   14  N   UNL     1      42.650 -11.411   5.521  1.00  0.00    -0.321 N 
HETATM   15  H   UNL     1      42.277 -10.627   4.994  1.00  0.00     0.169 HD
HETATM   16  O   UNL     1      42.254 -13.641   6.055  1.00  0.00    -0.267 OA
BRANCH  14  17
HETATM   17  C   UNL     1      43.768 -11.082   6.324  1.00  0.00     0.068 A 
HETATM   18  C   UNL     1      43.533 -10.288   7.466  1.00  0.00     0.095 A 
HETATM   19  C   UNL     1      44.610  -9.880   8.261  1.00  0.00     0.039 A 
HETATM   20  C   UNL     1      45.912 -10.261   7.931  1.00  0.00     0.003 A 
HETATM   21  C   UNL     1      46.143 -11.053   6.811  1.00  0.00     0.002 A 
HETATM   22  C   UNL     1      45.076 -11.462   6.009  1.00  0.00     0.032 A 
BRANCH  18  23
HETATM   23  O   UNL     1      42.219  -9.949   7.697  1.00  0.00    -0.354 OA
HETATM   24  C   UNL     1      41.952  -9.218   8.888  1.00  0.00     0.210 C 
ENDBRANCH  18  23
ENDBRANCH  14  17
ENDBRANCH  11  13
BRANCH   1  25
HETATM   25  C   UNL     1      42.077 -14.454   2.680  1.00  0.00    -0.028 A 
HETATM   26  C   UNL     1      41.263 -15.447   3.245  1.00  0.00     0.010 A 
HETATM   27  C   UNL     1      41.579 -16.800   3.094  1.00  0.00     0.007 A 
HETATM   28  C   UNL     1      42.714 -17.191   2.378  1.00  0.00    -0.062 A 
HETATM   29  C   UNL     1      43.071 -18.640   2.222  1.00  0.00     0.048 C 
HETATM   30  C   UNL     1      43.513 -16.209   1.785  1.00  0.00     0.007 A 
HETATM   31  C   UNL     1      43.198 -14.855   1.932  1.00  0.00     0.010 A 
ENDBRANCH   1  25
TORSDOF 4
ENDMDL
MODEL 3
REMARK VINA RESULT:      -8.0      2.598      6.196
REMARK  4 active torsions:
REMARK  status: ('A' for Active; 'I' for Inactive)
REMARK    1  A    between atoms: C_5  and  C_6 
REMARK    2  A    between atoms: C_16  and  C_17 
REMARK       I    between atoms: C_17  and  N_18 
REMARK    3  A    between atoms: N_18  and  C_19 
REMARK    4  A    between atoms: C_20  and  O_21 
ROOT
HETATM    1  C   UNL     1      41.451 -13.078   1.083  1.00  0.00     0.202 C 
HETATM    2  N   UNL     1      40.392 -13.153   0.070  1.00  0.00    -0.083 N 
HETATM    3  C   UNL     1      39.092 -12.793   0.302  1.00  0.00     0.726 A 
HETATM    4  N   UNL     1      38.394 -12.951  -0.793  1.00  0.00    -0.046 NA
HETATM    5  C   UNL     1      39.341 -13.371  -1.702  1.00  0.00     0.162 A 
HETATM    6  C   UNL     1      39.015 -13.626  -3.119  1.00  0.00     0.096 C 
HETATM    7  N   UNL     1      40.586 -13.495  -1.220  1.00  0.00    -0.141 NA
HETATM    8  N   UNL     1      38.748 -12.302   1.512  1.00  0.00    -0.192 N 
HETATM    9  C   UNL     1      39.702 -11.873   2.435  1.00  0.00     0.037 C 
HETATM   10  C   UNL     1      39.198 -10.948   3.514  1.00  0.00     0.070 C 
HETATM   11  C   UNL     1      41.003 -12.220   2.259  1.00  0.00     0.062 C 
HETATM   12  H   UNL     1      37.813 -11.911   1.602  1.00  0.00     0.184 HD
ENDROOT
BRANCH  11  13
HETATM   13  C   UNL     1      42.115 -11.642   3.054  1.00  0.00     0.256 C 
HETATM   14  N   UNL     1      42.278 -12.215   4.289  1.00  0.00    -0.321 N 
HETATM   15  H   UNL     1      41.766 -13.065   4.506  1.00  0.00     0.169 HD
HETATM   16  O   UNL     1      42.787 -10.748   2.555  1.00  0.00    -0.267 OA
BRANCH  14  17
HETATM   17  C   UNL     1      43.075 -11.738   5.358  1.00  0.00     0.068 A 
HETATM   18  C   UNL     1      42.409 -11.101   6.426  1.00  0.00     0.095 A 
HETATM   19  C   UNL     1      43.152 -10.553   7.478  1.00  0.00     0.039 A 
HETATM   20  C   UNL     1      44.545 -10.642   7.476  1.00  0.00     0.003 A 
HETATM   21  C   UNL     1      45.201 -11.278   6.427  1.00  0.00     0.002 A 
HETATM   22  C   UNL     1      44.470 -11.825   5.372  1.00  0.00     0.032 A 
BRANCH  18  23
HETATM   23  O   UNL     1      41.037 -11.049   6.328  1.00  0.00    -0.354 OA
HETATM   24  C   UNL     1      40.395  -9.965   6.989  1.00  0.00     0.210 C 
ENDBRANCH  18  23
ENDBRANCH  14  17
ENDBRANCH  11  13
BRANCH   1  25
HETATM   25  C   UNL     1      41.853 -14.485   1.523  1.00  0.00    -0.028 A 
HETATM   26  C   UNL     1      43.205 -14.859   1.524  1.00  0.00     0.010 A 
HETATM   27  C   UNL     1      43.589 -16.151   1.893  1.00  0.00     0.007 A 
HETATM   28  C   UNL     1      42.631 -17.098   2.268  1.00  0.00    -0.062 A 
HETATM   29  C   UNL     1      43.030 -18.493   2.653  1.00  0.00     0.048 C 
HETATM   30  C   UNL     1      41.284 -16.725   2.301  1.00  0.00     0.007 A 
HETATM   31  C   UNL     1      40.898 -15.432   1.935  1.00  0.00     0.010 A 
ENDBRANCH   1  25
TORSDOF 4
ENDMDL
MODEL 4
REMARK VINA RESULT:      -7.7      3.067      5.734
REMARK  4 active torsions:
REMARK  status: ('A' for Active; 'I' for Inactive)
REMARK    1  A    between atoms: C_5  and  C_6 
REMARK    2  A    between atoms: C_16  and  C_17 
REMARK       I    between atoms: C_17  and  N_18 
REMARK    3  A    between atoms: N_18  and  C_19 
REMARK    4  A    between atoms: C_20  and  O_21 
ROOT
HETATM    1  C   UNL     1      41.020 -12.033   0.419  1.00  0.00     0.202 C 
HETATM    2  N   UNL     1      41.222 -10.604   0.158  1.00  0.00    -0.083 N 
HETATM    3  C   UNL     1      40.614  -9.608   0.871  1.00  0.00     0.726 A 
HETATM    4  N   UNL     1      41.006  -8.444   0.420  1.00  0.00    -0.046 NA
HETATM    5  C   UNL     1      41.913  -8.787  -0.560  1.00  0.00     0.162 A 
HETATM    6  C   UNL     1      42.670  -7.775  -1.323  1.00  0.00     0.096 C 
HETATM    7  N   UNL     1      42.089 -10.103  -0.746  1.00  0.00    -0.141 NA
HETATM    8  N   UNL     1      39.807  -9.932   1.905  1.00  0.00    -0.192 N 
HETATM    9  C   UNL     1      39.795 -11.213   2.459  1.00  0.00     0.037 C 
HETATM   10  C   UNL     1      39.220 -11.317   3.850  1.00  0.00     0.070 C 
HETATM   11  C   UNL     1      40.369 -12.239   1.780  1.00  0.00     0.062 C 
HETATM   12  H   UNL     1      39.490  -9.171   2.501  1.00  0.00     0.184 HD
ENDROOT
BRANCH  11  13
HETATM   13  C   UNL     1      40.597 -13.580   2.372  1.00  0.00     0.256 C 
HETATM   14  N   UNL     1      41.918 -13.886   2.579  1.00  0.00    -0.321 N 
HETATM   15  H   UNL     1      42.612 -13.150   2.477  1.00  0.00     0.169 HD
HETATM   16  O   UNL     1      39.625 -14.274   2.640  1.00  0.00    -0.267 OA
BRANCH  14  17
HETATM   17  C   UNL     1      42.467 -15.151   2.896  1.00  0.00     0.068 A 
HETATM   18  C   UNL     1      42.937 -15.341   4.212  1.00  0.00     0.095 A 
HETATM   19  C   UNL     1      43.547 -16.550   4.563  1.00  0.00     0.039 A 
HETATM   20  C   UNL     1      43.685 -17.569   3.618  1.00  0.00     0.003 A 
HETATM   21  C   UNL     1      43.213 -17.386   2.322  1.00  0.00     0.002 A 
HETATM   22  C   UNL     1      42.606 -16.182   1.961  1.00  0.00     0.032 A 
BRANCH  18  23
HETATM   23  O   UNL     1      42.772 -14.273   5.064  1.00  0.00    -0.354 OA
HETATM   24  C   UNL     1      43.485 -14.327   6.294  1.00  0.00     0.210 C 
ENDBRANCH  18  23
ENDBRANCH  14  17
ENDBRANCH  11  13
BRANCH   1  25
HETATM   25  C   UNL     1      40.197 -12.658  -0.708  1.00  0.00    -0.028 A 
HETATM   26  C   UNL     1      38.823 -12.396  -0.800  1.00  0.00     0.010 A 
HETATM   27  C   UNL     1      38.048 -12.983  -1.805  1.00  0.00     0.007 A 
HETATM   28  C   UNL     1      38.630 -13.846  -2.738  1.00  0.00    -0.062 A 
HETATM   29  C   UNL     1      37.807 -14.494  -3.812  1.00  0.00     0.048 C 
HETATM   30  C   UNL     1      40.005 -14.088  -2.674  1.00  0.00     0.007 A 
HETATM   31  C   UNL     1      40.782 -13.500  -1.672  1.00  0.00     0.010 A 
ENDBRANCH   1  25
TORSDOF 4
ENDMDL
MODEL 5
REMARK VINA RESULT:      -7.2      3.225      6.167
REMARK  4 active torsions:
REMARK  status: ('A' for Active; 'I' for Inactive)
REMARK    1  A    between atoms: C_5  and  C_6 
REMARK    2  A    between atoms: C_16  and  C_17 
REMARK       I    between atoms: C_17  and  N_18 
REMARK    3  A    between atoms: N_18  and  C_19 
REMARK    4  A    between atoms: C_20  and  O_21 
ROOT
HETATM    1  C   UNL     1      40.756 -11.504   0.746  1.00  0.00     0.202 C 
HETATM    2  N   UNL     1      41.105 -10.169   0.251  1.00  0.00    -0.083 N 
HETATM    3  C   UNL     1      40.470  -9.023   0.644  1.00  0.00     0.726 A 
HETATM    4  N   UNL     1      41.015  -7.994   0.048  1.00  0.00    -0.046 NA
HETATM    5  C   UNL     1      42.036  -8.568  -0.678  1.00  0.00     0.162 A 
HETATM    6  C   UNL     1      42.978  -7.766  -1.484  1.00  0.00     0.096 C 
HETATM    7  N   UNL     1      42.139  -9.901  -0.573  1.00  0.00    -0.141 NA
HETATM    8  N   UNL     1      39.488  -9.095   1.569  1.00  0.00    -0.192 N 
HETATM    9  C   UNL     1      39.292 -10.234   2.351  1.00  0.00     0.037 C 
HETATM   10  C   UNL     1      38.500 -10.027   3.618  1.00  0.00     0.070 C 
HETATM   11  C   UNL     1      39.886 -11.400   1.991  1.00  0.00     0.062 C 
HETATM   12  H   UNL     1      39.141  -8.215   1.944  1.00  0.00     0.184 HD
ENDROOT
BRANCH  11  13
HETATM   13  C   UNL     1      39.916 -12.601   2.862  1.00  0.00     0.256 C 
HETATM   14  N   UNL     1      40.969 -12.632   3.741  1.00  0.00    -0.321 N 
HETATM   15  H   UNL     1      41.537 -11.797   3.852  1.00  0.00     0.169 HD
HETATM   16  O   UNL     1      39.021 -13.429   2.748  1.00  0.00    -0.267 OA
BRANCH  14  17
HETATM   17  C   UNL     1      41.405 -13.730   4.520  1.00  0.00     0.068 A 
HETATM   18  C   UNL     1      42.518 -14.457   4.046  1.00  0.00     0.095 A 
HETATM   19  C   UNL     1      42.953 -15.591   4.742  1.00  0.00     0.039 A 
HETATM   20  C   UNL     1      42.294 -15.999   5.904  1.00  0.00     0.003 A 
HETATM   21  C   UNL     1      41.203 -15.276   6.376  1.00  0.00     0.002 A 
HETATM   22  C   UNL     1      40.759 -14.146   5.688  1.00  0.00     0.032 A 
BRANCH  18  23
HETATM   23  O   UNL     1      43.087 -13.986   2.885  1.00  0.00    -0.354 OA
HETATM   24  C   UNL     1      43.348 -14.951   1.872  1.00  0.00     0.210 C 
ENDBRANCH  18  23
ENDBRANCH  14  17
ENDBRANCH  11  13
BRANCH   1  25
HETATM   25  C   UNL     1      40.076 -12.310  -0.360  1.00  0.00    -0.028 A 
HETATM   26  C   UNL     1      38.800 -11.942  -0.811  1.00  0.00     0.010 A 
HETATM   27  C   UNL     1      38.149 -12.686  -1.800  1.00  0.00     0.007 A 
HETATM   28  C   UNL     1      38.759 -13.813  -2.359  1.00  0.00    -0.062 A 
HETATM   29  C   UNL     1      38.064 -14.628  -3.411  1.00  0.00     0.048 C 
HETATM   30  C   UNL     1      40.044 -14.168  -1.939  1.00  0.00     0.007 A 
HETATM   31  C   UNL     1      40.697 -13.425  -0.952  1.00  0.00     0.010 A 
ENDBRANCH   1  25
TORSDOF 4
ENDMDL
MODEL 6
REMARK VINA RESULT:      -7.2      2.240      4.126
REMARK  4 active torsions:
REMARK  status: ('A' for Active; 'I' for Inactive)
REMARK    1  A    between atoms: C_5  and  C_6 
REMARK    2  A    between atoms: C_16  and  C_17 
REMARK       I    between atoms: C_17  and  N_18 
REMARK    3  A    between atoms: N_18  and  C_19 
REMARK    4  A    between atoms: C_20  and  O_21 
ROOT
HETATM    1  C   UNL     1      41.597 -12.050   3.873  1.00  0.00     0.202 C 
HETATM    2  N   UNL     1      41.327 -10.987   4.846  1.00  0.00    -0.083 N 
HETATM    3  C   UNL     1      40.810 -11.212   6.093  1.00  0.00     0.726 A 
HETATM    4  N   UNL     1      40.704 -10.077   6.734  1.00  0.00    -0.046 NA
HETATM    5  C   UNL     1      41.226  -9.170   5.837  1.00  0.00     0.162 A 
HETATM    6  C   UNL     1      41.364  -7.735   6.156  1.00  0.00     0.096 C 
HETATM    7  N   UNL     1      41.636  -9.687   4.669  1.00  0.00    -0.141 NA
HETATM    8  N   UNL     1      40.561 -12.480   6.487  1.00  0.00    -0.192 N 
HETATM    9  C   UNL     1      41.074 -13.581   5.801  1.00  0.00     0.037 C 
HETATM   10  C   UNL     1      41.114 -14.874   6.577  1.00  0.00     0.070 C 
HETATM   11  C   UNL     1      41.582 -13.413   4.553  1.00  0.00     0.062 C 
HETATM   12  H   UNL     1      40.317 -12.621   7.465  1.00  0.00     0.184 HD
ENDROOT
BRANCH  11  13
HETATM   13  C   UNL     1      42.339 -14.466   3.832  1.00  0.00     0.256 C 
HETATM   14  N   UNL     1      41.886 -15.740   4.061  1.00  0.00    -0.321 N 
HETATM   15  H   UNL     1      41.004 -15.865   4.550  1.00  0.00     0.169 HD
HETATM   16  O   UNL     1      43.260 -14.126   3.101  1.00  0.00    -0.267 OA
BRANCH  14  17
HETATM   17  C   UNL     1      42.530 -16.954   3.722  1.00  0.00     0.068 A 
HETATM   18  C   UNL     1      43.384 -17.525   4.689  1.00  0.00     0.095 A 
HETATM   19  C   UNL     1      44.096 -18.690   4.384  1.00  0.00     0.039 A 
HETATM   20  C   UNL     1      43.958 -19.291   3.131  1.00  0.00     0.003 A 
HETATM   21  C   UNL     1      43.108 -18.734   2.181  1.00  0.00     0.002 A 
HETATM   22  C   UNL     1      42.396 -17.570   2.474  1.00  0.00     0.032 A 
BRANCH  18  23
HETATM   23  O   UNL     1      43.467 -16.849   5.885  1.00  0.00    -0.354 OA
HETATM   24  C   UNL     1      44.762 -16.407   6.276  1.00  0.00     0.210 C 
ENDBRANCH  18  23
ENDBRANCH  14  17
ENDBRANCH  11  13
BRANCH   1  25
HETATM   25  C   UNL     1      40.590 -11.974   2.725  1.00  0.00    -0.028 A 
HETATM   26  C   UNL     1      41.043 -11.902   1.400  1.00  0.00     0.010 A 
HETATM   27  C   UNL     1      40.137 -11.801   0.339  1.00  0.00     0.007 A 
HETATM   28  C   UNL     1      38.760 -11.768   0.580  1.00  0.00    -0.062 A 
HETATM   29  C   UNL     1      37.779 -11.644  -0.548  1.00  0.00     0.048 C 
HETATM   30  C   UNL     1      38.299 -11.872   1.896  1.00  0.00     0.007 A 
HETATM   31  C   UNL     1      39.202 -11.976   2.957  1.00  0.00     0.010 A 
ENDBRANCH   1  25
TORSDOF 4
ENDMDL
MODEL 7
REMARK VINA RESULT:      -7.1      3.416      6.062
REMARK  4 active torsions:
REMARK  status: ('A' for Active; 'I' for Inactive)
REMARK    1  A    between atoms: C_5  and  C_6 
REMARK    2  A    between atoms: C_16  and  C_17 
REMARK       I    between atoms: C_17  and  N_18 
REMARK    3  A    between atoms: N_18  and  C_19 
REMARK    4  A    between atoms: C_20  and  O_21 
ROOT
HETATM    1  C   UNL     1      39.688 -12.151   0.734  1.00  0.00     0.202 C 
HETATM    2  N   UNL     1      39.064 -12.737  -0.457  1.00  0.00    -0.083 N 
HETATM    3  C   UNL     1      39.489 -13.897  -1.045  1.00  0.00     0.726 A 
HETATM    4  N   UNL     1      38.726 -14.173  -2.071  1.00  0.00    -0.046 NA
HETATM    5  C   UNL     1      37.795 -13.156  -2.041  1.00  0.00     0.162 A 
HETATM    6  C   UNL     1      36.675 -13.084  -3.000  1.00  0.00     0.096 C 
HETATM    7  N   UNL     1      37.955 -12.259  -1.058  1.00  0.00    -0.141 NA
HETATM    8  N   UNL     1      40.516 -14.580  -0.493  1.00  0.00    -0.192 N 
HETATM    9  C   UNL     1      40.968 -14.318   0.800  1.00  0.00     0.037 C 
HETATM   10  C   UNL     1      41.773 -15.417   1.447  1.00  0.00     0.070 C 
HETATM   11  C   UNL     1      40.588 -13.170   1.419  1.00  0.00     0.062 C 
HETATM   12  H   UNL     1      40.708 -15.507  -0.868  1.00  0.00     0.184 HD
ENDROOT
BRANCH  11  13
HETATM   13  C   UNL     1      40.835 -12.901   2.857  1.00  0.00     0.256 C 
HETATM   14  N   UNL     1      42.147 -12.642   3.163  1.00  0.00    -0.321 N 
HETATM   15  H   UNL     1      42.806 -12.493   2.404  1.00  0.00     0.169 HD
HETATM   16  O   UNL     1      39.882 -12.908   3.626  1.00  0.00    -0.267 OA
BRANCH  14  17
HETATM   17  C   UNL     1      42.734 -12.587   4.450  1.00  0.00     0.068 A 
HETATM   18  C   UNL     1      43.080 -11.314   4.949  1.00  0.00     0.095 A 
HETATM   19  C   UNL     1      43.721 -11.206   6.188  1.00  0.00     0.039 A 
HETATM   20  C   UNL     1      44.011 -12.351   6.933  1.00  0.00     0.003 A 
HETATM   21  C   UNL     1      43.660 -13.606   6.446  1.00  0.00     0.002 A 
HETATM   22  C   UNL     1      43.023 -13.725   5.209  1.00  0.00     0.032 A 
BRANCH  18  23
HETATM   23  O   UNL     1      42.770 -10.249   4.134  1.00  0.00    -0.354 OA
HETATM   24  C   UNL     1      41.698  -9.416   4.560  1.00  0.00     0.210 C 
ENDBRANCH  18  23
ENDBRANCH  14  17
ENDBRANCH  11  13
BRANCH   1  25
HETATM   25  C   UNL     1      40.448 -10.881   0.354  1.00  0.00    -0.028 A 
HETATM   26  C   UNL     1      40.283  -9.713   1.112  1.00  0.00     0.010 A 
HETATM   27  C   UNL     1      40.946  -8.533   0.761  1.00  0.00     0.007 A 
HETATM   28  C   UNL     1      41.788  -8.495  -0.355  1.00  0.00    -0.062 A 
HETATM   29  C   UNL     1      42.494  -7.231  -0.749  1.00  0.00     0.048 C 
HETATM   30  C   UNL     1      41.984  -9.663  -1.096  1.00  0.00     0.007 A 
HETATM   31  C   UNL     1      41.324 -10.844  -0.746  1.00  0.00     0.010 A 
ENDBRANCH   1  25
TORSDOF 4
ENDMDL
MODEL 8
REMARK VINA RESULT:      -7.1     15.956     19.064
REMARK  4 active torsions:
REMARK  status: ('A' for Active; 'I' for Inactive)
REMARK    1  A    between atoms: C_5  and  C_6 
REMARK    2  A    between atoms: C_16  and  C_17 
REMARK       I    between atoms: C_17  and  N_18 
REMARK    3  A    between atoms: N_18  and  C_19 
REMARK    4  A    between atoms: C_20  and  O_21 
ROOT
HETATM    1  C   UNL     1      47.314 -30.608  -0.670  1.00  0.00     0.202 C 
HETATM    2  N   UNL     1      47.536 -29.859   0.571  1.00  0.00    -0.083 N 
HETATM    3  C   UNL     1      47.230 -28.534   0.724  1.00  0.00     0.726 A 
HETATM    4  N   UNL     1      47.520 -28.156   1.943  1.00  0.00    -0.046 NA
HETATM    5  C   UNL     1      47.964 -29.323   2.526  1.00  0.00     0.162 A 
HETATM    6  C   UNL     1      48.359 -29.394   3.947  1.00  0.00     0.096 C 
HETATM    7  N   UNL     1      47.977 -30.399   1.726  1.00  0.00    -0.141 NA
HETATM    8  N   UNL     1      46.656 -27.865  -0.299  1.00  0.00    -0.192 N 
HETATM    9  C   UNL     1      46.096 -28.527  -1.393  1.00  0.00     0.037 C 
HETATM   10  C   UNL     1      45.111 -27.725  -2.207  1.00  0.00     0.070 C 
HETATM   11  C   UNL     1      46.384 -29.837  -1.598  1.00  0.00     0.062 C 
HETATM   12  H   UNL     1      46.310 -26.928  -0.103  1.00  0.00     0.184 HD
ENDROOT
BRANCH  11  13
HETATM   13  C   UNL     1      45.679 -30.680  -2.596  1.00  0.00     0.256 C 
HETATM   14  N   UNL     1      46.167 -30.566  -3.873  1.00  0.00    -0.321 N 
HETATM   15  H   UNL     1      47.040 -30.069  -4.019  1.00  0.00     0.169 HD
HETATM   16  O   UNL     1      44.765 -31.399  -2.212  1.00  0.00    -0.267 OA
BRANCH  14  17
HETATM   17  C   UNL     1      45.571 -31.042  -5.065  1.00  0.00     0.068 A 
HETATM   18  C   UNL     1      46.277 -32.021  -5.795  1.00  0.00     0.095 A 
HETATM   19  C   UNL     1      45.765 -32.480  -7.014  1.00  0.00     0.039 A 
HETATM   20  C   UNL     1      44.557 -31.978  -7.503  1.00  0.00     0.003 A 
HETATM   21  C   UNL     1      43.856 -31.020  -6.779  1.00  0.00     0.002 A 
HETATM   22  C   UNL     1      44.360 -30.552  -5.564  1.00  0.00     0.032 A 
BRANCH  18  23
HETATM   23  O   UNL     1      47.464 -32.438  -5.239  1.00  0.00    -0.354 OA
HETATM   24  C   UNL     1      47.557 -33.819  -4.906  1.00  0.00     0.210 C 
ENDBRANCH  18  23
ENDBRANCH  14  17
ENDBRANCH  11  13
BRANCH   1  25
HETATM   25  C   UNL     1      48.654 -30.921  -1.336  1.00  0.00    -0.028 A 
HETATM   26  C   UNL     1      48.939 -32.230  -1.752  1.00  0.00     0.010 A 
HETATM   27  C   UNL     1      50.171 -32.542  -2.335  1.00  0.00     0.007 A 
HETATM   28  C   UNL     1      51.145 -31.554  -2.514  1.00  0.00    -0.062 A 
HETATM   29  C   UNL     1      52.476 -31.880  -3.124  1.00  0.00     0.048 C 
HETATM   30  C   UNL     1      50.856 -30.241  -2.132  1.00  0.00     0.007 A 
HETATM   31  C   UNL     1      49.624 -29.926  -1.551  1.00  0.00     0.010 A 
ENDBRANCH   1  25
TORSDOF 4
ENDMDL
MODEL 9
REMARK VINA RESULT:      -7.0     16.375     18.050
REMARK  4 active torsions:
REMARK  status: ('A' for Active; 'I' for Inactive)
REMARK    1  A    between atoms: C_5  and  C_6 
REMARK    2  A    between atoms: C_16  and  C_17 
REMARK       I    between atoms: C_17  and  N_18 
REMARK    3  A    between atoms: N_18  and  C_19 
REMARK    4  A    between atoms: C_20  and  O_21 
ROOT
HETATM    1  C   UNL     1      45.553 -30.934  -1.464  1.00  0.00     0.202 C 
HETATM    2  N   UNL     1      45.138 -30.455  -2.786  1.00  0.00    -0.083 N 
HETATM    3  C   UNL     1      45.438 -29.211  -3.272  1.00  0.00     0.726 A 
HETATM    4  N   UNL     1      44.952 -29.085  -4.480  1.00  0.00    -0.046 NA
HETATM    5  C   UNL     1      44.394 -30.323  -4.716  1.00  0.00     0.162 A 
HETATM    6  C   UNL     1      43.763 -30.671  -6.004  1.00  0.00     0.096 C 
HETATM    7  N   UNL     1      44.498 -31.202  -3.709  1.00  0.00    -0.141 NA
HETATM    8  N   UNL     1      46.190 -28.373  -2.526  1.00  0.00    -0.192 N 
HETATM    9  C   UNL     1      46.915 -28.818  -1.420  1.00  0.00     0.037 C 
HETATM   10  C   UNL     1      48.039 -27.917  -0.971  1.00  0.00     0.070 C 
HETATM   11  C   UNL     1      46.642 -30.037  -0.890  1.00  0.00     0.062 C 
HETATM   12  H   UNL     1      46.515 -27.519  -2.975  1.00  0.00     0.184 HD
ENDROOT
BRANCH  11  13
HETATM   13  C   UNL     1      47.491 -30.686   0.140  1.00  0.00     0.256 C 
HETATM   14  N   UNL     1      47.737 -29.904   1.240  1.00  0.00    -0.321 N 
HETATM   15  H   UNL     1      47.215 -29.040   1.352  1.00  0.00     0.169 HD
HETATM   16  O   UNL     1      47.872 -31.833  -0.054  1.00  0.00    -0.267 OA
BRANCH  14  17
HETATM   17  C   UNL     1      48.687 -30.136   2.262  1.00  0.00     0.068 A 
HETATM   18  C   UNL     1      48.194 -30.360   3.565  1.00  0.00     0.095 A 
HETATM   19  C   UNL     1      49.090 -30.531   4.626  1.00  0.00     0.039 A 
HETATM   20  C   UNL     1      50.467 -30.489   4.397  1.00  0.00     0.003 A 
HETATM   21  C   UNL     1      50.954 -30.279   3.111  1.00  0.00     0.002 A 
HETATM   22  C   UNL     1      50.068 -30.103   2.047  1.00  0.00     0.032 A 
BRANCH  18  23
HETATM   23  O   UNL     1      46.824 -30.365   3.691  1.00  0.00    -0.354 OA
HETATM   24  C   UNL     1      46.236 -31.571   4.166  1.00  0.00     0.210 C 
ENDBRANCH  18  23
ENDBRANCH  14  17
ENDBRANCH  11  13
BRANCH   1  25
HETATM   25  C   UNL     1      44.341 -31.026  -0.538  1.00  0.00    -0.028 A 
HETATM   26  C   UNL     1      43.836 -29.867   0.071  1.00  0.00     0.010 A 
HETATM   27  C   UNL     1      42.747 -29.936   0.945  1.00  0.00     0.007 A 
HETATM   28  C   UNL     1      42.140 -31.163   1.231  1.00  0.00    -0.062 A 
HETATM   29  C   UNL     1      40.980 -31.251   2.179  1.00  0.00     0.048 C 
HETATM   30  C   UNL     1      42.616 -32.317   0.603  1.00  0.00     0.007 A 
HETATM   31  C   UNL     1      43.703 -32.251  -0.273  1.00  0.00     0.010 A 
ENDBRANCH   1  25
TORSDOF 4
ENDMDL
MODEL 10
REMARK VINA RESULT:      -7.0     11.718     15.469
REMARK  4 active torsions:
REMARK  status: ('A' for Active; 'I' for Inactive)
REMARK    1  A    between atoms: C_5  and  C_6 
REMARK    2  A    between atoms: C_16  and  C_17 
REMARK       I    between atoms: C_17  and  N_18 
REMARK    3  A    between atoms: N_18  and  C_19 
REMARK    4  A    between atoms: C_20  and  O_21 
ROOT
HETATM    1  C   UNL     1      40.649  -6.865  16.687  1.00  0.00     0.202 C 
HETATM    2  N   UNL     1      41.477  -6.907  17.896  1.00  0.00    -0.083 N 
HETATM    3  C   UNL     1      41.964  -5.792  18.523  1.00  0.00     0.726 A 
HETATM    4  N   UNL     1      42.647  -6.149  19.580  1.00  0.00    -0.046 NA
HETATM    5  C   UNL     1      42.506  -7.520  19.588  1.00  0.00     0.162 A 
HETATM    6  C   UNL     1      43.075  -8.366  20.655  1.00  0.00     0.096 C 
HETATM    7  N   UNL     1      41.782  -8.029  18.580  1.00  0.00    -0.141 NA
HETATM    8  N   UNL     1      41.646  -4.571  18.043  1.00  0.00    -0.192 N 
HETATM    9  C   UNL     1      40.614  -4.386  17.121  1.00  0.00     0.037 C 
HETATM   10  C   UNL     1      40.070  -2.982  17.024  1.00  0.00     0.070 C 
HETATM   11  C   UNL     1      40.110  -5.458  16.459  1.00  0.00     0.062 C 
HETATM   12  H   UNL     1      41.901  -3.769  18.614  1.00  0.00     0.184 HD
ENDROOT
BRANCH  11  13
HETATM   13  C   UNL     1      38.882  -5.399  15.628  1.00  0.00     0.256 C 
HETATM   14  N   UNL     1      38.959  -4.526  14.574  1.00  0.00    -0.321 N 
HETATM   15  H   UNL     1      39.860  -4.120  14.340  1.00  0.00     0.169 HD
HETATM   16  O   UNL     1      37.941  -6.124  15.925  1.00  0.00    -0.267 OA
BRANCH  14  17
HETATM   17  C   UNL     1      37.896  -4.071  13.757  1.00  0.00     0.068 A 
HETATM   18  C   UNL     1      37.745  -4.681  12.494  1.00  0.00     0.095 A 
HETATM   19  C   UNL     1      36.751  -4.227  11.620  1.00  0.00     0.039 A 
HETATM   20  C   UNL     1      35.907  -3.180  11.997  1.00  0.00     0.003 A 
HETATM   21  C   UNL     1      36.049  -2.586  13.246  1.00  0.00     0.002 A 
HETATM   22  C   UNL     1      37.040  -3.028  14.124  1.00  0.00     0.032 A 
BRANCH  18  23
HETATM   23  O   UNL     1      38.635  -5.690  12.209  1.00  0.00    -0.354 OA
HETATM   24  C   UNL     1      38.103  -7.008  12.155  1.00  0.00     0.210 C 
ENDBRANCH  18  23
ENDBRANCH  14  17
ENDBRANCH  11  13
BRANCH   1  25
HETATM   25  C   UNL     1      41.449  -7.371  15.487  1.00  0.00    -0.028 A 
HETATM   26  C   UNL     1      42.574  -6.659  15.046  1.00  0.00     0.010 A 
HETATM   27  C   UNL     1      43.300  -7.090  13.931  1.00  0.00     0.007 A 
HETATM   28  C   UNL     1      42.918  -8.239  13.233  1.00  0.00    -0.062 A 
HETATM   29  C   UNL     1      43.680  -8.703  12.028  1.00  0.00     0.048 C 
HETATM   30  C   UNL     1      41.817  -8.973  13.686  1.00  0.00     0.007 A 
HETATM   31  C   UNL     1      41.091  -8.546  14.801  1.00  0.00     0.010 A 
ENDBRANCH   1  25
TORSDOF 4
ENDMDL
