MODEL 1
REMARK VINA RESULT:      -8.6      0.000      0.000
REMARK  7 active torsions:
REMARK  status: ('A' for Active; 'I' for Inactive)
REMARK    1  A    between atoms: C_2  and  N_3 
REMARK    2  A    between atoms: N_3  and  C_4 
REMARK    3  A    between atoms: C_4  and  N_5 
REMARK    4  A    between atoms: N_5  and  N_6 
REMARK    5  A    between atoms: N_6  and  C_7 
REMARK    6  A    between atoms: N_8  and  C_9 
REMARK    7  A    between atoms: C_10  and  O_11 
ROOT
HETATM    1  C   UNL     1      40.946 -15.663   2.435  1.00  0.00     0.729 C 
HETATM    2  N   UNL     1      40.978 -14.652   3.385  1.00  0.00    -0.105 N 
HETATM    3  C   UNL     1      40.298 -13.465   3.159  1.00  0.00     0.276 C 
HETATM    4  O   UNL     1      39.880 -12.737   4.060  1.00  0.00    -0.266 OA
HETATM    5  C   UNL     1      39.977 -13.154   1.739  1.00  0.00     0.050 C 
HETATM    6  C   UNL     1      40.034 -14.204   0.896  1.00  0.00     0.099 C 
HETATM    7  C   UNL     1      39.599 -14.014  -0.515  1.00  0.00     0.000 A 
HETATM    8  C   UNL     1      39.455 -12.722  -1.041  1.00  0.00    -0.044 A 
HETATM    9  C   UNL     1      39.068 -12.538  -2.378  1.00  0.00     0.008 A 
HETATM   10  C   UNL     1      38.804 -13.637  -3.191  1.00  0.00     0.001 A 
HETATM   11  C   UNL     1      38.932 -14.924  -2.678  1.00  0.00     0.001 A 
HETATM   12  C   UNL     1      39.329 -15.109  -1.351  1.00  0.00     0.014 A 
HETATM   13  C   UNL     1      39.801 -11.535  -0.185  1.00  0.00     0.054 C 
HETATM   14  C   UNL     1      39.512 -11.741   1.336  1.00  0.00    -0.002 C 
HETATM   15  C   UNL     1      37.988 -11.632   1.631  1.00  0.00     0.015 C 
HETATM   16  C   UNL     1      37.402 -10.236   1.405  1.00  0.00     0.001 C 
HETATM   17  C   UNL     1      38.185  -9.160   2.147  1.00  0.00     0.000 C 
HETATM   18  C   UNL     1      39.672  -9.204   1.813  1.00  0.00     0.001 C 
HETATM   19  C   UNL     1      40.264 -10.593   2.079  1.00  0.00     0.015 C 
HETATM   20  N   UNL     1      40.448 -15.465   1.245  1.00  0.00    -0.061 NA
ENDROOT
BRANCH   1  21
HETATM   21  N   UNL     1      41.470 -16.906   2.753  1.00  0.00    -0.127 N 
HETATM   22  H   UNL     1      41.314 -17.239   3.705  1.00  0.00     0.205 HD
BRANCH  21  23
HETATM   23  N   UNL     1      42.750 -17.199   2.255  1.00  0.00    -0.262 N 
HETATM   24  H   UNL     1      43.283 -16.365   2.014  1.00  0.00     0.190 HD
BRANCH  23  25
HETATM   25  C   UNL     1      43.388 -18.346   2.652  1.00  0.00     0.186 C 
HETATM   26  S   UNL     1      43.124 -19.870   2.008  1.00  0.00    -0.040 SA
BRANCH  25  27
HETATM   27  N   UNL     1      44.356 -18.209   3.602  1.00  0.00    -0.366 N 
HETATM   28  H   UNL     1      45.298 -18.292   3.237  1.00  0.00     0.161 HD
BRANCH  27  29
HETATM   29  C   UNL     1      44.216 -17.662   4.941  1.00  0.00     0.117 C 
HETATM   30  C   UNL     1      43.595 -18.666   5.897  1.00  0.00     0.026 C 
ENDBRANCH  27  29
ENDBRANCH  25  27
ENDBRANCH  23  25
ENDBRANCH  21  23
ENDBRANCH   1  21
BRANCH   2  31
HETATM   31  C   UNL     1      41.459 -14.879   4.711  1.00  0.00     0.094 A 
HETATM   32  C   UNL     1      42.650 -14.256   5.138  1.00  0.00     0.096 A 
HETATM   33  C   UNL     1      43.114 -14.494   6.435  1.00  0.00     0.039 A 
HETATM   34  C   UNL     1      42.406 -15.337   7.298  1.00  0.00     0.003 A 
HETATM   35  C   UNL     1      41.229 -15.951   6.874  1.00  0.00     0.002 A 
HETATM   36  C   UNL     1      40.755 -15.723   5.585  1.00  0.00     0.034 A 
BRANCH  32  37
HETATM   37  O   UNL     1      43.306 -13.499   4.200  1.00  0.00    -0.354 OA
HETATM   38  C   UNL     1      43.501 -12.121   4.490  1.00  0.00     0.210 C 
ENDBRANCH  32  37
ENDBRANCH   2  31
TORSDOF 7
ENDMDL
MODEL 2
REMARK VINA RESULT:      -8.6      2.836      6.464
REMARK  7 active torsions:
REMARK  status: ('A' for Active; 'I' for Inactive)
REMARK    1  A    between atoms: C_2  and  N_3 
REMARK    2  A    between atoms: N_3  and  C_4 
REMARK    3  A    between atoms: C_4  and  N_5 
REMARK    4  A    between atoms: N_5  and  N_6 
REMARK    5  A    between atoms: N_6  and  C_7 
REMARK    6  A    between atoms: N_8  and  C_9 
REMARK    7  A    between atoms: C_10  and  O_11 
ROOT
HETATM    1  C   UNL     1      40.983 -14.745   5.188  1.00  0.00     0.729 C 
HETATM    2  N   UNL     1      42.325 -15.015   5.415  1.00  0.00    -0.105 N 
HETATM    3  C   UNL     1      43.110 -14.105   6.105  1.00  0.00     0.276 C 
HETATM    4  O   UNL     1      44.115 -14.417   6.744  1.00  0.00    -0.266 OA
HETATM    5  C   UNL     1      42.607 -12.703   6.145  1.00  0.00     0.050 C 
HETATM    6  C   UNL     1      41.300 -12.556   5.850  1.00  0.00     0.099 C 
HETATM    7  C   UNL     1      40.681 -11.211   5.996  1.00  0.00     0.000 A 
HETATM    8  C   UNL     1      41.490 -10.070   6.108  1.00  0.00    -0.044 A 
HETATM    9  C   UNL     1      40.910  -8.797   6.220  1.00  0.00     0.008 A 
HETATM   10  C   UNL     1      39.525  -8.653   6.243  1.00  0.00     0.001 A 
HETATM   11  C   UNL     1      38.712  -9.778   6.145  1.00  0.00     0.001 A 
HETATM   12  C   UNL     1      39.287 -11.045   6.019  1.00  0.00     0.014 A 
HETATM   13  C   UNL     1      42.983 -10.214   6.019  1.00  0.00     0.054 C 
HETATM   14  C   UNL     1      43.529 -11.556   6.602  1.00  0.00    -0.002 C 
HETATM   15  C   UNL     1      43.527 -11.527   8.158  1.00  0.00     0.015 C 
HETATM   16  C   UNL     1      44.504 -10.520   8.770  1.00  0.00     0.001 C 
HETATM   17  C   UNL     1      45.916 -10.690   8.224  1.00  0.00     0.000 C 
HETATM   18  C   UNL     1      45.948 -10.648   6.700  1.00  0.00     0.001 C 
HETATM   19  C   UNL     1      44.998 -11.686   6.092  1.00  0.00     0.015 C 
HETATM   20  N   UNL     1      40.472 -13.571   5.441  1.00  0.00    -0.061 NA
ENDROOT
BRANCH   1  21
HETATM   21  N   UNL     1      40.172 -15.740   4.666  1.00  0.00    -0.127 N 
HETATM   22  H   UNL     1      40.085 -16.596   5.215  1.00  0.00     0.205 HD
BRANCH  21  23
HETATM   23  N   UNL     1      40.259 -15.964   3.282  1.00  0.00    -0.262 N 
HETATM   24  H   UNL     1      40.206 -16.951   3.035  1.00  0.00     0.190 HD
BRANCH  23  25
HETATM   25  C   UNL     1      39.823 -15.001   2.409  1.00  0.00     0.186 C 
HETATM   26  S   UNL     1      40.089 -15.006   0.755  1.00  0.00    -0.040 SA
BRANCH  25  27
HETATM   27  N   UNL     1      39.061 -13.999   2.933  1.00  0.00    -0.366 N 
HETATM   28  H   UNL     1      38.867 -14.112   3.922  1.00  0.00     0.161 HD
BRANCH  27  29
HETATM   29  C   UNL     1      38.787 -12.695   2.355  1.00  0.00     0.117 C 
HETATM   30  C   UNL     1      39.997 -11.779   2.434  1.00  0.00     0.026 C 
ENDBRANCH  27  29
ENDBRANCH  25  27
ENDBRANCH  23  25
ENDBRANCH  21  23
ENDBRANCH   1  21
BRANCH   2  31
HETATM   31  C   UNL     1      42.877 -16.316   5.205  1.00  0.00     0.094 A 
HETATM   32  C   UNL     1      43.444 -16.640   3.955  1.00  0.00     0.096 A 
HETATM   33  C   UNL     1      43.973 -17.920   3.760  1.00  0.00     0.039 A 
HETATM   34  C   UNL     1      43.942 -18.864   4.792  1.00  0.00     0.003 A 
HETATM   35  C   UNL     1      43.383 -18.541   6.025  1.00  0.00     0.002 A 
HETATM   36  C   UNL     1      42.852 -17.271   6.234  1.00  0.00     0.034 A 
BRANCH  32  37
HETATM   37  O   UNL     1      43.369 -15.670   2.987  1.00  0.00    -0.354 OA
HETATM   38  C   UNL     1      43.487 -16.086   1.633  1.00  0.00     0.210 C 
ENDBRANCH  32  37
ENDBRANCH   2  31
TORSDOF 7
ENDMDL
MODEL 3
REMARK VINA RESULT:      -8.5      1.582      2.350
REMARK  7 active torsions:
REMARK  status: ('A' for Active; 'I' for Inactive)
REMARK    1  A    between atoms: C_2  and  N_3 
REMARK    2  A    between atoms: N_3  and  C_4 
REMARK    3  A    between atoms: C_4  and  N_5 
REMARK    4  A    between atoms: N_5  and  N_6 
REMARK    5  A    between atoms: N_6  and  C_7 
REMARK    6  A    between atoms: N_8  and  C_9 
REMARK    7  A    between atoms: C_10  and  O_11 
ROOT
HETATM    1  C   UNL     1      41.786 -14.137   1.858  1.00  0.00     0.729 C 
HETATM    2  N   UNL     1      41.661 -12.959   2.583  1.00  0.00    -0.105 N 
HETATM    3  C   UNL     1      40.596 -12.105   2.343  1.00  0.00     0.276 C 
HETATM    4  O   UNL     1      40.141 -11.329   3.184  1.00  0.00    -0.266 OA
HETATM    5  C   UNL     1      39.924 -12.251   1.022  1.00  0.00     0.050 C 
HETATM    6  C   UNL     1      40.164 -13.414   0.383  1.00  0.00     0.099 C 
HETATM    7  C   UNL     1      39.428 -13.702  -0.878  1.00  0.00     0.000 A 
HETATM    8  C   UNL     1      38.765 -12.671  -1.560  1.00  0.00    -0.044 A 
HETATM    9  C   UNL     1      38.091 -12.934  -2.763  1.00  0.00     0.008 A 
HETATM   10  C   UNL     1      38.056 -14.225  -3.282  1.00  0.00     0.001 A 
HETATM   11  C   UNL     1      38.700 -15.259  -2.610  1.00  0.00     0.001 A 
HETATM   12  C   UNL     1      39.383 -14.997  -1.418  1.00  0.00     0.014 A 
HETATM   13  C   UNL     1      38.855 -11.265  -1.037  1.00  0.00     0.054 C 
HETATM   14  C   UNL     1      38.949 -11.169   0.519  1.00  0.00    -0.002 C 
HETATM   15  C   UNL     1      37.561 -11.428   1.176  1.00  0.00     0.015 C 
HETATM   16  C   UNL     1      36.513 -10.354   0.876  1.00  0.00     0.001 C 
HETATM   17  C   UNL     1      37.021  -8.954   1.197  1.00  0.00     0.000 C 
HETATM   18  C   UNL     1      38.346  -8.654   0.502  1.00  0.00     0.001 C 
HETATM   19  C   UNL     1      39.404  -9.711   0.838  1.00  0.00     0.015 C 
HETATM   20  N   UNL     1      41.032 -14.382   0.822  1.00  0.00    -0.061 NA
ENDROOT
BRANCH   1  21
HETATM   21  N   UNL     1      42.743 -15.065   2.236  1.00  0.00    -0.127 N 
HETATM   22  H   UNL     1      43.518 -15.213   1.589  1.00  0.00     0.205 HD
BRANCH  21  23
HETATM   23  N   UNL     1      42.276 -16.244   2.838  1.00  0.00    -0.262 N 
HETATM   24  H   UNL     1      41.470 -16.643   2.360  1.00  0.00     0.190 HD
BRANCH  23  25
HETATM   25  C   UNL     1      43.148 -17.048   3.527  1.00  0.00     0.186 C 
HETATM   26  S   UNL     1      43.371 -17.032   5.187  1.00  0.00    -0.040 SA
BRANCH  25  27
HETATM   27  N   UNL     1      43.836 -17.971   2.796  1.00  0.00    -0.366 N 
HETATM   28  H   UNL     1      44.518 -17.564   2.166  1.00  0.00     0.161 HD
BRANCH  27  29
HETATM   29  C   UNL     1      43.935 -19.401   3.037  1.00  0.00     0.117 C 
HETATM   30  C   UNL     1      43.179 -20.201   1.990  1.00  0.00     0.026 C 
ENDBRANCH  27  29
ENDBRANCH  25  27
ENDBRANCH  23  25
ENDBRANCH  21  23
ENDBRANCH   1  21
BRANCH   2  31
HETATM   31  C   UNL     1      42.435 -12.713   3.758  1.00  0.00     0.094 A 
HETATM   32  C   UNL     1      42.124 -13.391   4.955  1.00  0.00     0.096 A 
HETATM   33  C   UNL     1      42.884 -13.133   6.099  1.00  0.00     0.039 A 
HETATM   34  C   UNL     1      43.940 -12.216   6.058  1.00  0.00     0.003 A 
HETATM   35  C   UNL     1      44.246 -11.549   4.875  1.00  0.00     0.002 A 
HETATM   36  C   UNL     1      43.497 -11.794   3.727  1.00  0.00     0.034 A 
BRANCH  32  37
HETATM   37  O   UNL     1      41.032 -14.221   4.912  1.00  0.00    -0.354 OA
HETATM   38  C   UNL     1      40.432 -14.577   6.151  1.00  0.00     0.210 C 
ENDBRANCH  32  37
ENDBRANCH   2  31
TORSDOF 7
ENDMDL
MODEL 4
REMARK VINA RESULT:      -8.3      3.840      6.722
REMARK  7 active torsions:
REMARK  status: ('A' for Active; 'I' for Inactive)
REMARK    1  A    between atoms: C_2  and  N_3 
REMARK    2  A    between atoms: N_3  and  C_4 
REMARK    3  A    between atoms: C_4  and  N_5 
REMARK    4  A    between atoms: N_5  and  N_6 
REMARK    5  A    between atoms: N_6  and  C_7 
REMARK    6  A    between atoms: N_8  and  C_9 
REMARK    7  A    between atoms: C_10  and  O_11 
ROOT
HETATM    1  C   UNL     1      42.583 -12.989   6.033  1.00  0.00     0.729 C 
HETATM    2  N   UNL     1      41.868 -12.215   5.130  1.00  0.00    -0.105 N 
HETATM    3  C   UNL     1      41.315 -12.798   4.000  1.00  0.00     0.276 C 
HETATM    4  O   UNL     1      40.327 -12.351   3.416  1.00  0.00    -0.266 OA
HETATM    5  C   UNL     1      41.910 -14.095   3.574  1.00  0.00     0.050 C 
HETATM    6  C   UNL     1      42.631 -14.731   4.519  1.00  0.00     0.099 C 
HETATM    7  C   UNL     1      43.149 -16.095   4.226  1.00  0.00     0.000 A 
HETATM    8  C   UNL     1      43.180 -16.570   2.906  1.00  0.00    -0.044 A 
HETATM    9  C   UNL     1      43.691 -17.846   2.623  1.00  0.00     0.008 A 
HETATM   10  C   UNL     1      44.154 -18.663   3.651  1.00  0.00     0.001 A 
HETATM   11  C   UNL     1      44.118 -18.209   4.965  1.00  0.00     0.001 A 
HETATM   12  C   UNL     1      43.622 -16.933   5.248  1.00  0.00     0.014 A 
HETATM   13  C   UNL     1      42.741 -15.666   1.788  1.00  0.00     0.054 C 
HETATM   14  C   UNL     1      41.600 -14.675   2.181  1.00  0.00    -0.002 C 
HETATM   15  C   UNL     1      40.230 -15.408   2.257  1.00  0.00     0.015 C 
HETATM   16  C   UNL     1      39.719 -15.928   0.911  1.00  0.00     0.001 C 
HETATM   17  C   UNL     1      39.702 -14.839  -0.154  1.00  0.00     0.000 C 
HETATM   18  C   UNL     1      41.060 -14.157  -0.295  1.00  0.00     0.001 C 
HETATM   19  C   UNL     1      41.548 -13.603   1.048  1.00  0.00     0.015 C 
HETATM   20  N   UNL     1      42.914 -14.222   5.762  1.00  0.00    -0.061 NA
ENDROOT
BRANCH   1  21
HETATM   21  N   UNL     1      42.966 -12.434   7.244  1.00  0.00    -0.127 N 
HETATM   22  H   UNL     1      42.298 -11.805   7.692  1.00  0.00     0.205 HD
BRANCH  21  23
HETATM   23  N   UNL     1      44.300 -12.010   7.350  1.00  0.00    -0.262 N 
HETATM   24  H   UNL     1      44.865 -12.266   6.542  1.00  0.00     0.190 HD
BRANCH  23  25
HETATM   25  C   UNL     1      44.602 -10.894   8.088  1.00  0.00     0.186 C 
HETATM   26  S   UNL     1      45.972  -9.950   7.894  1.00  0.00    -0.040 SA
BRANCH  25  27
HETATM   27  N   UNL     1      43.675 -10.498   9.006  1.00  0.00    -0.366 N 
HETATM   28  H   UNL     1      42.749 -10.361   8.615  1.00  0.00     0.161 HD
BRANCH  27  29
HETATM   29  C   UNL     1      43.773 -10.566  10.454  1.00  0.00     0.117 C 
HETATM   30  C   UNL     1      44.083  -9.208  11.061  1.00  0.00     0.026 C 
ENDBRANCH  27  29
ENDBRANCH  25  27
ENDBRANCH  23  25
ENDBRANCH  21  23
ENDBRANCH   1  21
BRANCH   2  31
HETATM   31  C   UNL     1      41.443 -10.888   5.446  1.00  0.00     0.094 A 
HETATM   32  C   UNL     1      40.354 -10.693   6.320  1.00  0.00     0.096 A 
HETATM   33  C   UNL     1      39.943  -9.389   6.614  1.00  0.00     0.039 A 
HETATM   34  C   UNL     1      40.605  -8.293   6.050  1.00  0.00     0.003 A 
HETATM   35  C   UNL     1      41.681  -8.489   5.187  1.00  0.00     0.002 A 
HETATM   36  C   UNL     1      42.101  -9.781   4.885  1.00  0.00     0.034 A 
BRANCH  32  37
HETATM   37  O   UNL     1      39.730 -11.829   6.772  1.00  0.00    -0.354 OA
HETATM   38  C   UNL     1      38.411 -12.081   6.306  1.00  0.00     0.210 C 
ENDBRANCH  32  37
ENDBRANCH   2  31
TORSDOF 7
ENDMDL
MODEL 5
REMARK VINA RESULT:      -8.1      2.845      7.440
REMARK  7 active torsions:
REMARK  status: ('A' for Active; 'I' for Inactive)
REMARK    1  A    between atoms: C_2  and  N_3 
REMARK    2  A    between atoms: N_3  and  C_4 
REMARK    3  A    between atoms: C_4  and  N_5 
REMARK    4  A    between atoms: N_5  and  N_6 
REMARK    5  A    between atoms: N_6  and  C_7 
REMARK    6  A    between atoms: N_8  and  C_9 
REMARK    7  A    between atoms: C_10  and  O_11 
ROOT
HETATM    1  C   UNL     1      40.041 -12.644   3.812  1.00  0.00     0.729 C 
HETATM    2  N   UNL     1      40.280 -11.400   4.379  1.00  0.00    -0.105 N 
HETATM    3  C   UNL     1      41.498 -11.136   4.987  1.00  0.00     0.276 C 
HETATM    4  O   UNL     1      41.977 -10.006   5.092  1.00  0.00    -0.266 OA
HETATM    5  C   UNL     1      42.286 -12.324   5.418  1.00  0.00     0.050 C 
HETATM    6  C   UNL     1      41.927 -13.488   4.843  1.00  0.00     0.099 C 
HETATM    7  C   UNL     1      42.746 -14.702   5.112  1.00  0.00     0.000 A 
HETATM    8  C   UNL     1      43.653 -14.719   6.182  1.00  0.00    -0.044 A 
HETATM    9  C   UNL     1      44.409 -15.869   6.453  1.00  0.00     0.008 A 
HETATM   10  C   UNL     1      44.282 -17.000   5.651  1.00  0.00     0.001 A 
HETATM   11  C   UNL     1      43.394 -16.993   4.581  1.00  0.00     0.001 A 
HETATM   12  C   UNL     1      42.631 -15.852   4.316  1.00  0.00     0.014 A 
HETATM   13  C   UNL     1      43.745 -13.523   7.088  1.00  0.00     0.054 C 
HETATM   14  C   UNL     1      43.486 -12.160   6.371  1.00  0.00    -0.002 C 
HETATM   15  C   UNL     1      44.720 -11.734   5.523  1.00  0.00     0.015 C 
HETATM   16  C   UNL     1      45.966 -11.403   6.348  1.00  0.00     0.001 C 
HETATM   17  C   UNL     1      45.673 -10.384   7.442  1.00  0.00     0.000 C 
HETATM   18  C   UNL     1      44.512 -10.819   8.330  1.00  0.00     0.001 C 
HETATM   19  C   UNL     1      43.255 -11.111   7.503  1.00  0.00     0.015 C 
HETATM   20  N   UNL     1      40.859 -13.645   3.995  1.00  0.00    -0.061 NA
ENDROOT
BRANCH   1  21
HETATM   21  N   UNL     1      38.900 -12.831   3.048  1.00  0.00    -0.127 N 
HETATM   22  H   UNL     1      38.075 -13.182   3.535  1.00  0.00     0.205 HD
BRANCH  21  23
HETATM   23  N   UNL     1      39.080 -13.384   1.770  1.00  0.00    -0.262 N 
HETATM   24  H   UNL     1      38.611 -14.281   1.655  1.00  0.00     0.190 HD
BRANCH  23  25
HETATM   25  C   UNL     1      39.281 -12.558   0.694  1.00  0.00     0.186 C 
HETATM   26  S   UNL     1      40.777 -12.082   0.109  1.00  0.00    -0.040 SA
BRANCH  25  27
HETATM   27  N   UNL     1      38.169 -12.152   0.019  1.00  0.00    -0.366 N 
HETATM   28  H   UNL     1      37.527 -11.607   0.584  1.00  0.00     0.161 HD
BRANCH  27  29
HETATM   29  C   UNL     1      37.963 -12.124  -1.420  1.00  0.00     0.117 C 
HETATM   30  C   UNL     1      38.122 -13.503  -2.037  1.00  0.00     0.026 C 
ENDBRANCH  27  29
ENDBRANCH  25  27
ENDBRANCH  23  25
ENDBRANCH  21  23
ENDBRANCH   1  21
BRANCH   2  31
HETATM   31  C   UNL     1      39.427 -10.282   4.129  1.00  0.00     0.094 A 
HETATM   32  C   UNL     1      38.536  -9.845   5.132  1.00  0.00     0.096 A 
HETATM   33  C   UNL     1      37.700  -8.755   4.871  1.00  0.00     0.039 A 
HETATM   34  C   UNL     1      37.749  -8.106   3.632  1.00  0.00     0.003 A 
HETATM   35  C   UNL     1      38.630  -8.538   2.645  1.00  0.00     0.002 A 
HETATM   36  C   UNL     1      39.468  -9.623   2.890  1.00  0.00     0.034 A 
BRANCH  32  37
HETATM   37  O   UNL     1      38.516 -10.585   6.287  1.00  0.00    -0.354 OA
HETATM   38  C   UNL     1      39.144 -10.026   7.434  1.00  0.00     0.210 C 
ENDBRANCH  32  37
ENDBRANCH   2  31
TORSDOF 7
ENDMDL
MODEL 6
REMARK VINA RESULT:      -8.1     15.871     19.040
REMARK  7 active torsions:
REMARK  status: ('A' for Active; 'I' for Inactive)
REMARK    1  A    between atoms: C_2  and  N_3 
REMARK    2  A    between atoms: N_3  and  C_4 
REMARK    3  A    between atoms: C_4  and  N_5 
REMARK    4  A    between atoms: N_5  and  N_6 
REMARK    5  A    between atoms: N_6  and  C_7 
REMARK    6  A    between atoms: N_8  and  C_9 
REMARK    7  A    between atoms: C_10  and  O_11 
ROOT
HETATM    1  C   UNL     1      46.160 -29.394   0.520  1.00  0.00     0.729 C 
HETATM    2  N   UNL     1      46.567 -29.609  -0.789  1.00  0.00    -0.105 N 
HETATM    3  C   UNL     1      47.718 -30.338  -1.047  1.00  0.00     0.276 C 
HETATM    4  O   UNL     1      47.909 -30.963  -2.091  1.00  0.00    -0.266 OA
HETATM    5  C   UNL     1      48.696 -30.438   0.072  1.00  0.00     0.050 C 
HETATM    6  C   UNL     1      48.200 -30.150   1.292  1.00  0.00     0.099 C 
HETATM    7  C   UNL     1      49.069 -30.353   2.483  1.00  0.00     0.000 A 
HETATM    8  C   UNL     1      50.453 -30.513   2.327  1.00  0.00    -0.044 A 
HETATM    9  C   UNL     1      51.279 -30.681   3.450  1.00  0.00     0.008 A 
HETATM   10  C   UNL     1      50.730 -30.710   4.729  1.00  0.00     0.001 A 
HETATM   11  C   UNL     1      49.357 -30.564   4.896  1.00  0.00     0.001 A 
HETATM   12  C   UNL     1      48.535 -30.384   3.780  1.00  0.00     0.014 A 
HETATM   13  C   UNL     1      51.057 -30.418   0.954  1.00  0.00     0.054 C 
HETATM   14  C   UNL     1      50.128 -30.944  -0.187  1.00  0.00    -0.002 C 
HETATM   15  C   UNL     1      50.094 -32.499  -0.203  1.00  0.00     0.015 C 
HETATM   16  C   UNL     1      51.425 -33.153  -0.581  1.00  0.00     0.001 C 
HETATM   17  C   UNL     1      51.983 -32.601  -1.887  1.00  0.00     0.000 C 
HETATM   18  C   UNL     1      52.093 -31.080  -1.862  1.00  0.00     0.001 C 
HETATM   19  C   UNL     1      50.748 -30.429  -1.523  1.00  0.00     0.015 C 
HETATM   20  N   UNL     1      46.927 -29.697   1.532  1.00  0.00    -0.061 NA
ENDROOT
BRANCH   1  21
HETATM   21  N   UNL     1      44.916 -28.830   0.757  1.00  0.00    -0.127 N 
HETATM   22  H   UNL     1      44.688 -27.985   0.231  1.00  0.00     0.205 HD
BRANCH  21  23
HETATM   23  N   UNL     1      44.480 -28.799   2.091  1.00  0.00    -0.262 N 
HETATM   24  H   UNL     1      44.403 -27.853   2.463  1.00  0.00     0.190 HD
BRANCH  23  25
HETATM   25  C   UNL     1      43.679 -29.804   2.569  1.00  0.00     0.186 C 
HETATM   26  S   UNL     1      42.074 -30.040   2.153  1.00  0.00    -0.040 SA
BRANCH  25  27
HETATM   27  N   UNL     1      44.267 -30.712   3.398  1.00  0.00    -0.366 N 
HETATM   28  H   UNL     1      44.525 -30.330   4.301  1.00  0.00     0.161 HD
BRANCH  27  29
HETATM   29  C   UNL     1      44.268 -32.160   3.274  1.00  0.00     0.117 C 
HETATM   30  C   UNL     1      44.915 -32.612   1.976  1.00  0.00     0.026 C 
ENDBRANCH  27  29
ENDBRANCH  25  27
ENDBRANCH  23  25
ENDBRANCH  21  23
ENDBRANCH   1  21
BRANCH   2  31
HETATM   31  C   UNL     1      45.708 -29.344  -1.899  1.00  0.00     0.094 A 
HETATM   32  C   UNL     1      44.660 -30.238  -2.201  1.00  0.00     0.096 A 
HETATM   33  C   UNL     1      43.832 -29.970  -3.295  1.00  0.00     0.039 A 
HETATM   34  C   UNL     1      44.039 -28.830  -4.079  1.00  0.00     0.003 A 
HETATM   35  C   UNL     1      45.074 -27.948  -3.778  1.00  0.00     0.002 A 
HETATM   36  C   UNL     1      45.907 -28.201  -2.691  1.00  0.00     0.034 A 
BRANCH  32  37
HETATM   37  O   UNL     1      44.577 -31.360  -1.415  1.00  0.00    -0.354 OA
HETATM   38  C   UNL     1      44.724 -32.620  -2.055  1.00  0.00     0.210 C 
ENDBRANCH  32  37
ENDBRANCH   2  31
TORSDOF 7
ENDMDL
MODEL 7
REMARK VINA RESULT:      -8.1      2.681      7.232
REMARK  7 active torsions:
REMARK  status: ('A' for Active; 'I' for Inactive)
REMARK    1  A    between atoms: C_2  and  N_3 
REMARK    2  A    between atoms: N_3  and  C_4 
REMARK    3  A    between atoms: C_4  and  N_5 
REMARK    4  A    between atoms: N_5  and  N_6 
REMARK    5  A    between atoms: N_6  and  C_7 
REMARK    6  A    between atoms: N_8  and  C_9 
REMARK    7  A    between atoms: C_10  and  O_11 
ROOT
HETATM    1  C   UNL     1      40.406 -12.745   3.016  1.00  0.00     0.729 C 
HETATM    2  N   UNL     1      40.567 -11.476   3.555  1.00  0.00    -0.105 N 
HETATM    3  C   UNL     1      41.673 -11.191   4.341  1.00  0.00     0.276 C 
HETATM    4  O   UNL     1      42.145 -10.061   4.469  1.00  0.00    -0.266 OA
HETATM    5  C   UNL     1      42.364 -12.362   4.949  1.00  0.00     0.050 C 
HETATM    6  C   UNL     1      42.086 -13.550   4.378  1.00  0.00     0.099 C 
HETATM    7  C   UNL     1      42.833 -14.754   4.833  1.00  0.00     0.000 A 
HETATM    8  C   UNL     1      43.554 -14.726   6.036  1.00  0.00    -0.044 A 
HETATM    9  C   UNL     1      44.240 -15.867   6.480  1.00  0.00     0.008 A 
HETATM   10  C   UNL     1      44.229 -17.034   5.722  1.00  0.00     0.001 A 
HETATM   11  C   UNL     1      43.527 -17.073   4.522  1.00  0.00     0.001 A 
HETATM   12  C   UNL     1      42.833 -15.941   4.083  1.00  0.00     0.014 A 
HETATM   13  C   UNL     1      43.516 -13.488   6.888  1.00  0.00     0.054 C 
HETATM   14  C   UNL     1      43.396 -12.159   6.076  1.00  0.00    -0.002 C 
HETATM   15  C   UNL     1      44.757 -11.784   5.421  1.00  0.00     0.015 C 
HETATM   16  C   UNL     1      45.857 -11.421   6.422  1.00  0.00     0.001 C 
HETATM   17  C   UNL     1      45.404 -10.348   7.405  1.00  0.00     0.000 C 
HETATM   18  C   UNL     1      44.108 -10.732   8.112  1.00  0.00     0.001 C 
HETATM   19  C   UNL     1      42.999 -11.056   7.105  1.00  0.00     0.015 C 
HETATM   20  N   UNL     1      41.168 -13.741   3.376  1.00  0.00    -0.061 NA
ENDROOT
BRANCH   1  21
HETATM   21  N   UNL     1      39.401 -12.960   2.086  1.00  0.00    -0.127 N 
HETATM   22  H   UNL     1      38.481 -13.205   2.453  1.00  0.00     0.205 HD
BRANCH  21  23
HETATM   23  N   UNL     1      39.755 -13.672   0.928  1.00  0.00    -0.262 N 
HETATM   24  H   UNL     1      39.684 -14.682   1.044  1.00  0.00     0.190 HD
BRANCH  23  25
HETATM   25  C   UNL     1      39.579 -13.097  -0.304  1.00  0.00     0.186 C 
HETATM   26  S   UNL     1      38.433 -11.933  -0.672  1.00  0.00    -0.040 SA
BRANCH  25  27
HETATM   27  N   UNL     1      40.455 -13.467  -1.282  1.00  0.00    -0.366 N 
HETATM   28  H   UNL     1      41.399 -13.622  -0.944  1.00  0.00     0.161 HD
BRANCH  27  29
HETATM   29  C   UNL     1      40.145 -13.958  -2.614  1.00  0.00     0.117 C 
HETATM   30  C   UNL     1      38.989 -14.943  -2.595  1.00  0.00     0.026 C 
ENDBRANCH  27  29
ENDBRANCH  25  27
ENDBRANCH  23  25
ENDBRANCH  21  23
ENDBRANCH   1  21
BRANCH   2  31
HETATM   31  C   UNL     1      39.782 -10.366   3.118  1.00  0.00     0.094 A 
HETATM   32  C   UNL     1      40.076  -9.744   1.887  1.00  0.00     0.096 A 
HETATM   33  C   UNL     1      39.305  -8.653   1.475  1.00  0.00     0.039 A 
HETATM   34  C   UNL     1      38.255  -8.186   2.273  1.00  0.00     0.003 A 
HETATM   35  C   UNL     1      37.965  -8.803   3.487  1.00  0.00     0.002 A 
HETATM   36  C   UNL     1      38.725  -9.890   3.911  1.00  0.00     0.034 A 
BRANCH  32  37
HETATM   37  O   UNL     1      41.164 -10.232   1.208  1.00  0.00    -0.354 OA
HETATM   38  C   UNL     1      41.461  -9.653  -0.056  1.00  0.00     0.210 C 
ENDBRANCH  32  37
ENDBRANCH   2  31
TORSDOF 7
ENDMDL
MODEL 8
REMARK VINA RESULT:      -7.9      2.590      7.296
REMARK  7 active torsions:
REMARK  status: ('A' for Active; 'I' for Inactive)
REMARK    1  A    between atoms: C_2  and  N_3 
REMARK    2  A    between atoms: N_3  and  C_4 
REMARK    3  A    between atoms: C_4  and  N_5 
REMARK    4  A    between atoms: N_5  and  N_6 
REMARK    5  A    between atoms: N_6  and  C_7 
REMARK    6  A    between atoms: N_8  and  C_9 
REMARK    7  A    between atoms: C_10  and  O_11 
ROOT
HETATM    1  C   UNL     1      41.331 -13.314   0.784  1.00  0.00     0.729 C 
HETATM    2  N   UNL     1      41.215 -12.023   1.279  1.00  0.00    -0.105 N 
HETATM    3  C   UNL     1      41.881 -11.662   2.440  1.00  0.00     0.276 C 
HETATM    4  O   UNL     1      42.223 -10.507   2.698  1.00  0.00    -0.266 OA
HETATM    5  C   UNL     1      42.285 -12.778   3.338  1.00  0.00     0.050 C 
HETATM    6  C   UNL     1      42.306 -13.997   2.762  1.00  0.00     0.099 C 
HETATM    7  C   UNL     1      42.827 -15.149   3.546  1.00  0.00     0.000 A 
HETATM    8  C   UNL     1      42.975 -15.048   4.937  1.00  0.00    -0.044 A 
HETATM    9  C   UNL     1      43.442 -16.141   5.683  1.00  0.00     0.008 A 
HETATM   10  C   UNL     1      43.784 -17.332   5.048  1.00  0.00     0.001 A 
HETATM   11  C   UNL     1      43.653 -17.442   3.668  1.00  0.00     0.001 A 
HETATM   12  C   UNL     1      43.175 -16.359   2.924  1.00  0.00     0.014 A 
HETATM   13  C   UNL     1      42.547 -13.787   5.633  1.00  0.00     0.054 C 
HETATM   14  C   UNL     1      42.742 -12.492   4.781  1.00  0.00    -0.002 C 
HETATM   15  C   UNL     1      44.241 -12.075   4.739  1.00  0.00     0.015 C 
HETATM   16  C   UNL     1      44.808 -11.629   6.089  1.00  0.00     0.001 C 
HETATM   17  C   UNL     1      43.954 -10.548   6.739  1.00  0.00     0.000 C 
HETATM   18  C   UNL     1      42.493 -10.968   6.856  1.00  0.00     0.001 C 
HETATM   19  C   UNL     1      41.918 -11.375   5.495  1.00  0.00     0.015 C 
HETATM   20  N   UNL     1      41.900 -14.262   1.478  1.00  0.00    -0.061 NA
ENDROOT
BRANCH   1  21
HETATM   21  N   UNL     1      40.817 -13.607  -0.470  1.00  0.00    -0.127 N 
HETATM   22  H   UNL     1      41.023 -12.942  -1.216  1.00  0.00     0.205 HD
BRANCH  21  23
HETATM   23  N   UNL     1      39.509 -14.116  -0.513  1.00  0.00    -0.262 N 
HETATM   24  H   UNL     1      39.085 -14.202   0.410  1.00  0.00     0.190 HD
BRANCH  23  25
HETATM   25  C   UNL     1      38.732 -13.902  -1.622  1.00  0.00     0.186 C 
HETATM   26  S   UNL     1      38.632 -14.926  -2.943  1.00  0.00    -0.040 SA
BRANCH  25  27
HETATM   27  N   UNL     1      37.936 -12.795  -1.605  1.00  0.00    -0.366 N 
HETATM   28  H   UNL     1      37.575 -12.567  -0.685  1.00  0.00     0.161 HD
BRANCH  27  29
HETATM   29  C   UNL     1      37.816 -11.771  -2.629  1.00  0.00     0.117 C 
HETATM   30  C   UNL     1      36.510 -11.005  -2.509  1.00  0.00     0.026 C 
ENDBRANCH  27  29
ENDBRANCH  25  27
ENDBRANCH  23  25
ENDBRANCH  21  23
ENDBRANCH   1  21
BRANCH   2  31
HETATM   31  C   UNL     1      40.655 -10.965   0.499  1.00  0.00     0.094 A 
HETATM   32  C   UNL     1      39.361 -10.489   0.794  1.00  0.00     0.096 A 
HETATM   33  C   UNL     1      38.821  -9.460   0.018  1.00  0.00     0.039 A 
HETATM   34  C   UNL     1      39.556  -8.908  -1.037  1.00  0.00     0.003 A 
HETATM   35  C   UNL     1      40.835  -9.379  -1.326  1.00  0.00     0.002 A 
HETATM   36  C   UNL     1      41.385 -10.404  -0.562  1.00  0.00     0.034 A 
BRANCH  32  37
HETATM   37  O   UNL     1      38.695 -11.137   1.805  1.00  0.00    -0.354 OA
HETATM   38  C   UNL     1      38.412 -10.394   2.983  1.00  0.00     0.210 C 
ENDBRANCH  32  37
ENDBRANCH   2  31
TORSDOF 7
ENDMDL
MODEL 9
REMARK VINA RESULT:      -7.9      3.632      6.964
REMARK  7 active torsions:
REMARK  status: ('A' for Active; 'I' for Inactive)
REMARK    1  A    between atoms: C_2  and  N_3 
REMARK    2  A    between atoms: N_3  and  C_4 
REMARK    3  A    between atoms: C_4  and  N_5 
REMARK    4  A    between atoms: N_5  and  N_6 
REMARK    5  A    between atoms: N_6  and  C_7 
REMARK    6  A    between atoms: N_8  and  C_9 
REMARK    7  A    between atoms: C_10  and  O_11 
ROOT
HETATM    1  C   UNL     1      42.489 -11.124   4.459  1.00  0.00     0.729 C 
HETATM    2  N   UNL     1      43.022 -11.689   5.609  1.00  0.00    -0.105 N 
HETATM    3  C   UNL     1      43.227 -13.058   5.679  1.00  0.00     0.276 C 
HETATM    4  O   UNL     1      44.076 -13.585   6.401  1.00  0.00    -0.266 OA
HETATM    5  C   UNL     1      42.437 -13.889   4.729  1.00  0.00     0.050 C 
HETATM    6  C   UNL     1      41.919 -13.220   3.679  1.00  0.00     0.099 C 
HETATM    7  C   UNL     1      41.230 -13.992   2.610  1.00  0.00     0.000 A 
HETATM    8  C   UNL     1      40.834 -15.318   2.839  1.00  0.00    -0.044 A 
HETATM    9  C   UNL     1      40.162 -16.041   1.841  1.00  0.00     0.008 A 
HETATM   10  C   UNL     1      39.899 -15.457   0.605  1.00  0.00     0.001 A 
HETATM   11  C   UNL     1      40.296 -14.147   0.361  1.00  0.00     0.001 A 
HETATM   12  C   UNL     1      40.954 -13.420   1.358  1.00  0.00     0.014 A 
HETATM   13  C   UNL     1      41.060 -15.931   4.193  1.00  0.00     0.054 C 
HETATM   14  C   UNL     1      42.343 -15.415   4.919  1.00  0.00    -0.002 C 
HETATM   15  C   UNL     1      43.622 -16.057   4.308  1.00  0.00     0.015 C 
HETATM   16  C   UNL     1      43.739 -17.566   4.537  1.00  0.00     0.001 C 
HETATM   17  C   UNL     1      43.586 -17.936   6.007  1.00  0.00     0.000 C 
HETATM   18  C   UNL     1      42.299 -17.376   6.605  1.00  0.00     0.001 C 
HETATM   19  C   UNL     1      42.206 -15.859   6.409  1.00  0.00     0.015 C 
HETATM   20  N   UNL     1      41.997 -11.862   3.502  1.00  0.00    -0.061 NA
ENDROOT
BRANCH   1  21
HETATM   21  N   UNL     1      42.465  -9.744   4.333  1.00  0.00    -0.127 N 
HETATM   22  H   UNL     1      42.535  -9.204   5.197  1.00  0.00     0.205 HD
BRANCH  21  23
HETATM   23  N   UNL     1      41.557  -9.210   3.405  1.00  0.00    -0.262 N 
HETATM   24  H   UNL     1      41.754  -9.494   2.447  1.00  0.00     0.190 HD
BRANCH  23  25
HETATM   25  C   UNL     1      40.275  -8.919   3.798  1.00  0.00     0.186 C 
HETATM   26  S   UNL     1      39.827  -7.602   4.731  1.00  0.00    -0.040 SA
BRANCH  25  27
HETATM   27  N   UNL     1      39.292  -9.741   3.333  1.00  0.00    -0.366 N 
HETATM   28  H   UNL     1      38.511  -9.842   3.972  1.00  0.00     0.161 HD
BRANCH  27  29
HETATM   29  C   UNL     1      39.088 -10.201   1.969  1.00  0.00     0.117 C 
HETATM   30  C   UNL     1      38.077 -11.332   1.903  1.00  0.00     0.026 C 
ENDBRANCH  27  29
ENDBRANCH  25  27
ENDBRANCH  23  25
ENDBRANCH  21  23
ENDBRANCH   1  21
BRANCH   2  31
HETATM   31  C   UNL     1      43.624 -10.893   6.631  1.00  0.00     0.094 A 
HETATM   32  C   UNL     1      42.809 -10.129   7.493  1.00  0.00     0.096 A 
HETATM   33  C   UNL     1      43.411  -9.347   8.483  1.00  0.00     0.039 A 
HETATM   34  C   UNL     1      44.803  -9.324   8.618  1.00  0.00     0.003 A 
HETATM   35  C   UNL     1      45.606 -10.079   7.766  1.00  0.00     0.002 A 
HETATM   36  C   UNL     1      45.021 -10.862   6.776  1.00  0.00     0.034 A 
BRANCH  32  37
HETATM   37  O   UNL     1      41.460 -10.168   7.241  1.00  0.00    -0.354 OA
HETATM   38  C   UNL     1      40.618  -9.368   8.060  1.00  0.00     0.210 C 
ENDBRANCH  32  37
ENDBRANCH   2  31
TORSDOF 7
ENDMDL
MODEL 10
REMARK VINA RESULT:      -7.7      3.585      5.533
REMARK  7 active torsions:
REMARK  status: ('A' for Active; 'I' for Inactive)
REMARK    1  A    between atoms: C_2  and  N_3 
REMARK    2  A    between atoms: N_3  and  C_4 
REMARK    3  A    between atoms: C_4  and  N_5 
REMARK    4  A    between atoms: N_5  and  N_6 
REMARK    5  A    between atoms: N_6  and  C_7 
REMARK    6  A    between atoms: N_8  and  C_9 
REMARK    7  A    between atoms: C_10  and  O_11 
ROOT
HETATM    1  C   UNL     1      41.948 -10.799   2.172  1.00  0.00     0.729 C 
HETATM    2  N   UNL     1      41.121 -11.909   2.267  1.00  0.00    -0.105 N 
HETATM    3  C   UNL     1      40.577 -12.470   1.122  1.00  0.00     0.276 C 
HETATM    4  O   UNL     1      40.246 -13.654   1.034  1.00  0.00    -0.266 OA
HETATM    5  C   UNL     1      40.517 -11.588  -0.076  1.00  0.00     0.050 C 
HETATM    6  C   UNL     1      41.322 -10.508  -0.031  1.00  0.00     0.099 C 
HETATM    7  C   UNL     1      41.428  -9.644  -1.239  1.00  0.00     0.000 A 
HETATM    8  C   UNL     1      40.478  -9.747  -2.266  1.00  0.00    -0.044 A 
HETATM    9  C   UNL     1      40.560  -8.917  -3.395  1.00  0.00     0.008 A 
HETATM   10  C   UNL     1      41.597  -7.996  -3.517  1.00  0.00     0.001 A 
HETATM   11  C   UNL     1      42.551  -7.892  -2.511  1.00  0.00     0.001 A 
HETATM   12  C   UNL     1      42.464  -8.708  -1.380  1.00  0.00     0.014 A 
HETATM   13  C   UNL     1      39.322 -10.695  -2.108  1.00  0.00     0.054 C 
HETATM   14  C   UNL     1      39.663 -11.985  -1.295  1.00  0.00    -0.002 C 
HETATM   15  C   UNL     1      40.489 -12.982  -2.158  1.00  0.00     0.015 C 
HETATM   16  C   UNL     1      39.721 -13.574  -3.343  1.00  0.00     0.001 C 
HETATM   17  C   UNL     1      38.392 -14.184  -2.917  1.00  0.00     0.000 C 
HETATM   18  C   UNL     1      37.536 -13.195  -2.132  1.00  0.00     0.001 C 
HETATM   19  C   UNL     1      38.295 -12.637  -0.923  1.00  0.00     0.015 C 
HETATM   20  N   UNL     1      42.085 -10.145   1.050  1.00  0.00    -0.061 NA
ENDROOT
BRANCH   1  21
HETATM   21  N   UNL     1      42.631 -10.366   3.297  1.00  0.00    -0.127 N 
HETATM   22  H   UNL     1      43.134 -11.077   3.830  1.00  0.00     0.205 HD
BRANCH  21  23
HETATM   23  N   UNL     1      41.984  -9.412   4.100  1.00  0.00    -0.262 N 
HETATM   24  H   UNL     1      41.151  -9.023   3.663  1.00  0.00     0.190 HD
BRANCH  23  25
HETATM   25  C   UNL     1      42.084  -9.492   5.465  1.00  0.00     0.186 C 
HETATM   26  S   UNL     1      41.545  -8.328   6.543  1.00  0.00    -0.040 SA
BRANCH  25  27
HETATM   27  N   UNL     1      42.608 -10.643   5.974  1.00  0.00    -0.366 N 
HETATM   28  H   UNL     1      42.754 -11.366   5.277  1.00  0.00     0.161 HD
BRANCH  27  29
HETATM   29  C   UNL     1      43.254 -10.834   7.262  1.00  0.00     0.117 C 
HETATM   30  C   UNL     1      44.734 -11.141   7.109  1.00  0.00     0.026 C 
ENDBRANCH  27  29
ENDBRANCH  25  27
ENDBRANCH  23  25
ENDBRANCH  21  23
ENDBRANCH   1  21
BRANCH   2  31
HETATM   31  C   UNL     1      41.017 -12.670   3.472  1.00  0.00     0.094 A 
HETATM   32  C   UNL     1      42.057 -13.551   3.833  1.00  0.00     0.096 A 
HETATM   33  C   UNL     1      41.939 -14.297   5.010  1.00  0.00     0.039 A 
HETATM   34  C   UNL     1      40.805 -14.168   5.819  1.00  0.00     0.003 A 
HETATM   35  C   UNL     1      39.780 -13.296   5.460  1.00  0.00     0.002 A 
HETATM   36  C   UNL     1      39.883 -12.548   4.291  1.00  0.00     0.034 A 
BRANCH  32  37
HETATM   37  O   UNL     1      43.097 -13.656   2.943  1.00  0.00    -0.354 OA
HETATM   38  C   UNL     1      43.270 -14.902   2.282  1.00  0.00     0.210 C 
ENDBRANCH  32  37
ENDBRANCH   2  31
TORSDOF 7
ENDMDL
