MODEL 1
REMARK VINA RESULT:      -8.1      0.000      0.000
REMARK  9 active torsions:
REMARK  status: ('A' for Active; 'I' for Inactive)
REMARK    1  A    between atoms: C_2  and  N_3 
REMARK       I    between atoms: N_3  and  C_4 
REMARK    2  A    between atoms: C_4  and  C_5 
REMARK    3  A    between atoms: C_5  and  S_6 
REMARK    4  A    between atoms: S_6  and  C_7 
REMARK    5  A    between atoms: N_8  and  C_9 
REMARK    6  A    between atoms: C_9  and  C_10 
REMARK    7  A    between atoms: C_10  and  C_11 
REMARK    8  A    between atoms: C_17  and  C_18 
REMARK    9  A    between atoms: C_19  and  O_20 
ROOT
HETATM    1  C   UNL     1      40.673 -13.263   1.962  1.00  0.00     0.192 A 
HETATM    2  N   UNL     1      41.520 -14.003   2.746  1.00  0.00    -0.307 N 
HETATM    3  C   UNL     1      41.036 -13.868   4.036  1.00  0.00     0.167 A 
HETATM    4  N   UNL     1      39.925 -13.150   3.991  1.00  0.00    -0.128 NA
HETATM    5  N   UNL     1      39.695 -12.784   2.694  1.00  0.00    -0.122 NA
ENDROOT
BRANCH   1   6
HETATM    6  S   UNL     1      40.901 -12.971   0.275  1.00  0.00    -0.081 SA
BRANCH   6   7
HETATM    7  C   UNL     1      40.115 -14.431  -0.459  1.00  0.00     0.185 C 
BRANCH   7   8
HETATM    8  C   UNL     1      39.396 -14.087  -1.753  1.00  0.00     0.227 C 
HETATM    9  N   UNL     1      38.092 -13.667  -1.583  1.00  0.00    -0.361 N 
HETATM   10  H   UNL     1      37.860 -13.278  -0.666  1.00  0.00     0.162 HD
HETATM   11  O   UNL     1      39.931 -14.203  -2.854  1.00  0.00    -0.273 OA
BRANCH   9  12
HETATM   12  C   UNL     1      37.265 -13.251  -2.693  1.00  0.00     0.118 C 
HETATM   13  C   UNL     1      37.013 -11.754  -2.682  1.00  0.00     0.026 C 
ENDBRANCH   9  12
ENDBRANCH   7   8
ENDBRANCH   6   7
ENDBRANCH   1   6
BRANCH   2  14
HETATM   14  C   UNL     1      42.682 -14.763   2.329  1.00  0.00     0.137 C 
BRANCH  14  15
HETATM   15  C   UNL     1      42.392 -16.196   1.872  1.00  0.00     0.059 C 
BRANCH  15  16
HETATM   16  C   UNL     1      43.074 -17.252   2.706  1.00  0.00    -0.057 A 
HETATM   17  C   UNL     1      43.664 -16.921   3.932  1.00  0.00     0.007 A 
HETATM   18  C   UNL     1      44.288 -17.904   4.703  1.00  0.00     0.001 A 
HETATM   19  C   UNL     1      44.333 -19.222   4.253  1.00  0.00     0.000 A 
HETATM   20  C   UNL     1      43.756 -19.559   3.030  1.00  0.00     0.001 A 
HETATM   21  C   UNL     1      43.129 -18.579   2.260  1.00  0.00     0.007 A 
ENDBRANCH  15  16
ENDBRANCH  14  15
ENDBRANCH   2  14
BRANCH   3  22
HETATM   22  C   UNL     1      41.623 -14.437   5.246  1.00  0.00     0.045 A 
HETATM   23  C   UNL     1      42.739 -13.846   5.858  1.00  0.00     0.082 A 
HETATM   24  C   UNL     1      43.272 -14.371   7.039  1.00  0.00     0.038 A 
HETATM   25  C   UNL     1      42.721 -15.522   7.597  1.00  0.00     0.003 A 
HETATM   26  C   UNL     1      41.638 -16.144   6.979  1.00  0.00     0.001 A 
HETATM   27  C   UNL     1      41.095 -15.609   5.808  1.00  0.00     0.018 A 
BRANCH  23  28
HETATM   28  O   UNL     1      43.271 -12.684   5.359  1.00  0.00    -0.355 OA
HETATM   29  C   UNL     1      44.244 -12.160   6.266  1.00  0.00     0.210 C 
ENDBRANCH  23  28
ENDBRANCH   3  22
TORSDOF 9
ENDMDL
MODEL 2
REMARK VINA RESULT:      -7.6      3.354      7.409
REMARK  9 active torsions:
REMARK  status: ('A' for Active; 'I' for Inactive)
REMARK    1  A    between atoms: C_2  and  N_3 
REMARK       I    between atoms: N_3  and  C_4 
REMARK    2  A    between atoms: C_4  and  C_5 
REMARK    3  A    between atoms: C_5  and  S_6 
REMARK    4  A    between atoms: S_6  and  C_7 
REMARK    5  A    between atoms: N_8  and  C_9 
REMARK    6  A    between atoms: C_9  and  C_10 
REMARK    7  A    between atoms: C_10  and  C_11 
REMARK    8  A    between atoms: C_17  and  C_18 
REMARK    9  A    between atoms: C_19  and  O_20 
ROOT
HETATM    1  C   UNL     1      41.933 -11.444   5.713  1.00  0.00     0.192 A 
HETATM    2  N   UNL     1      41.633 -12.609   5.058  1.00  0.00    -0.307 N 
HETATM    3  C   UNL     1      42.837 -13.060   4.545  1.00  0.00     0.167 A 
HETATM    4  N   UNL     1      43.795 -12.240   4.945  1.00  0.00    -0.128 NA
HETATM    5  N   UNL     1      43.230 -11.238   5.684  1.00  0.00    -0.122 NA
ENDROOT
BRANCH   1   6
HETATM    6  S   UNL     1      40.766 -10.386   6.422  1.00  0.00    -0.081 SA
BRANCH   6   7
HETATM    7  C   UNL     1      41.823  -9.091   7.124  1.00  0.00     0.185 C 
BRANCH   7   8
HETATM    8  C   UNL     1      42.147  -9.364   8.583  1.00  0.00     0.227 C 
HETATM    9  N   UNL     1      43.257 -10.162   8.778  1.00  0.00    -0.361 N 
HETATM   10  H   UNL     1      43.939 -10.178   8.016  1.00  0.00     0.162 HD
HETATM   11  O   UNL     1      41.457  -8.930   9.503  1.00  0.00    -0.273 OA
BRANCH   9  12
HETATM   12  C   UNL     1      43.748 -10.491  10.096  1.00  0.00     0.118 C 
HETATM   13  C   UNL     1      45.179 -10.029  10.300  1.00  0.00     0.026 C 
ENDBRANCH   9  12
ENDBRANCH   7   8
ENDBRANCH   6   7
ENDBRANCH   1   6
BRANCH   2  14
HETATM   14  C   UNL     1      40.337 -13.242   4.917  1.00  0.00     0.137 C 
BRANCH  14  15
HETATM   15  C   UNL     1      39.510 -12.770   3.717  1.00  0.00     0.059 C 
BRANCH  15  16
HETATM   16  C   UNL     1      39.676 -13.627   2.487  1.00  0.00    -0.057 A 
HETATM   17  C   UNL     1      39.690 -15.023   2.588  1.00  0.00     0.007 A 
HETATM   18  C   UNL     1      39.837 -15.812   1.445  1.00  0.00     0.001 A 
HETATM   19  C   UNL     1      39.977 -15.214   0.195  1.00  0.00     0.000 A 
HETATM   20  C   UNL     1      39.973 -13.824   0.085  1.00  0.00     0.001 A 
HETATM   21  C   UNL     1      39.824 -13.034   1.226  1.00  0.00     0.007 A 
ENDBRANCH  15  16
ENDBRANCH  14  15
ENDBRANCH   2  14
BRANCH   3  22
HETATM   22  C   UNL     1      43.037 -14.252   3.724  1.00  0.00     0.045 A 
HETATM   23  C   UNL     1      43.036 -15.534   4.295  1.00  0.00     0.082 A 
HETATM   24  C   UNL     1      43.186 -16.674   3.499  1.00  0.00     0.038 A 
HETATM   25  C   UNL     1      43.384 -16.541   2.127  1.00  0.00     0.003 A 
HETATM   26  C   UNL     1      43.428 -15.273   1.551  1.00  0.00     0.001 A 
HETATM   27  C   UNL     1      43.260 -14.135   2.344  1.00  0.00     0.018 A 
BRANCH  23  28
HETATM   28  O   UNL     1      42.793 -15.698   5.635  1.00  0.00    -0.355 OA
HETATM   29  C   UNL     1      41.628 -16.503   5.829  1.00  0.00     0.210 C 
ENDBRANCH  23  28
ENDBRANCH   3  22
TORSDOF 9
ENDMDL
MODEL 3
REMARK VINA RESULT:      -7.6      1.825      2.250
REMARK  9 active torsions:
REMARK  status: ('A' for Active; 'I' for Inactive)
REMARK    1  A    between atoms: C_2  and  N_3 
REMARK       I    between atoms: N_3  and  C_4 
REMARK    2  A    between atoms: C_4  and  C_5 
REMARK    3  A    between atoms: C_5  and  S_6 
REMARK    4  A    between atoms: S_6  and  C_7 
REMARK    5  A    between atoms: N_8  and  C_9 
REMARK    6  A    between atoms: C_9  and  C_10 
REMARK    7  A    between atoms: C_10  and  C_11 
REMARK    8  A    between atoms: C_17  and  C_18 
REMARK    9  A    between atoms: C_19  and  O_20 
ROOT
HETATM    1  C   UNL     1      40.129 -14.168   1.399  1.00  0.00     0.192 A 
HETATM    2  N   UNL     1      40.723 -15.011   2.302  1.00  0.00    -0.307 N 
HETATM    3  C   UNL     1      40.745 -14.310   3.495  1.00  0.00     0.167 A 
HETATM    4  N   UNL     1      40.130 -13.153   3.312  1.00  0.00    -0.128 NA
HETATM    5  N   UNL     1      39.736 -13.072   2.005  1.00  0.00    -0.122 NA
ENDROOT
BRANCH   1   6
HETATM    6  S   UNL     1      39.974 -14.491  -0.291  1.00  0.00    -0.081 SA
BRANCH   6   7
HETATM    7  C   UNL     1      39.367 -12.899  -0.914  1.00  0.00     0.185 C 
BRANCH   7   8
HETATM    8  C   UNL     1      40.508 -11.929  -1.173  1.00  0.00     0.227 C 
HETATM    9  N   UNL     1      40.591 -10.895  -0.262  1.00  0.00    -0.361 N 
HETATM   10  H   UNL     1      40.168 -11.066   0.653  1.00  0.00     0.162 HD
HETATM   11  O   UNL     1      41.268 -12.049  -2.131  1.00  0.00    -0.273 OA
BRANCH   9  12
HETATM   12  C   UNL     1      41.639  -9.902  -0.317  1.00  0.00     0.118 C 
HETATM   13  C   UNL     1      41.211  -8.669  -1.092  1.00  0.00     0.026 C 
ENDBRANCH   9  12
ENDBRANCH   7   8
ENDBRANCH   6   7
ENDBRANCH   1   6
BRANCH   2  14
HETATM   14  C   UNL     1      41.231 -16.348   2.069  1.00  0.00     0.137 C 
BRANCH  14  15
HETATM   15  C   UNL     1      42.757 -16.480   2.110  1.00  0.00     0.059 C 
BRANCH  15  16
HETATM   16  C   UNL     1      43.244 -17.703   2.845  1.00  0.00    -0.057 A 
HETATM   17  C   UNL     1      43.218 -18.962   2.231  1.00  0.00     0.007 A 
HETATM   18  C   UNL     1      43.677 -20.090   2.914  1.00  0.00     0.001 A 
HETATM   19  C   UNL     1      44.160 -19.971   4.215  1.00  0.00     0.000 A 
HETATM   20  C   UNL     1      44.182 -18.725   4.838  1.00  0.00     0.001 A 
HETATM   21  C   UNL     1      43.727 -17.596   4.156  1.00  0.00     0.007 A 
ENDBRANCH  15  16
ENDBRANCH  14  15
ENDBRANCH   2  14
BRANCH   3  22
HETATM   22  C   UNL     1      41.321 -14.767   4.758  1.00  0.00     0.045 A 
HETATM   23  C   UNL     1      42.558 -14.281   5.209  1.00  0.00     0.082 A 
HETATM   24  C   UNL     1      43.085 -14.690   6.437  1.00  0.00     0.038 A 
HETATM   25  C   UNL     1      42.401 -15.627   7.208  1.00  0.00     0.003 A 
HETATM   26  C   UNL     1      41.191 -16.150   6.755  1.00  0.00     0.001 A 
HETATM   27  C   UNL     1      40.657 -15.727   5.535  1.00  0.00     0.018 A 
BRANCH  23  28
HETATM   28  O   UNL     1      43.230 -13.320   4.495  1.00  0.00    -0.355 OA
HETATM   29  C   UNL     1      43.371 -12.134   5.280  1.00  0.00     0.210 C 
ENDBRANCH  23  28
ENDBRANCH   3  22
TORSDOF 9
ENDMDL
MODEL 4
REMARK VINA RESULT:      -7.4      3.054      7.215
REMARK  9 active torsions:
REMARK  status: ('A' for Active; 'I' for Inactive)
REMARK    1  A    between atoms: C_2  and  N_3 
REMARK       I    between atoms: N_3  and  C_4 
REMARK    2  A    between atoms: C_4  and  C_5 
REMARK    3  A    between atoms: C_5  and  S_6 
REMARK    4  A    between atoms: S_6  and  C_7 
REMARK    5  A    between atoms: N_8  and  C_9 
REMARK    6  A    between atoms: C_9  and  C_10 
REMARK    7  A    between atoms: C_10  and  C_11 
REMARK    8  A    between atoms: C_17  and  C_18 
REMARK    9  A    between atoms: C_19  and  O_20 
ROOT
HETATM    1  C   UNL     1      42.436 -12.724   5.595  1.00  0.00     0.192 A 
HETATM    2  N   UNL     1      42.425 -13.591   4.533  1.00  0.00    -0.307 N 
HETATM    3  C   UNL     1      41.297 -13.260   3.803  1.00  0.00     0.167 A 
HETATM    4  N   UNL     1      40.726 -12.209   4.370  1.00  0.00    -0.128 NA
HETATM    5  N   UNL     1      41.447 -11.869   5.482  1.00  0.00    -0.122 NA
ENDROOT
BRANCH   1   6
HETATM    6  S   UNL     1      43.560 -12.790   6.905  1.00  0.00    -0.081 SA
BRANCH   6   7
HETATM    7  C   UNL     1      43.709 -11.038   7.348  1.00  0.00     0.185 C 
BRANCH   7   8
HETATM    8  C   UNL     1      44.343 -10.860   8.719  1.00  0.00     0.227 C 
HETATM    9  N   UNL     1      43.441 -10.604   9.732  1.00  0.00    -0.361 N 
HETATM   10  H   UNL     1      42.481 -10.917   9.570  1.00  0.00     0.162 HD
HETATM   11  O   UNL     1      45.558 -10.915   8.893  1.00  0.00    -0.273 OA
BRANCH   9  12
HETATM   12  C   UNL     1      43.851 -10.455  11.110  1.00  0.00     0.118 C 
HETATM   13  C   UNL     1      43.584  -9.055  11.632  1.00  0.00     0.026 C 
ENDBRANCH   9  12
ENDBRANCH   7   8
ENDBRANCH   6   7
ENDBRANCH   1   6
BRANCH   2  14
HETATM   14  C   UNL     1      43.379 -14.639   4.232  1.00  0.00     0.137 C 
BRANCH  14  15
HETATM   15  C   UNL     1      43.221 -15.919   5.060  1.00  0.00     0.059 C 
BRANCH  15  16
HETATM   16  C   UNL     1      43.401 -17.187   4.263  1.00  0.00    -0.057 A 
HETATM   17  C   UNL     1      42.952 -17.267   2.939  1.00  0.00     0.007 A 
HETATM   18  C   UNL     1      43.127 -18.440   2.203  1.00  0.00     0.001 A 
HETATM   19  C   UNL     1      43.747 -19.544   2.785  1.00  0.00     0.000 A 
HETATM   20  C   UNL     1      44.189 -19.478   4.105  1.00  0.00     0.001 A 
HETATM   21  C   UNL     1      44.017 -18.305   4.840  1.00  0.00     0.007 A 
ENDBRANCH  15  16
ENDBRANCH  14  15
ENDBRANCH   2  14
BRANCH   3  22
HETATM   22  C   UNL     1      40.819 -13.929   2.595  1.00  0.00     0.045 A 
HETATM   23  C   UNL     1      40.975 -13.340   1.331  1.00  0.00     0.082 A 
HETATM   24  C   UNL     1      40.553 -14.003   0.174  1.00  0.00     0.038 A 
HETATM   25  C   UNL     1      39.930 -15.244   0.274  1.00  0.00     0.003 A 
HETATM   26  C   UNL     1      39.732 -15.824   1.526  1.00  0.00     0.001 A 
HETATM   27  C   UNL     1      40.169 -15.169   2.680  1.00  0.00     0.018 A 
BRANCH  23  28
HETATM   28  O   UNL     1      41.629 -12.142   1.198  1.00  0.00    -0.355 OA
HETATM   29  C   UNL     1      40.908 -11.284   0.311  1.00  0.00     0.210 C 
ENDBRANCH  23  28
ENDBRANCH   3  22
TORSDOF 9
ENDMDL
MODEL 5
REMARK VINA RESULT:      -7.4      2.775      6.956
REMARK  9 active torsions:
REMARK  status: ('A' for Active; 'I' for Inactive)
REMARK    1  A    between atoms: C_2  and  N_3 
REMARK       I    between atoms: N_3  and  C_4 
REMARK    2  A    between atoms: C_4  and  C_5 
REMARK    3  A    between atoms: C_5  and  S_6 
REMARK    4  A    between atoms: S_6  and  C_7 
REMARK    5  A    between atoms: N_8  and  C_9 
REMARK    6  A    between atoms: C_9  and  C_10 
REMARK    7  A    between atoms: C_10  and  C_11 
REMARK    8  A    between atoms: C_17  and  C_18 
REMARK    9  A    between atoms: C_19  and  O_20 
ROOT
HETATM    1  C   UNL     1      40.682 -10.507   4.187  1.00  0.00     0.192 A 
HETATM    2  N   UNL     1      41.135 -11.564   3.442  1.00  0.00    -0.307 N 
HETATM    3  C   UNL     1      39.998 -12.157   2.919  1.00  0.00     0.167 A 
HETATM    4  N   UNL     1      38.949 -11.436   3.279  1.00  0.00    -0.128 NA
HETATM    5  N   UNL     1      39.380 -10.400   4.061  1.00  0.00    -0.122 NA
ENDROOT
BRANCH   1   6
HETATM    6  S   UNL     1      41.680  -9.505   5.178  1.00  0.00    -0.081 SA
BRANCH   6   7
HETATM    7  C   UNL     1      41.768 -10.474   6.708  1.00  0.00     0.185 C 
BRANCH   7   8
HETATM    8  C   UNL     1      43.191 -10.558   7.235  1.00  0.00     0.227 C 
HETATM    9  N   UNL     1      43.314 -10.281   8.582  1.00  0.00    -0.361 N 
HETATM   10  H   UNL     1      42.474 -10.417   9.149  1.00  0.00     0.162 HD
HETATM   11  O   UNL     1      44.147 -10.823   6.509  1.00  0.00    -0.273 OA
BRANCH   9  12
HETATM   12  C   UNL     1      44.582 -10.358   9.272  1.00  0.00     0.118 C 
HETATM   13  C   UNL     1      44.531  -9.678  10.629  1.00  0.00     0.026 C 
ENDBRANCH   9  12
ENDBRANCH   7   8
ENDBRANCH   6   7
ENDBRANCH   1   6
BRANCH   2  14
HETATM   14  C   UNL     1      42.506 -11.989   3.243  1.00  0.00     0.137 C 
BRANCH  14  15
HETATM   15  C   UNL     1      42.977 -13.120   4.164  1.00  0.00     0.059 C 
BRANCH  15  16
HETATM   16  C   UNL     1      43.074 -14.461   3.483  1.00  0.00    -0.057 A 
HETATM   17  C   UNL     1      42.874 -15.644   4.205  1.00  0.00     0.007 A 
HETATM   18  C   UNL     1      42.958 -16.884   3.567  1.00  0.00     0.001 A 
HETATM   19  C   UNL     1      43.247 -16.951   2.206  1.00  0.00     0.000 A 
HETATM   20  C   UNL     1      43.456 -15.780   1.480  1.00  0.00     0.001 A 
HETATM   21  C   UNL     1      43.370 -14.541   2.115  1.00  0.00     0.007 A 
ENDBRANCH  15  16
ENDBRANCH  14  15
ENDBRANCH   2  14
BRANCH   3  22
HETATM   22  C   UNL     1      39.951 -13.356   2.086  1.00  0.00     0.045 A 
HETATM   23  C   UNL     1      40.107 -13.278   0.693  1.00  0.00     0.082 A 
HETATM   24  C   UNL     1      40.102 -14.432  -0.095  1.00  0.00     0.038 A 
HETATM   25  C   UNL     1      39.896 -15.676   0.497  1.00  0.00     0.003 A 
HETATM   26  C   UNL     1      39.700 -15.766   1.874  1.00  0.00     0.001 A 
HETATM   27  C   UNL     1      39.722 -14.613   2.664  1.00  0.00     0.018 A 
BRANCH  23  28
HETATM   28  O   UNL     1      40.360 -12.073   0.088  1.00  0.00    -0.355 OA
HETATM   29  C   UNL     1      39.234 -11.669  -0.693  1.00  0.00     0.210 C 
ENDBRANCH  23  28
ENDBRANCH   3  22
TORSDOF 9
ENDMDL
MODEL 6
REMARK VINA RESULT:      -7.3      2.311      3.422
REMARK  9 active torsions:
REMARK  status: ('A' for Active; 'I' for Inactive)
REMARK    1  A    between atoms: C_2  and  N_3 
REMARK       I    between atoms: N_3  and  C_4 
REMARK    2  A    between atoms: C_4  and  C_5 
REMARK    3  A    between atoms: C_5  and  S_6 
REMARK    4  A    between atoms: S_6  and  C_7 
REMARK    5  A    between atoms: N_8  and  C_9 
REMARK    6  A    between atoms: C_9  and  C_10 
REMARK    7  A    between atoms: C_10  and  C_11 
REMARK    8  A    between atoms: C_17  and  C_18 
REMARK    9  A    between atoms: C_19  and  O_20 
ROOT
HETATM    1  C   UNL     1      41.184 -11.046   0.038  1.00  0.00     0.192 A 
HETATM    2  N   UNL     1      40.894 -11.990   0.988  1.00  0.00    -0.307 N 
HETATM    3  C   UNL     1      41.557 -11.576   2.130  1.00  0.00     0.167 A 
HETATM    4  N   UNL     1      42.139 -10.414   1.877  1.00  0.00    -0.128 NA
HETATM    5  N   UNL     1      41.895 -10.081   0.573  1.00  0.00    -0.122 NA
ENDROOT
BRANCH   1   6
HETATM    6  S   UNL     1      40.722 -11.150  -1.623  1.00  0.00    -0.081 SA
BRANCH   6   7
HETATM    7  C   UNL     1      39.009 -10.558  -1.565  1.00  0.00     0.185 C 
BRANCH   7   8
HETATM    8  C   UNL     1      38.044 -11.583  -2.138  1.00  0.00     0.227 C 
HETATM    9  N   UNL     1      38.623 -12.799  -2.441  1.00  0.00    -0.361 N 
HETATM   10  H   UNL     1      39.483 -13.026  -1.937  1.00  0.00     0.162 HD
HETATM   11  O   UNL     1      36.858 -11.330  -2.337  1.00  0.00    -0.273 OA
BRANCH   9  12
HETATM   12  C   UNL     1      37.855 -13.912  -2.950  1.00  0.00     0.118 C 
HETATM   13  C   UNL     1      38.616 -15.221  -2.844  1.00  0.00     0.026 C 
ENDBRANCH   9  12
ENDBRANCH   7   8
ENDBRANCH   6   7
ENDBRANCH   1   6
BRANCH   2  14
HETATM   14  C   UNL     1      40.076 -13.178   0.841  1.00  0.00     0.137 C 
BRANCH  14  15
HETATM   15  C   UNL     1      40.816 -14.416   0.323  1.00  0.00     0.059 C 
BRANCH  15  16
HETATM   16  C   UNL     1      41.387 -15.286   1.415  1.00  0.00    -0.057 A 
HETATM   17  C   UNL     1      42.722 -15.707   1.366  1.00  0.00     0.007 A 
HETATM   18  C   UNL     1      43.248 -16.506   2.384  1.00  0.00     0.001 A 
HETATM   19  C   UNL     1      42.444 -16.895   3.453  1.00  0.00     0.000 A 
HETATM   20  C   UNL     1      41.112 -16.489   3.506  1.00  0.00     0.001 A 
HETATM   21  C   UNL     1      40.586 -15.688   2.492  1.00  0.00     0.007 A 
ENDBRANCH  15  16
ENDBRANCH  14  15
ENDBRANCH   2  14
BRANCH   3  22
HETATM   22  C   UNL     1      41.595 -12.275   3.413  1.00  0.00     0.045 A 
HETATM   23  C   UNL     1      40.474 -12.304   4.255  1.00  0.00     0.082 A 
HETATM   24  C   UNL     1      40.501 -13.009   5.462  1.00  0.00     0.038 A 
HETATM   25  C   UNL     1      41.668 -13.656   5.861  1.00  0.00     0.003 A 
HETATM   26  C   UNL     1      42.804 -13.603   5.054  1.00  0.00     0.001 A 
HETATM   27  C   UNL     1      42.769 -12.912   3.839  1.00  0.00     0.018 A 
BRANCH  23  28
HETATM   28  O   UNL     1      39.295 -11.718   3.866  1.00  0.00    -0.355 OA
HETATM   29  C   UNL     1      39.025 -10.574   4.677  1.00  0.00     0.210 C 
ENDBRANCH  23  28
ENDBRANCH   3  22
TORSDOF 9
ENDMDL
MODEL 7
REMARK VINA RESULT:      -7.2      2.231      6.548
REMARK  9 active torsions:
REMARK  status: ('A' for Active; 'I' for Inactive)
REMARK    1  A    between atoms: C_2  and  N_3 
REMARK       I    between atoms: N_3  and  C_4 
REMARK    2  A    between atoms: C_4  and  C_5 
REMARK    3  A    between atoms: C_5  and  S_6 
REMARK    4  A    between atoms: S_6  and  C_7 
REMARK    5  A    between atoms: N_8  and  C_9 
REMARK    6  A    between atoms: C_9  and  C_10 
REMARK    7  A    between atoms: C_10  and  C_11 
REMARK    8  A    between atoms: C_17  and  C_18 
REMARK    9  A    between atoms: C_19  and  O_20 
ROOT
HETATM    1  C   UNL     1      40.225 -13.502   3.545  1.00  0.00     0.192 A 
HETATM    2  N   UNL     1      40.798 -13.783   2.333  1.00  0.00    -0.307 N 
HETATM    3  C   UNL     1      39.994 -13.158   1.395  1.00  0.00     0.167 A 
HETATM    4  N   UNL     1      39.050 -12.487   2.035  1.00  0.00    -0.128 NA
HETATM    5  N   UNL     1      39.203 -12.695   3.379  1.00  0.00    -0.122 NA
ENDROOT
BRANCH   1   6
HETATM    6  S   UNL     1      40.747 -14.160   5.055  1.00  0.00    -0.081 SA
BRANCH   6   7
HETATM    7  C   UNL     1      41.116 -12.657   6.001  1.00  0.00     0.185 C 
BRANCH   7   8
HETATM    8  C   UNL     1      42.563 -12.225   5.820  1.00  0.00     0.227 C 
HETATM    9  N   UNL     1      43.307 -12.238   6.983  1.00  0.00    -0.361 N 
HETATM   10  H   UNL     1      42.971 -12.854   7.727  1.00  0.00     0.162 HD
HETATM   11  O   UNL     1      43.013 -11.872   4.733  1.00  0.00    -0.273 OA
BRANCH   9  12
HETATM   12  C   UNL     1      44.713 -11.905   7.001  1.00  0.00     0.118 C 
HETATM   13  C   UNL     1      45.040 -10.882   8.074  1.00  0.00     0.026 C 
ENDBRANCH   9  12
ENDBRANCH   7   8
ENDBRANCH   6   7
ENDBRANCH   1   6
BRANCH   2  14
HETATM   14  C   UNL     1      41.985 -14.572   2.072  1.00  0.00     0.137 C 
BRANCH  14  15
HETATM   15  C   UNL     1      41.735 -16.067   1.844  1.00  0.00     0.059 C 
BRANCH  15  16
HETATM   16  C   UNL     1      42.639 -16.965   2.651  1.00  0.00    -0.057 A 
HETATM   17  C   UNL     1      43.149 -16.543   3.884  1.00  0.00     0.007 A 
HETATM   18  C   UNL     1      43.980 -17.382   4.630  1.00  0.00     0.001 A 
HETATM   19  C   UNL     1      44.312 -18.645   4.147  1.00  0.00     0.000 A 
HETATM   20  C   UNL     1      43.818 -19.072   2.916  1.00  0.00     0.001 A 
HETATM   21  C   UNL     1      42.985 -18.236   2.171  1.00  0.00     0.007 A 
ENDBRANCH  15  16
ENDBRANCH  14  15
ENDBRANCH   2  14
BRANCH   3  22
HETATM   22  C   UNL     1      40.163 -13.197  -0.056  1.00  0.00     0.045 A 
HETATM   23  C   UNL     1      40.781 -12.141  -0.743  1.00  0.00     0.082 A 
HETATM   24  C   UNL     1      40.977 -12.201  -2.125  1.00  0.00     0.038 A 
HETATM   25  C   UNL     1      40.517 -13.303  -2.843  1.00  0.00     0.003 A 
HETATM   26  C   UNL     1      39.866 -14.342  -2.181  1.00  0.00     0.001 A 
HETATM   27  C   UNL     1      39.686 -14.288  -0.796  1.00  0.00     0.018 A 
BRANCH  23  28
HETATM   28  O   UNL     1      41.288 -11.067  -0.056  1.00  0.00    -0.355 OA
HETATM   29  C   UNL     1      40.588  -9.875  -0.421  1.00  0.00     0.210 C 
ENDBRANCH  23  28
ENDBRANCH   3  22
TORSDOF 9
ENDMDL
MODEL 8
REMARK VINA RESULT:      -7.1      7.166     10.902
REMARK  9 active torsions:
REMARK  status: ('A' for Active; 'I' for Inactive)
REMARK    1  A    between atoms: C_2  and  N_3 
REMARK       I    between atoms: N_3  and  C_4 
REMARK    2  A    between atoms: C_4  and  C_5 
REMARK    3  A    between atoms: C_5  and  S_6 
REMARK    4  A    between atoms: S_6  and  C_7 
REMARK    5  A    between atoms: N_8  and  C_9 
REMARK    6  A    between atoms: C_9  and  C_10 
REMARK    7  A    between atoms: C_10  and  C_11 
REMARK    8  A    between atoms: C_17  and  C_18 
REMARK    9  A    between atoms: C_19  and  O_20 
ROOT
HETATM    1  C   UNL     1      43.539 -10.303   9.060  1.00  0.00     0.192 A 
HETATM    2  N   UNL     1      42.866  -9.418   9.862  1.00  0.00    -0.307 N 
HETATM    3  C   UNL     1      43.326  -9.666  11.144  1.00  0.00     0.167 A 
HETATM    4  N   UNL     1      44.269 -10.592  11.078  1.00  0.00    -0.128 NA
HETATM    5  N   UNL     1      44.408 -10.979   9.774  1.00  0.00    -0.122 NA
ENDROOT
BRANCH   1   6
HETATM    6  S   UNL     1      43.241 -10.520   7.372  1.00  0.00    -0.081 SA
BRANCH   6   7
HETATM    7  C   UNL     1      43.798 -12.227   7.119  1.00  0.00     0.185 C 
BRANCH   7   8
HETATM    8  C   UNL     1      42.888 -12.975   6.158  1.00  0.00     0.227 C 
HETATM    9  N   UNL     1      41.690 -13.381   6.712  1.00  0.00    -0.361 N 
HETATM   10  H   UNL     1      41.370 -12.854   7.528  1.00  0.00     0.162 HD
HETATM   11  O   UNL     1      43.212 -13.216   4.998  1.00  0.00    -0.273 OA
BRANCH   9  12
HETATM   12  C   UNL     1      40.676 -14.063   5.941  1.00  0.00     0.118 C 
HETATM   13  C   UNL     1      40.453 -15.483   6.427  1.00  0.00     0.026 C 
ENDBRANCH   9  12
ENDBRANCH   7   8
ENDBRANCH   6   7
ENDBRANCH   1   6
BRANCH   2  14
HETATM   14  C   UNL     1      41.878  -8.434   9.468  1.00  0.00     0.137 C 
BRANCH  14  15
HETATM   15  C   UNL     1      42.414  -7.011   9.283  1.00  0.00     0.059 C 
BRANCH  15  16
HETATM   16  C   UNL     1      42.014  -6.061  10.384  1.00  0.00    -0.057 A 
HETATM   17  C   UNL     1      42.802  -4.943  10.683  1.00  0.00     0.007 A 
HETATM   18  C   UNL     1      42.423  -4.062  11.698  1.00  0.00     0.001 A 
HETATM   19  C   UNL     1      41.257  -4.294  12.425  1.00  0.00     0.000 A 
HETATM   20  C   UNL     1      40.470  -5.409  12.141  1.00  0.00     0.001 A 
HETATM   21  C   UNL     1      40.847  -6.288  11.126  1.00  0.00     0.007 A 
ENDBRANCH  15  16
ENDBRANCH  14  15
ENDBRANCH   2  14
BRANCH   3  22
HETATM   22  C   UNL     1      42.877  -9.006  12.368  1.00  0.00     0.045 A 
HETATM   23  C   UNL     1      41.717  -9.427  13.036  1.00  0.00     0.082 A 
HETATM   24  C   UNL     1      41.314  -8.819  14.228  1.00  0.00     0.038 A 
HETATM   25  C   UNL     1      42.045  -7.751  14.744  1.00  0.00     0.003 A 
HETATM   26  C   UNL     1      43.178  -7.295  14.071  1.00  0.00     0.001 A 
HETATM   27  C   UNL     1      43.589  -7.914  12.888  1.00  0.00     0.018 A 
BRANCH  23  28
HETATM   28  O   UNL     1      41.006 -10.508  12.579  1.00  0.00    -0.355 OA
HETATM   29  C   UNL     1      39.720 -10.089  12.116  1.00  0.00     0.210 C 
ENDBRANCH  23  28
ENDBRANCH   3  22
TORSDOF 9
ENDMDL
MODEL 9
REMARK VINA RESULT:      -7.0      1.401      1.904
REMARK  9 active torsions:
REMARK  status: ('A' for Active; 'I' for Inactive)
REMARK    1  A    between atoms: C_2  and  N_3 
REMARK       I    between atoms: N_3  and  C_4 
REMARK    2  A    between atoms: C_4  and  C_5 
REMARK    3  A    between atoms: C_5  and  S_6 
REMARK    4  A    between atoms: S_6  and  C_7 
REMARK    5  A    between atoms: N_8  and  C_9 
REMARK    6  A    between atoms: C_9  and  C_10 
REMARK    7  A    between atoms: C_10  and  C_11 
REMARK    8  A    between atoms: C_17  and  C_18 
REMARK    9  A    between atoms: C_19  and  O_20 
ROOT
HETATM    1  C   UNL     1      40.090 -11.910   3.084  1.00  0.00     0.192 A 
HETATM    2  N   UNL     1      40.929 -12.913   3.493  1.00  0.00    -0.307 N 
HETATM    3  C   UNL     1      40.662 -13.086   4.840  1.00  0.00     0.167 A 
HETATM    4  N   UNL     1      39.668 -12.280   5.176  1.00  0.00    -0.128 NA
HETATM    5  N   UNL     1      39.305 -11.555   4.074  1.00  0.00    -0.122 NA
ENDROOT
BRANCH   1   6
HETATM    6  S   UNL     1      40.107 -11.194   1.512  1.00  0.00    -0.081 SA
BRANCH   6   7
HETATM    7  C   UNL     1      38.803 -12.130   0.669  1.00  0.00     0.185 C 
BRANCH   7   8
HETATM    8  C   UNL     1      39.152 -12.387  -0.788  1.00  0.00     0.227 C 
HETATM    9  N   UNL     1      39.504 -13.693  -1.065  1.00  0.00    -0.361 N 
HETATM   10  H   UNL     1      39.153 -14.401  -0.416  1.00  0.00     0.162 HD
HETATM   11  O   UNL     1      39.146 -11.495  -1.634  1.00  0.00    -0.273 OA
BRANCH   9  12
HETATM   12  C   UNL     1      39.822 -14.139  -2.403  1.00  0.00     0.118 C 
HETATM   13  C   UNL     1      38.621 -14.756  -3.095  1.00  0.00     0.026 C 
ENDBRANCH   9  12
ENDBRANCH   7   8
ENDBRANCH   6   7
ENDBRANCH   1   6
BRANCH   2  14
HETATM   14  C   UNL     1      41.900 -13.639   2.699  1.00  0.00     0.137 C 
BRANCH  14  15
HETATM   15  C   UNL     1      41.422 -14.995   2.168  1.00  0.00     0.059 C 
BRANCH  15  16
HETATM   16  C   UNL     1      42.273 -16.158   2.613  1.00  0.00    -0.057 A 
HETATM   17  C   UNL     1      42.130 -17.416   2.015  1.00  0.00     0.007 A 
HETATM   18  C   UNL     1      42.926 -18.488   2.426  1.00  0.00     0.001 A 
HETATM   19  C   UNL     1      43.865 -18.313   3.439  1.00  0.00     0.000 A 
HETATM   20  C   UNL     1      44.009 -17.067   4.047  1.00  0.00     0.001 A 
HETATM   21  C   UNL     1      43.217 -15.994   3.636  1.00  0.00     0.007 A 
ENDBRANCH  15  16
ENDBRANCH  14  15
ENDBRANCH   2  14
BRANCH   3  22
HETATM   22  C   UNL     1      41.335 -14.017   5.744  1.00  0.00     0.045 A 
HETATM   23  C   UNL     1      42.553 -13.683   6.354  1.00  0.00     0.082 A 
HETATM   24  C   UNL     1      43.172 -14.560   7.249  1.00  0.00     0.038 A 
HETATM   25  C   UNL     1      42.599 -15.802   7.511  1.00  0.00     0.003 A 
HETATM   26  C   UNL     1      41.410 -16.166   6.882  1.00  0.00     0.001 A 
HETATM   27  C   UNL     1      40.783 -15.281   6.000  1.00  0.00     0.018 A 
BRANCH  23  28
HETATM   28  O   UNL     1      43.115 -12.447   6.154  1.00  0.00    -0.355 OA
HETATM   29  C   UNL     1      44.080 -12.175   7.172  1.00  0.00     0.210 C 
ENDBRANCH  23  28
ENDBRANCH   3  22
TORSDOF 9
ENDMDL
MODEL 10
REMARK VINA RESULT:      -7.0      7.262     10.962
REMARK  9 active torsions:
REMARK  status: ('A' for Active; 'I' for Inactive)
REMARK    1  A    between atoms: C_2  and  N_3 
REMARK       I    between atoms: N_3  and  C_4 
REMARK    2  A    between atoms: C_4  and  C_5 
REMARK    3  A    between atoms: C_5  and  S_6 
REMARK    4  A    between atoms: S_6  and  C_7 
REMARK    5  A    between atoms: N_8  and  C_9 
REMARK    6  A    between atoms: C_9  and  C_10 
REMARK    7  A    between atoms: C_10  and  C_11 
REMARK    8  A    between atoms: C_17  and  C_18 
REMARK    9  A    between atoms: C_19  and  O_20 
ROOT
HETATM    1  C   UNL     1      43.670 -10.237   9.155  1.00  0.00     0.192 A 
HETATM    2  N   UNL     1      43.081  -9.280   9.940  1.00  0.00    -0.307 N 
HETATM    3  C   UNL     1      43.319  -9.680  11.243  1.00  0.00     0.167 A 
HETATM    4  N   UNL     1      44.070 -10.769  11.216  1.00  0.00    -0.128 NA
HETATM    5  N   UNL     1      44.298 -11.108   9.910  1.00  0.00    -0.122 NA
ENDROOT
BRANCH   1   6
HETATM    6  S   UNL     1      43.554 -10.303   7.433  1.00  0.00    -0.081 SA
BRANCH   6   7
HETATM    7  C   UNL     1      44.478 -11.818   7.061  1.00  0.00     0.185 C 
BRANCH   7   8
HETATM    8  C   UNL     1      43.574 -12.898   6.490  1.00  0.00     0.227 C 
HETATM    9  N   UNL     1      44.027 -14.186   6.698  1.00  0.00    -0.361 N 
HETATM   10  H   UNL     1      44.666 -14.317   7.486  1.00  0.00     0.162 HD
HETATM   11  O   UNL     1      42.543 -12.636   5.874  1.00  0.00    -0.273 OA
BRANCH   9  12
HETATM   12  C   UNL     1      43.278 -15.345   6.271  1.00  0.00     0.118 C 
HETATM   13  C   UNL     1      44.188 -16.497   5.885  1.00  0.00     0.026 C 
ENDBRANCH   9  12
ENDBRANCH   7   8
ENDBRANCH   6   7
ENDBRANCH   1   6
BRANCH   2  14
HETATM   14  C   UNL     1      42.354  -8.102   9.511  1.00  0.00     0.137 C 
BRANCH  14  15
HETATM   15  C   UNL     1      40.828  -8.214   9.593  1.00  0.00     0.059 C 
BRANCH  15  16
HETATM   16  C   UNL     1      40.213  -7.373  10.683  1.00  0.00    -0.057 A 
HETATM   17  C   UNL     1      40.877  -6.241  11.172  1.00  0.00     0.007 A 
HETATM   18  C   UNL     1      40.300  -5.462  12.176  1.00  0.00     0.001 A 
HETATM   19  C   UNL     1      39.059  -5.810  12.704  1.00  0.00     0.000 A 
HETATM   20  C   UNL     1      38.394  -6.940  12.231  1.00  0.00     0.001 A 
HETATM   21  C   UNL     1      38.968  -7.718  11.226  1.00  0.00     0.007 A 
ENDBRANCH  15  16
ENDBRANCH  14  15
ENDBRANCH   2  14
BRANCH   3  22
HETATM   22  C   UNL     1      42.851  -9.009  12.454  1.00  0.00     0.045 A 
HETATM   23  C   UNL     1      41.693  -9.440  13.120  1.00  0.00     0.082 A 
HETATM   24  C   UNL     1      41.272  -8.821  14.301  1.00  0.00     0.038 A 
HETATM   25  C   UNL     1      41.982  -7.734  14.805  1.00  0.00     0.003 A 
HETATM   26  C   UNL     1      43.112  -7.269  14.134  1.00  0.00     0.001 A 
HETATM   27  C   UNL     1      43.541  -7.899  12.962  1.00  0.00     0.018 A 
BRANCH  23  28
HETATM   28  O   UNL     1      41.002 -10.538  12.674  1.00  0.00    -0.355 OA
HETATM   29  C   UNL     1      39.674 -10.531  13.202  1.00  0.00     0.210 C 
ENDBRANCH  23  28
ENDBRANCH   3  22
TORSDOF 9
ENDMDL
