MODEL 1
REMARK VINA RESULT:      -8.9      0.000      0.000
REMARK  7 active torsions:
REMARK  status: ('A' for Active; 'I' for Inactive)
REMARK    1  A    between atoms: C_6  and  O_7 
REMARK    2  A    between atoms: O_7  and  C_8 
REMARK    3  A    between atoms: C_8  and  C_9 
REMARK       I    between atoms: C_9  and  N_10 
REMARK    4  A    between atoms: N_10  and  C_11 
REMARK    5  A    between atoms: C_14  and  N_15 
REMARK    6  A    between atoms: N_18  and  C_20 
REMARK    7  A    between atoms: C_20  and  C_21 
ROOT
HETATM    1  C   UNL     1      41.098 -12.976   2.109  1.00  0.00     0.034 A 
HETATM    2  C   UNL     1      40.342 -12.393   3.122  1.00  0.00     0.032 A 
HETATM    3  C   UNL     1      40.954 -12.004   4.318  1.00  0.00     0.031 A 
HETATM    4  C   UNL     1      42.330 -12.165   4.523  1.00  0.00     0.030 A 
HETATM    5  C   UNL     1      43.073 -12.782   3.511  1.00  0.00     0.031 A 
HETATM    6  C   UNL     1      42.457 -13.210   2.326  1.00  0.00     0.032 A 
ENDROOT
BRANCH   1   7
HETATM    7  N   UNL     1      40.538 -13.400   0.896  1.00  0.00    -0.325 N 
HETATM    8  C   UNL     1      40.132 -14.650   0.497  1.00  0.00     0.246 C 
HETATM    9  O   UNL     1      39.916 -14.841  -0.702  1.00  0.00    -0.271 OA
HETATM   10  H   UNL     1      40.404 -12.703   0.172  1.00  0.00     0.169 HD
BRANCH   8  11
HETATM   11  C   UNL     1      39.805 -15.716   1.547  1.00  0.00     0.278 C 
BRANCH  11  12
HETATM   12  O   UNL     1      40.934 -16.504   1.891  1.00  0.00    -0.342 OA
BRANCH  12  13
HETATM   13  C   UNL     1      41.320 -16.421   3.208  1.00  0.00     0.075 A 
HETATM   14  C   UNL     1      42.627 -16.833   3.513  1.00  0.00    -0.028 A 
HETATM   15  C   UNL     1      43.084 -16.754   4.841  1.00  0.00     0.016 A 
HETATM   16  C   UNL     1      43.538 -17.371   2.445  1.00  0.00     0.051 C 
HETATM   17  C   UNL     1      42.261 -16.259   5.860  1.00  0.00    -0.061 A 
HETATM   18  C   UNL     1      42.740 -16.218   7.281  1.00  0.00     0.048 C 
HETATM   19  C   UNL     1      40.964 -15.854   5.543  1.00  0.00     0.009 A 
HETATM   20  C   UNL     1      40.500 -15.924   4.227  1.00  0.00     0.038 A 
ENDBRANCH  12  13
ENDBRANCH  11  12
ENDBRANCH   8  11
ENDBRANCH   1   7
BRANCH   4  21
HETATM   21  N   UNL     1      42.881 -11.697   5.718  1.00  0.00    -0.378 N 
HETATM   22  C   UNL     1      41.963 -10.856   6.508  1.00  0.00     0.150 C 
HETATM   23  C   UNL     1      42.777 -10.006   7.506  1.00  0.00     0.255 C 
HETATM   24  N   UNL     1      43.706 -10.879   8.362  1.00  0.00    -0.064 N 
HETATM   25  H   UNL     1      43.103 -11.459   8.955  1.00  0.00     0.280 HD
HETATM   26  C   UNL     1      44.556 -11.814   7.499  1.00  0.00     0.255 C 
HETATM   27  C   UNL     1      43.681 -12.629   6.524  1.00  0.00     0.150 C 
BRANCH  24  28
HETATM   28  C   UNL     1      44.583 -10.055   9.278  1.00  0.00     0.273 C 
BRANCH  28  29
HETATM   29  C   UNL     1      43.921  -9.703  10.580  1.00  0.00    -0.033 A 
HETATM   30  C   UNL     1      43.508 -10.711  11.464  1.00  0.00     0.009 A 
HETATM   31  C   UNL     1      42.872 -10.380  12.663  1.00  0.00     0.001 A 
HETATM   32  C   UNL     1      42.640  -9.045  12.986  1.00  0.00     0.000 A 
HETATM   33  C   UNL     1      43.049  -8.037  12.117  1.00  0.00     0.001 A 
HETATM   34  C   UNL     1      43.687  -8.361  10.920  1.00  0.00     0.009 A 
ENDBRANCH  28  29
ENDBRANCH  24  28
ENDBRANCH   4  21
TORSDOF 7
ENDMDL
MODEL 2
REMARK VINA RESULT:      -8.4      4.020      8.496
REMARK  7 active torsions:
REMARK  status: ('A' for Active; 'I' for Inactive)
REMARK    1  A    between atoms: C_6  and  O_7 
REMARK    2  A    between atoms: O_7  and  C_8 
REMARK    3  A    between atoms: C_8  and  C_9 
REMARK       I    between atoms: C_9  and  N_10 
REMARK    4  A    between atoms: N_10  and  C_11 
REMARK    5  A    between atoms: C_14  and  N_15 
REMARK    6  A    between atoms: N_18  and  C_20 
REMARK    7  A    between atoms: C_20  and  C_21 
ROOT
HETATM    1  C   UNL     1      42.374 -13.456   5.984  1.00  0.00     0.034 A 
HETATM    2  C   UNL     1      41.043 -13.618   5.611  1.00  0.00     0.032 A 
HETATM    3  C   UNL     1      40.572 -13.046   4.425  1.00  0.00     0.031 A 
HETATM    4  C   UNL     1      41.417 -12.319   3.576  1.00  0.00     0.030 A 
HETATM    5  C   UNL     1      42.744 -12.136   3.978  1.00  0.00     0.031 A 
HETATM    6  C   UNL     1      43.211 -12.674   5.185  1.00  0.00     0.032 A 
ENDROOT
BRANCH   1   7
HETATM    7  N   UNL     1      42.899 -13.993   7.167  1.00  0.00    -0.325 N 
HETATM    8  C   UNL     1      42.937 -15.293   7.609  1.00  0.00     0.246 C 
HETATM    9  O   UNL     1      43.207 -15.502   8.794  1.00  0.00    -0.271 OA
HETATM   10  H   UNL     1      43.317 -13.349   7.829  1.00  0.00     0.169 HD
BRANCH   8  11
HETATM   11  C   UNL     1      42.805 -16.443   6.606  1.00  0.00     0.278 C 
BRANCH  11  12
HETATM   12  O   UNL     1      43.754 -16.356   5.553  1.00  0.00    -0.342 OA
BRANCH  12  13
HETATM   13  C   UNL     1      43.725 -17.402   4.660  1.00  0.00     0.075 A 
HETATM   14  C   UNL     1      43.300 -17.109   3.354  1.00  0.00    -0.028 A 
HETATM   15  C   UNL     1      43.268 -18.135   2.392  1.00  0.00     0.016 A 
HETATM   16  C   UNL     1      42.866 -15.721   2.975  1.00  0.00     0.051 C 
HETATM   17  C   UNL     1      43.665 -19.438   2.712  1.00  0.00    -0.061 A 
HETATM   18  C   UNL     1      43.587 -20.536   1.693  1.00  0.00     0.048 C 
HETATM   19  C   UNL     1      44.085 -19.716   4.015  1.00  0.00     0.009 A 
HETATM   20  C   UNL     1      44.125 -18.705   4.978  1.00  0.00     0.038 A 
ENDBRANCH  12  13
ENDBRANCH  11  12
ENDBRANCH   8  11
ENDBRANCH   1   7
BRANCH   4  21
HETATM   21  N   UNL     1      40.891 -11.829   2.379  1.00  0.00    -0.378 N 
HETATM   22  C   UNL     1      39.426 -11.660   2.397  1.00  0.00     0.150 C 
HETATM   23  C   UNL     1      38.898 -11.605   0.948  1.00  0.00     0.255 C 
HETATM   24  N   UNL     1      39.633 -10.540   0.121  1.00  0.00    -0.064 N 
HETATM   25  H   UNL     1      39.378  -9.629   0.519  1.00  0.00     0.280 HD
HETATM   26  C   UNL     1      41.152 -10.691   0.228  1.00  0.00     0.255 C 
HETATM   27  C   UNL     1      41.609 -10.741   1.701  1.00  0.00     0.150 C 
BRANCH  24  28
HETATM   28  C   UNL     1      39.198 -10.538  -1.327  1.00  0.00     0.273 C 
BRANCH  28  29
HETATM   29  C   UNL     1      39.094 -11.915  -1.920  1.00  0.00    -0.033 A 
HETATM   30  C   UNL     1      37.839 -12.474  -2.205  1.00  0.00     0.009 A 
HETATM   31  C   UNL     1      37.745 -13.763  -2.734  1.00  0.00     0.001 A 
HETATM   32  C   UNL     1      38.899 -14.504  -2.979  1.00  0.00     0.000 A 
HETATM   33  C   UNL     1      40.149 -13.958  -2.704  1.00  0.00     0.001 A 
HETATM   34  C   UNL     1      40.249 -12.669  -2.177  1.00  0.00     0.009 A 
ENDBRANCH  28  29
ENDBRANCH  24  28
ENDBRANCH   4  21
TORSDOF 7
ENDMDL
MODEL 3
REMARK VINA RESULT:      -8.3      3.772      9.206
REMARK  7 active torsions:
REMARK  status: ('A' for Active; 'I' for Inactive)
REMARK    1  A    between atoms: C_6  and  O_7 
REMARK    2  A    between atoms: O_7  and  C_8 
REMARK    3  A    between atoms: C_8  and  C_9 
REMARK       I    between atoms: C_9  and  N_10 
REMARK    4  A    between atoms: N_10  and  C_11 
REMARK    5  A    between atoms: C_14  and  N_15 
REMARK    6  A    between atoms: N_18  and  C_20 
REMARK    7  A    between atoms: C_20  and  C_21 
ROOT
HETATM    1  C   UNL     1      40.078  -9.813   7.330  1.00  0.00     0.034 A 
HETATM    2  C   UNL     1      39.207 -10.828   6.947  1.00  0.00     0.032 A 
HETATM    3  C   UNL     1      39.672 -11.898   6.174  1.00  0.00     0.031 A 
HETATM    4  C   UNL     1      41.015 -11.991   5.786  1.00  0.00     0.030 A 
HETATM    5  C   UNL     1      41.873 -10.948   6.149  1.00  0.00     0.031 A 
HETATM    6  C   UNL     1      41.402  -9.854   6.890  1.00  0.00     0.032 A 
ENDROOT
BRANCH   1   7
HETATM    7  N   UNL     1      39.666  -8.710   8.089  1.00  0.00    -0.325 N 
HETATM    8  C   UNL     1      39.609  -8.544   9.452  1.00  0.00     0.246 C 
HETATM    9  O   UNL     1      38.967  -7.591   9.900  1.00  0.00    -0.271 OA
HETATM   10  H   UNL     1      39.344  -7.889   7.588  1.00  0.00     0.169 HD
BRANCH   8  11
HETATM   11  C   UNL     1      40.461  -9.433  10.363  1.00  0.00     0.278 C 
BRANCH  11  12
HETATM   12  O   UNL     1      41.594  -8.752  10.881  1.00  0.00    -0.342 OA
BRANCH  12  13
HETATM   13  C   UNL     1      42.758  -8.945  10.176  1.00  0.00     0.075 A 
HETATM   14  C   UNL     1      43.319  -7.816   9.556  1.00  0.00    -0.028 A 
HETATM   15  C   UNL     1      44.520  -7.949   8.836  1.00  0.00     0.016 A 
HETATM   16  C   UNL     1      42.647  -6.474   9.640  1.00  0.00     0.051 C 
HETATM   17  C   UNL     1      45.171  -9.184   8.738  1.00  0.00    -0.061 A 
HETATM   18  C   UNL     1      46.428  -9.327   7.933  1.00  0.00     0.048 C 
HETATM   19  C   UNL     1      44.602 -10.298   9.358  1.00  0.00     0.009 A 
HETATM   20  C   UNL     1      43.412 -10.179  10.080  1.00  0.00     0.038 A 
ENDBRANCH  12  13
ENDBRANCH  11  12
ENDBRANCH   8  11
ENDBRANCH   1   7
BRANCH   4  21
HETATM   21  N   UNL     1      41.420 -13.118   5.067  1.00  0.00    -0.378 N 
HETATM   22  C   UNL     1      42.846 -13.104   4.690  1.00  0.00     0.150 C 
HETATM   23  C   UNL     1      43.076 -14.087   3.523  1.00  0.00     0.255 C 
HETATM   24  N   UNL     1      42.538 -15.487   3.850  1.00  0.00    -0.064 N 
HETATM   25  H   UNL     1      43.118 -15.856   4.612  1.00  0.00     0.280 HD
HETATM   26  C   UNL     1      41.091 -15.433   4.345  1.00  0.00     0.255 C 
HETATM   27  C   UNL     1      40.932 -14.432   5.509  1.00  0.00     0.150 C 
BRANCH  24  28
HETATM   28  C   UNL     1      42.666 -16.438   2.682  1.00  0.00     0.273 C 
BRANCH  28  29
HETATM   29  C   UNL     1      43.164 -17.800   3.074  1.00  0.00    -0.033 A 
HETATM   30  C   UNL     1      43.049 -18.882   2.188  1.00  0.00     0.009 A 
HETATM   31  C   UNL     1      43.491 -20.152   2.564  1.00  0.00     0.001 A 
HETATM   32  C   UNL     1      44.048 -20.353   3.825  1.00  0.00     0.000 A 
HETATM   33  C   UNL     1      44.171 -19.286   4.711  1.00  0.00     0.001 A 
HETATM   34  C   UNL     1      43.733 -18.014   4.339  1.00  0.00     0.009 A 
ENDBRANCH  28  29
ENDBRANCH  24  28
ENDBRANCH   4  21
TORSDOF 7
ENDMDL
MODEL 4
REMARK VINA RESULT:      -8.2      1.224      1.890
REMARK  7 active torsions:
REMARK  status: ('A' for Active; 'I' for Inactive)
REMARK    1  A    between atoms: C_6  and  O_7 
REMARK    2  A    between atoms: O_7  and  C_8 
REMARK    3  A    between atoms: C_8  and  C_9 
REMARK       I    between atoms: C_9  and  N_10 
REMARK    4  A    between atoms: N_10  and  C_11 
REMARK    5  A    between atoms: C_14  and  N_15 
REMARK    6  A    between atoms: N_18  and  C_20 
REMARK    7  A    between atoms: C_20  and  C_21 
ROOT
HETATM    1  C   UNL     1      41.131 -12.841   2.613  1.00  0.00     0.034 A 
HETATM    2  C   UNL     1      40.434 -12.919   3.815  1.00  0.00     0.032 A 
HETATM    3  C   UNL     1      40.996 -12.400   4.986  1.00  0.00     0.031 A 
HETATM    4  C   UNL     1      42.250 -11.775   4.982  1.00  0.00     0.030 A 
HETATM    5  C   UNL     1      42.954 -11.732   3.775  1.00  0.00     0.031 A 
HETATM    6  C   UNL     1      42.412 -12.286   2.606  1.00  0.00     0.032 A 
ENDROOT
BRANCH   1   7
HETATM    7  N   UNL     1      40.626 -13.356   1.411  1.00  0.00    -0.325 N 
HETATM    8  C   UNL     1      40.789 -14.595   0.841  1.00  0.00     0.246 C 
HETATM    9  O   UNL     1      40.475 -14.742  -0.342  1.00  0.00    -0.271 OA
HETATM   10  H   UNL     1      40.053 -12.743   0.842  1.00  0.00     0.169 HD
BRANCH   8  11
HETATM   11  C   UNL     1      41.196 -15.787   1.713  1.00  0.00     0.278 C 
BRANCH  11  12
HETATM   12  O   UNL     1      42.582 -15.788   2.020  1.00  0.00    -0.342 OA
BRANCH  12  13
HETATM   13  C   UNL     1      43.027 -16.902   2.691  1.00  0.00     0.075 A 
HETATM   14  C   UNL     1      43.327 -16.745   4.054  1.00  0.00    -0.028 A 
HETATM   15  C   UNL     1      43.768 -17.854   4.796  1.00  0.00     0.016 A 
HETATM   16  C   UNL     1      43.197 -15.405   4.724  1.00  0.00     0.051 C 
HETATM   17  C   UNL     1      43.900 -19.115   4.202  1.00  0.00    -0.061 A 
HETATM   18  C   UNL     1      44.412 -20.284   4.990  1.00  0.00     0.048 C 
HETATM   19  C   UNL     1      43.599 -19.258   2.847  1.00  0.00     0.009 A 
HETATM   20  C   UNL     1      43.155 -18.164   2.099  1.00  0.00     0.038 A 
ENDBRANCH  12  13
ENDBRANCH  11  12
ENDBRANCH   8  11
ENDBRANCH   1   7
BRANCH   4  21
HETATM   21  N   UNL     1      42.720 -11.226   6.178  1.00  0.00    -0.378 N 
HETATM   22  C   UNL     1      41.695 -10.484   6.936  1.00  0.00     0.150 C 
HETATM   23  C   UNL     1      42.386  -9.529   7.932  1.00  0.00     0.255 C 
HETATM   24  N   UNL     1      43.393 -10.274   8.820  1.00  0.00    -0.064 N 
HETATM   25  H   UNL     1      42.849 -10.911   9.414  1.00  0.00     0.280 HD
HETATM   26  C   UNL     1      44.362 -11.119   7.989  1.00  0.00     0.255 C 
HETATM   27  C   UNL     1      43.605 -12.046   7.015  1.00  0.00     0.150 C 
BRANCH  24  28
HETATM   28  C   UNL     1      44.150  -9.340   9.736  1.00  0.00     0.273 C 
BRANCH  28  29
HETATM   29  C   UNL     1      43.550  -9.232  11.108  1.00  0.00    -0.033 A 
HETATM   30  C   UNL     1      43.007 -10.362  11.739  1.00  0.00     0.009 A 
HETATM   31  C   UNL     1      42.428 -10.254  13.005  1.00  0.00     0.001 A 
HETATM   32  C   UNL     1      42.383  -9.020  13.650  1.00  0.00     0.000 A 
HETATM   33  C   UNL     1      42.922  -7.893  13.035  1.00  0.00     0.001 A 
HETATM   34  C   UNL     1      43.504  -7.996  11.771  1.00  0.00     0.009 A 
ENDBRANCH  28  29
ENDBRANCH  24  28
ENDBRANCH   4  21
TORSDOF 7
ENDMDL
MODEL 5
REMARK VINA RESULT:      -7.8      3.581      9.582
REMARK  7 active torsions:
REMARK  status: ('A' for Active; 'I' for Inactive)
REMARK    1  A    between atoms: C_6  and  O_7 
REMARK    2  A    between atoms: O_7  and  C_8 
REMARK    3  A    between atoms: C_8  and  C_9 
REMARK       I    between atoms: C_9  and  N_10 
REMARK    4  A    between atoms: N_10  and  C_11 
REMARK    5  A    between atoms: C_14  and  N_15 
REMARK    6  A    between atoms: N_18  and  C_20 
REMARK    7  A    between atoms: C_20  and  C_21 
ROOT
HETATM    1  C   UNL     1      39.857 -10.028   6.158  1.00  0.00     0.034 A 
HETATM    2  C   UNL     1      41.100 -10.060   5.532  1.00  0.00     0.032 A 
HETATM    3  C   UNL     1      41.579 -11.256   4.989  1.00  0.00     0.031 A 
HETATM    4  C   UNL     1      40.827 -12.438   5.037  1.00  0.00     0.030 A 
HETATM    5  C   UNL     1      39.595 -12.399   5.697  1.00  0.00     0.031 A 
HETATM    6  C   UNL     1      39.127 -11.212   6.279  1.00  0.00     0.032 A 
ENDROOT
BRANCH   1   7
HETATM    7  N   UNL     1      39.331  -8.863   6.734  1.00  0.00    -0.325 N 
HETATM    8  C   UNL     1      39.243  -8.490   8.053  1.00  0.00     0.246 C 
HETATM    9  O   UNL     1      38.506  -7.545   8.346  1.00  0.00    -0.271 OA
HETATM   10  H   UNL     1      38.937  -8.168   6.110  1.00  0.00     0.169 HD
BRANCH   8  11
HETATM   11  C   UNL     1      40.167  -9.134   9.090  1.00  0.00     0.278 C 
BRANCH  11  12
HETATM   12  O   UNL     1      41.441  -8.511   9.145  1.00  0.00    -0.342 OA
BRANCH  12  13
HETATM   13  C   UNL     1      41.847  -8.131  10.403  1.00  0.00     0.075 A 
HETATM   14  C   UNL     1      42.889  -8.871  10.984  1.00  0.00    -0.028 A 
HETATM   15  C   UNL     1      43.359  -8.517  12.261  1.00  0.00     0.016 A 
HETATM   16  C   UNL     1      43.498 -10.044  10.267  1.00  0.00     0.051 C 
HETATM   17  C   UNL     1      42.814  -7.431  12.956  1.00  0.00    -0.061 A 
HETATM   18  C   UNL     1      43.291  -7.086  14.336  1.00  0.00     0.048 C 
HETATM   19  C   UNL     1      41.778  -6.704  12.367  1.00  0.00     0.009 A 
HETATM   20  C   UNL     1      41.305  -7.043  11.097  1.00  0.00     0.038 A 
ENDBRANCH  12  13
ENDBRANCH  11  12
ENDBRANCH   8  11
ENDBRANCH   1   7
BRANCH   4  21
HETATM   21  N   UNL     1      41.344 -13.579   4.419  1.00  0.00    -0.378 N 
HETATM   22  C   UNL     1      42.799 -13.523   4.188  1.00  0.00     0.150 C 
HETATM   23  C   UNL     1      43.185 -14.546   3.099  1.00  0.00     0.255 C 
HETATM   24  N   UNL     1      42.666 -15.951   3.437  1.00  0.00    -0.064 N 
HETATM   25  H   UNL     1      43.177 -16.262   4.271  1.00  0.00     0.280 HD
HETATM   26  C   UNL     1      41.174 -15.934   3.779  1.00  0.00     0.255 C 
HETATM   27  C   UNL     1      40.860 -14.890   4.871  1.00  0.00     0.150 C 
BRANCH  24  28
HETATM   28  C   UNL     1      42.949 -16.946   2.335  1.00  0.00     0.273 C 
BRANCH  28  29
HETATM   29  C   UNL     1      43.353 -18.301   2.844  1.00  0.00    -0.033 A 
HETATM   30  C   UNL     1      43.163 -19.444   2.054  1.00  0.00     0.009 A 
HETATM   31  C   UNL     1      43.518 -20.705   2.540  1.00  0.00     0.001 A 
HETATM   32  C   UNL     1      44.061 -20.834   3.816  1.00  0.00     0.000 A 
HETATM   33  C   UNL     1      44.258 -19.706   4.607  1.00  0.00     0.001 A 
HETATM   34  C   UNL     1      43.907 -18.444   4.126  1.00  0.00     0.009 A 
ENDBRANCH  28  29
ENDBRANCH  24  28
ENDBRANCH   4  21
TORSDOF 7
ENDMDL
MODEL 6
REMARK VINA RESULT:      -7.8      2.102      4.062
REMARK  7 active torsions:
REMARK  status: ('A' for Active; 'I' for Inactive)
REMARK    1  A    between atoms: C_6  and  O_7 
REMARK    2  A    between atoms: O_7  and  C_8 
REMARK    3  A    between atoms: C_8  and  C_9 
REMARK       I    between atoms: C_9  and  N_10 
REMARK    4  A    between atoms: N_10  and  C_11 
REMARK    5  A    between atoms: C_14  and  N_15 
REMARK    6  A    between atoms: N_18  and  C_20 
REMARK    7  A    between atoms: C_20  and  C_21 
ROOT
HETATM    1  C   UNL     1      43.563 -11.692   4.883  1.00  0.00     0.034 A 
HETATM    2  C   UNL     1      44.508 -11.968   5.867  1.00  0.00     0.032 A 
HETATM    3  C   UNL     1      44.393 -11.386   7.133  1.00  0.00     0.031 A 
HETATM    4  C   UNL     1      43.326 -10.536   7.455  1.00  0.00     0.030 A 
HETATM    5  C   UNL     1      42.401 -10.241   6.448  1.00  0.00     0.031 A 
HETATM    6  C   UNL     1      42.535 -10.790   5.165  1.00  0.00     0.032 A 
ENDROOT
BRANCH   1   7
HETATM    7  N   UNL     1      43.635 -12.233   3.593  1.00  0.00    -0.325 N 
HETATM    8  C   UNL     1      43.187 -13.439   3.111  1.00  0.00     0.246 C 
HETATM    9  O   UNL     1      43.592 -13.817   2.009  1.00  0.00    -0.271 OA
HETATM   10  H   UNL     1      44.091 -11.678   2.877  1.00  0.00     0.169 HD
BRANCH   8  11
HETATM   11  C   UNL     1      42.090 -14.198   3.863  1.00  0.00     0.278 C 
BRANCH  11  12
HETATM   12  O   UNL     1      42.611 -15.236   4.681  1.00  0.00    -0.342 OA
BRANCH  12  13
HETATM   13  C   UNL     1      42.869 -16.416   4.025  1.00  0.00     0.075 A 
HETATM   14  C   UNL     1      43.845 -17.254   4.588  1.00  0.00    -0.028 A 
HETATM   15  C   UNL     1      44.139 -18.483   3.971  1.00  0.00     0.016 A 
HETATM   16  C   UNL     1      44.590 -16.848   5.830  1.00  0.00     0.051 C 
HETATM   17  C   UNL     1      43.465 -18.891   2.814  1.00  0.00    -0.061 A 
HETATM   18  C   UNL     1      43.815 -20.183   2.138  1.00  0.00     0.048 C 
HETATM   19  C   UNL     1      42.498 -18.048   2.265  1.00  0.00     0.009 A 
HETATM   20  C   UNL     1      42.193 -16.826   2.870  1.00  0.00     0.038 A 
ENDBRANCH  12  13
ENDBRANCH  11  12
ENDBRANCH   8  11
ENDBRANCH   1   7
BRANCH   4  21
HETATM   21  N   UNL     1      43.243 -10.041   8.759  1.00  0.00    -0.378 N 
HETATM   22  C   UNL     1      44.503  -9.457   9.255  1.00  0.00     0.150 C 
HETATM   23  C   UNL     1      44.469  -9.402  10.797  1.00  0.00     0.255 C 
HETATM   24  N   UNL     1      43.212  -8.685  11.308  1.00  0.00    -0.064 N 
HETATM   25  H   UNL     1      43.294  -7.703  11.021  1.00  0.00     0.280 HD
HETATM   26  C   UNL     1      41.940  -9.255  10.675  1.00  0.00     0.255 C 
HETATM   27  C   UNL     1      42.043  -9.282   9.136  1.00  0.00     0.150 C 
BRANCH  24  28
HETATM   28  C   UNL     1      43.112  -8.708  12.816  1.00  0.00     0.273 C 
BRANCH  28  29
HETATM   29  C   UNL     1      42.509  -7.459  13.393  1.00  0.00    -0.033 A 
HETATM   30  C   UNL     1      42.370  -6.306  12.606  1.00  0.00     0.009 A 
HETATM   31  C   UNL     1      41.830  -5.139  13.152  1.00  0.00     0.001 A 
HETATM   32  C   UNL     1      41.430  -5.112  14.486  1.00  0.00     0.000 A 
HETATM   33  C   UNL     1      41.560  -6.252  15.275  1.00  0.00     0.001 A 
HETATM   34  C   UNL     1      42.096  -7.421  14.734  1.00  0.00     0.009 A 
ENDBRANCH  28  29
ENDBRANCH  24  28
ENDBRANCH   4  21
TORSDOF 7
ENDMDL
MODEL 7
REMARK VINA RESULT:      -7.5      4.362      9.673
REMARK  7 active torsions:
REMARK  status: ('A' for Active; 'I' for Inactive)
REMARK    1  A    between atoms: C_6  and  O_7 
REMARK    2  A    between atoms: O_7  and  C_8 
REMARK    3  A    between atoms: C_8  and  C_9 
REMARK       I    between atoms: C_9  and  N_10 
REMARK    4  A    between atoms: N_10  and  C_11 
REMARK    5  A    between atoms: C_14  and  N_15 
REMARK    6  A    between atoms: N_18  and  C_20 
REMARK    7  A    between atoms: C_20  and  C_21 
ROOT
HETATM    1  C   UNL     1      39.564  -7.694   9.188  1.00  0.00     0.034 A 
HETATM    2  C   UNL     1      40.102  -8.935   9.516  1.00  0.00     0.032 A 
HETATM    3  C   UNL     1      40.611  -9.766   8.512  1.00  0.00     0.031 A 
HETATM    4  C   UNL     1      40.615  -9.372   7.167  1.00  0.00     0.030 A 
HETATM    5  C   UNL     1      40.041  -8.137   6.847  1.00  0.00     0.031 A 
HETATM    6  C   UNL     1      39.494  -7.318   7.845  1.00  0.00     0.032 A 
ENDROOT
BRANCH   1   7
HETATM    7  N   UNL     1      39.026  -6.826  10.147  1.00  0.00    -0.325 N 
HETATM    8  C   UNL     1      39.654  -5.962  11.012  1.00  0.00     0.246 C 
HETATM    9  O   UNL     1      39.001  -5.493  11.948  1.00  0.00    -0.271 OA
HETATM   10  H   UNL     1      38.017  -6.812  10.254  1.00  0.00     0.169 HD
BRANCH   8  11
HETATM   11  C   UNL     1      41.076  -5.482  10.709  1.00  0.00     0.278 C 
BRANCH  11  12
HETATM   12  O   UNL     1      42.047  -6.101  11.540  1.00  0.00    -0.342 OA
BRANCH  12  13
HETATM   13  C   UNL     1      42.842  -7.029  10.909  1.00  0.00     0.075 A 
HETATM   14  C   UNL     1      43.283  -8.115  11.682  1.00  0.00    -0.028 A 
HETATM   15  C   UNL     1      44.084  -9.106  11.086  1.00  0.00     0.016 A 
HETATM   16  C   UNL     1      42.925  -8.225  13.138  1.00  0.00     0.051 C 
HETATM   17  C   UNL     1      44.437  -9.033   9.734  1.00  0.00    -0.061 A 
HETATM   18  C   UNL     1      45.326 -10.071   9.116  1.00  0.00     0.048 C 
HETATM   19  C   UNL     1      43.991  -7.948   8.977  1.00  0.00     0.009 A 
HETATM   20  C   UNL     1      43.192  -6.959   9.556  1.00  0.00     0.038 A 
ENDBRANCH  12  13
ENDBRANCH  11  12
ENDBRANCH   8  11
ENDBRANCH   1   7
BRANCH   4  21
HETATM   21  N   UNL     1      41.195 -10.229   6.228  1.00  0.00    -0.378 N 
HETATM   22  C   UNL     1      42.570 -10.639   6.567  1.00  0.00     0.150 C 
HETATM   23  C   UNL     1      43.283 -11.143   5.294  1.00  0.00     0.255 C 
HETATM   24  N   UNL     1      42.468 -12.236   4.588  1.00  0.00    -0.064 N 
HETATM   25  H   UNL     1      42.460 -13.049   5.214  1.00  0.00     0.280 HD
HETATM   26  C   UNL     1      41.018 -11.802   4.362  1.00  0.00     0.255 C 
HETATM   27  C   UNL     1      40.369 -11.309   5.673  1.00  0.00     0.150 C 
BRANCH  24  28
HETATM   28  C   UNL     1      43.101 -12.673   3.287  1.00  0.00     0.273 C 
BRANCH  28  29
HETATM   29  C   UNL     1      43.091 -14.162   3.089  1.00  0.00    -0.033 A 
HETATM   30  C   UNL     1      42.887 -15.024   4.177  1.00  0.00     0.009 A 
HETATM   31  C   UNL     1      42.902 -16.408   3.994  1.00  0.00     0.001 A 
HETATM   32  C   UNL     1      43.124 -16.942   2.727  1.00  0.00     0.000 A 
HETATM   33  C   UNL     1      43.325 -16.097   1.639  1.00  0.00     0.001 A 
HETATM   34  C   UNL     1      43.308 -14.713   1.816  1.00  0.00     0.009 A 
ENDBRANCH  28  29
ENDBRANCH  24  28
ENDBRANCH   4  21
TORSDOF 7
ENDMDL
MODEL 8
REMARK VINA RESULT:      -7.5      5.050      8.402
REMARK  7 active torsions:
REMARK  status: ('A' for Active; 'I' for Inactive)
REMARK    1  A    between atoms: C_6  and  O_7 
REMARK    2  A    between atoms: O_7  and  C_8 
REMARK    3  A    between atoms: C_8  and  C_9 
REMARK       I    between atoms: C_9  and  N_10 
REMARK    4  A    between atoms: N_10  and  C_11 
REMARK    5  A    between atoms: C_14  and  N_15 
REMARK    6  A    between atoms: N_18  and  C_20 
REMARK    7  A    between atoms: C_20  and  C_21 
ROOT
HETATM    1  C   UNL     1      37.785 -11.434   0.348  1.00  0.00     0.034 A 
HETATM    2  C   UNL     1      37.901 -11.652   1.718  1.00  0.00     0.032 A 
HETATM    3  C   UNL     1      38.842 -12.564   2.205  1.00  0.00     0.031 A 
HETATM    4  C   UNL     1      39.700 -13.263   1.345  1.00  0.00     0.030 A 
HETATM    5  C   UNL     1      39.551 -13.059  -0.030  1.00  0.00     0.031 A 
HETATM    6  C   UNL     1      38.583 -12.175  -0.526  1.00  0.00     0.032 A 
ENDROOT
BRANCH   1   7
HETATM    7  N   UNL     1      36.851 -10.544  -0.200  1.00  0.00    -0.325 N 
HETATM    8  C   UNL     1      36.998  -9.235  -0.588  1.00  0.00     0.246 C 
HETATM    9  O   UNL     1      35.981  -8.568  -0.795  1.00  0.00    -0.271 OA
HETATM   10  H   UNL     1      35.906 -10.883  -0.337  1.00  0.00     0.169 HD
BRANCH   8  11
HETATM   11  C   UNL     1      38.391  -8.687  -0.908  1.00  0.00     0.278 C 
BRANCH  11  12
HETATM   12  O   UNL     1      38.967  -7.991   0.187  1.00  0.00    -0.342 OA
BRANCH  12  13
HETATM   13  C   UNL     1      39.870  -8.719   0.925  1.00  0.00     0.075 A 
HETATM   14  C   UNL     1      39.735  -8.668   2.322  1.00  0.00    -0.028 A 
HETATM   15  C   UNL     1      40.619  -9.407   3.129  1.00  0.00     0.016 A 
HETATM   16  C   UNL     1      38.670  -7.825   2.966  1.00  0.00     0.051 C 
HETATM   17  C   UNL     1      41.622 -10.201   2.562  1.00  0.00    -0.061 A 
HETATM   18  C   UNL     1      42.589 -10.952   3.429  1.00  0.00     0.048 C 
HETATM   19  C   UNL     1      41.746 -10.242   1.172  1.00  0.00     0.009 A 
HETATM   20  C   UNL     1      40.872  -9.516   0.359  1.00  0.00     0.038 A 
ENDBRANCH  12  13
ENDBRANCH  11  12
ENDBRANCH   8  11
ENDBRANCH   1   7
BRANCH   4  21
HETATM   21  N   UNL     1      40.656 -14.111   1.909  1.00  0.00    -0.378 N 
HETATM   22  C   UNL     1      40.179 -15.492   2.114  1.00  0.00     0.150 C 
HETATM   23  C   UNL     1      41.076 -16.194   3.155  1.00  0.00     0.255 C 
HETATM   24  N   UNL     1      42.560 -16.103   2.773  1.00  0.00    -0.064 N 
HETATM   25  H   UNL     1      42.680 -16.658   1.918  1.00  0.00     0.280 HD
HETATM   26  C   UNL     1      42.975 -14.664   2.459  1.00  0.00     0.255 C 
HETATM   27  C   UNL     1      42.037 -14.023   1.415  1.00  0.00     0.150 C 
BRANCH  24  28
HETATM   28  C   UNL     1      43.462 -16.699   3.829  1.00  0.00     0.273 C 
BRANCH  28  29
HETATM   29  C   UNL     1      43.599 -18.191   3.724  1.00  0.00    -0.033 A 
HETATM   30  C   UNL     1      44.001 -18.950   4.834  1.00  0.00     0.009 A 
HETATM   31  C   UNL     1      44.150 -20.334   4.726  1.00  0.00     0.001 A 
HETATM   32  C   UNL     1      43.905 -20.971   3.512  1.00  0.00     0.000 A 
HETATM   33  C   UNL     1      43.502 -20.229   2.405  1.00  0.00     0.001 A 
HETATM   34  C   UNL     1      43.349 -18.846   2.508  1.00  0.00     0.009 A 
ENDBRANCH  28  29
ENDBRANCH  24  28
ENDBRANCH   4  21
TORSDOF 7
ENDMDL
MODEL 9
REMARK VINA RESULT:      -7.4      1.443      2.249
REMARK  7 active torsions:
REMARK  status: ('A' for Active; 'I' for Inactive)
REMARK    1  A    between atoms: C_6  and  O_7 
REMARK    2  A    between atoms: O_7  and  C_8 
REMARK    3  A    between atoms: C_8  and  C_9 
REMARK       I    between atoms: C_9  and  N_10 
REMARK    4  A    between atoms: N_10  and  C_11 
REMARK    5  A    between atoms: C_14  and  N_15 
REMARK    6  A    between atoms: N_18  and  C_20 
REMARK    7  A    between atoms: C_20  and  C_21 
ROOT
HETATM    1  C   UNL     1      40.424 -12.684   2.595  1.00  0.00     0.034 A 
HETATM    2  C   UNL     1      41.740 -12.270   2.782  1.00  0.00     0.032 A 
HETATM    3  C   UNL     1      42.108 -11.619   3.964  1.00  0.00     0.031 A 
HETATM    4  C   UNL     1      41.184 -11.386   4.991  1.00  0.00     0.030 A 
HETATM    5  C   UNL     1      39.859 -11.777   4.777  1.00  0.00     0.031 A 
HETATM    6  C   UNL     1      39.476 -12.394   3.578  1.00  0.00     0.032 A 
ENDROOT
BRANCH   1   7
HETATM    7  N   UNL     1      39.992 -13.327   1.427  1.00  0.00    -0.325 N 
HETATM    8  C   UNL     1      39.979 -14.662   1.104  1.00  0.00     0.246 C 
HETATM    9  O   UNL     1      39.804 -14.977  -0.076  1.00  0.00    -0.271 OA
HETATM   10  H   UNL     1      39.635 -12.746   0.677  1.00  0.00     0.169 HD
BRANCH   8  11
HETATM   11  C   UNL     1      40.019 -15.715   2.215  1.00  0.00     0.278 C 
BRANCH  11  12
HETATM   12  O   UNL     1      41.165 -16.548   2.134  1.00  0.00    -0.342 OA
BRANCH  12  13
HETATM   13  C   UNL     1      41.999 -16.495   3.226  1.00  0.00     0.075 A 
HETATM   14  C   UNL     1      42.999 -17.477   3.309  1.00  0.00    -0.028 A 
HETATM   15  C   UNL     1      43.893 -17.462   4.394  1.00  0.00     0.016 A 
HETATM   16  C   UNL     1      43.117 -18.551   2.263  1.00  0.00     0.051 C 
HETATM   17  C   UNL     1      43.811 -16.477   5.385  1.00  0.00    -0.061 A 
HETATM   18  C   UNL     1      44.741 -16.492   6.562  1.00  0.00     0.048 C 
HETATM   19  C   UNL     1      42.811 -15.507   5.291  1.00  0.00     0.009 A 
HETATM   20  C   UNL     1      41.919 -15.508   4.215  1.00  0.00     0.038 A 
ENDBRANCH  12  13
ENDBRANCH  11  12
ENDBRANCH   8  11
ENDBRANCH   1   7
BRANCH   4  21
HETATM   21  N   UNL     1      41.639 -10.785   6.168  1.00  0.00    -0.378 N 
HETATM   22  C   UNL     1      43.103 -10.616   6.222  1.00  0.00     0.150 C 
HETATM   23  C   UNL     1      43.542 -10.425   7.689  1.00  0.00     0.255 C 
HETATM   24  N   UNL     1      42.763  -9.290   8.368  1.00  0.00    -0.064 N 
HETATM   25  H   UNL     1      43.045  -8.419   7.903  1.00  0.00     0.280 HD
HETATM   26  C   UNL     1      41.253  -9.453   8.184  1.00  0.00     0.255 C 
HETATM   27  C   UNL     1      40.885  -9.641   6.697  1.00  0.00     0.150 C 
BRANCH  24  28
HETATM   28  C   UNL     1      43.110  -9.153   9.833  1.00  0.00     0.273 C 
BRANCH  28  29
HETATM   29  C   UNL     1      42.855  -7.777  10.380  1.00  0.00    -0.033 A 
HETATM   30  C   UNL     1      42.419  -7.607  11.703  1.00  0.00     0.009 A 
HETATM   31  C   UNL     1      42.160  -6.328  12.201  1.00  0.00     0.001 A 
HETATM   32  C   UNL     1      42.330  -5.212  11.385  1.00  0.00     0.000 A 
HETATM   33  C   UNL     1      42.766  -5.370  10.072  1.00  0.00     0.001 A 
HETATM   34  C   UNL     1      43.029  -6.645   9.569  1.00  0.00     0.009 A 
ENDBRANCH  28  29
ENDBRANCH  24  28
ENDBRANCH   4  21
TORSDOF 7
ENDMDL
MODEL 10
REMARK VINA RESULT:      -7.4      1.460      1.827
REMARK  7 active torsions:
REMARK  status: ('A' for Active; 'I' for Inactive)
REMARK    1  A    between atoms: C_6  and  O_7 
REMARK    2  A    between atoms: O_7  and  C_8 
REMARK    3  A    between atoms: C_8  and  C_9 
REMARK       I    between atoms: C_9  and  N_10 
REMARK    4  A    between atoms: N_10  and  C_11 
REMARK    5  A    between atoms: C_14  and  N_15 
REMARK    6  A    between atoms: N_18  and  C_20 
REMARK    7  A    between atoms: C_20  and  C_21 
ROOT
HETATM    1  C   UNL     1      40.491 -11.180   2.867  1.00  0.00     0.034 A 
HETATM    2  C   UNL     1      39.771 -11.237   4.056  1.00  0.00     0.032 A 
HETATM    3  C   UNL     1      40.410 -10.993   5.276  1.00  0.00     0.031 A 
HETATM    4  C   UNL     1      41.771 -10.666   5.338  1.00  0.00     0.030 A 
HETATM    5  C   UNL     1      42.491 -10.643   4.139  1.00  0.00     0.031 A 
HETATM    6  C   UNL     1      41.863 -10.926   2.918  1.00  0.00     0.032 A 
ENDROOT
BRANCH   1   7
HETATM    7  N   UNL     1      39.909 -11.430   1.618  1.00  0.00    -0.325 N 
HETATM    8  C   UNL     1      39.856 -12.588   0.881  1.00  0.00     0.246 C 
HETATM    9  O   UNL     1      39.525 -12.514  -0.305  1.00  0.00    -0.271 OA
HETATM   10  H   UNL     1      39.453 -10.655   1.149  1.00  0.00     0.169 HD
BRANCH   8  11
HETATM   11  C   UNL     1      40.046 -13.940   1.574  1.00  0.00     0.278 C 
BRANCH  11  12
HETATM   12  O   UNL     1      41.414 -14.263   1.770  1.00  0.00    -0.342 OA
BRANCH  12  13
HETATM   13  C   UNL     1      41.687 -14.950   2.929  1.00  0.00     0.075 A 
HETATM   14  C   UNL     1      42.676 -15.945   2.859  1.00  0.00    -0.028 A 
HETATM   15  C   UNL     1      43.011 -16.669   4.017  1.00  0.00     0.016 A 
HETATM   16  C   UNL     1      43.369 -16.257   1.561  1.00  0.00     0.051 C 
HETATM   17  C   UNL     1      42.385 -16.405   5.241  1.00  0.00    -0.061 A 
HETATM   18  C   UNL     1      42.717 -17.210   6.462  1.00  0.00     0.048 C 
HETATM   19  C   UNL     1      41.404 -15.414   5.297  1.00  0.00     0.009 A 
HETATM   20  C   UNL     1      41.065 -14.685   4.154  1.00  0.00     0.038 A 
ENDBRANCH  12  13
ENDBRANCH  11  12
ENDBRANCH   8  11
ENDBRANCH   1   7
BRANCH   4  21
HETATM   21  N   UNL     1      42.327 -10.374   6.586  1.00  0.00    -0.378 N 
HETATM   22  C   UNL     1      41.387  -9.726   7.519  1.00  0.00     0.150 C 
HETATM   23  C   UNL     1      42.182  -9.013   8.633  1.00  0.00     0.255 C 
HETATM   24  N   UNL     1      43.173  -9.966   9.317  1.00  0.00    -0.064 N 
HETATM   25  H   UNL     1      42.613 -10.668   9.813  1.00  0.00     0.280 HD
HETATM   26  C   UNL     1      44.047 -10.699   8.296  1.00  0.00     0.255 C 
HETATM   27  C   UNL     1      43.189 -11.386   7.212  1.00  0.00     0.150 C 
BRANCH  24  28
HETATM   28  C   UNL     1      44.030  -9.263  10.344  1.00  0.00     0.273 C 
BRANCH  28  29
HETATM   29  C   UNL     1      43.351  -9.097  11.674  1.00  0.00    -0.033 A 
HETATM   30  C   UNL     1      43.569  -7.945  12.445  1.00  0.00     0.009 A 
HETATM   31  C   UNL     1      42.956  -7.804  13.692  1.00  0.00     0.001 A 
HETATM   32  C   UNL     1      42.125  -8.811  14.180  1.00  0.00     0.000 A 
HETATM   33  C   UNL     1      41.900  -9.957  13.421  1.00  0.00     0.001 A 
HETATM   34  C   UNL     1      42.508 -10.101  12.174  1.00  0.00     0.009 A 
ENDBRANCH  28  29
ENDBRANCH  24  28
ENDBRANCH   4  21
TORSDOF 7
ENDMDL
