MODEL 1
REMARK VINA RESULT:      -9.3      0.000      0.000
REMARK  3 active torsions:
REMARK  status: ('A' for Active; 'I' for Inactive)
REMARK    1  A    between atoms: C_6  and  C_7 
REMARK       I    between atoms: C_7  and  N_8 
REMARK    2  A    between atoms: N_8  and  C_9 
REMARK    3  A    between atoms: C_14  and  C_15 
ROOT
HETATM    1  C   UNL     1      43.327 -13.150   6.435  1.00  0.00     0.037 A 
HETATM    2  C   UNL     1      43.595 -14.513   6.614  1.00  0.00     0.061 A 
HETATM    3  C   UNL     1      43.461 -15.344   5.497  1.00  0.00     0.065 A 
HETATM    4  C   UNL     1      43.074 -14.889   4.243  1.00  0.00     0.086 A 
HETATM    5  N   UNL     1      43.021 -15.920   3.337  1.00  0.00    -0.226 NA
HETATM    6  C   UNL     1      43.377 -16.993   4.013  1.00  0.00     0.163 A 
HETATM    7  N   UNL     1      43.650 -16.690   5.321  1.00  0.00    -0.337 N 
HETATM    8  H   UNL     1      43.942 -17.356   6.022  1.00  0.00     0.167 HD
HETATM    9  C   UNL     1      42.804 -13.525   4.071  1.00  0.00     0.036 A 
HETATM   10  C   UNL     1      42.937 -12.668   5.175  1.00  0.00     0.032 A 
ENDROOT
BRANCH   1  11
HETATM   11  N   UNL     1      43.422 -12.207   7.476  1.00  0.00    -0.321 N 
HETATM   12  C   UNL     1      44.495 -11.388   7.774  1.00  0.00     0.280 C 
HETATM   13  O   UNL     1      45.551 -11.262   7.175  1.00  0.00    -0.265 OA
HETATM   14  H   UNL     1      42.595 -12.057   8.047  1.00  0.00     0.169 HD
BRANCH  12  15
HETATM   15  C   UNL     1      44.239 -10.526   8.997  1.00  0.00     0.193 A 
HETATM   16  C   UNL     1      44.281  -9.010   8.914  1.00  0.00     0.280 A 
HETATM   17  N   UNL     1      43.953  -8.371  10.084  1.00  0.00    -0.324 N 
HETATM   18  O   UNL     1      44.623  -8.421   7.902  1.00  0.00    -0.265 OA
HETATM   19  C   UNL     1      43.670  -9.051  11.244  1.00  0.00     0.033 A 
HETATM   20  H   UNL     1      43.964  -7.359  10.057  1.00  0.00     0.169 HD
HETATM   21  C   UNL     1      43.344  -8.207  12.442  1.00  0.00     0.070 C 
HETATM   22  C   UNL     1      43.712 -10.403  11.241  1.00  0.00     0.054 A 
HETATM   23  N   UNL     1      44.007 -11.157  10.121  1.00  0.00    -0.241 NA
HETATM   24  C   UNL     1      43.406 -11.239  12.461  1.00  0.00     0.072 C 
ENDBRANCH  12  15
ENDBRANCH   1  11
BRANCH   6  25
HETATM   25  C   UNL     1      43.481 -18.319   3.495  1.00  0.00     0.120 A 
HETATM   26  O   UNL     1      43.952 -19.373   4.239  1.00  0.00    -0.319 OA
HETATM   27  C   UNL     1      43.924 -20.477   3.451  1.00  0.00     0.142 A 
HETATM   28  C   UNL     1      43.439 -20.166   2.204  1.00  0.00     0.027 A 
HETATM   29  C   UNL     1      43.155 -18.780   2.232  1.00  0.00     0.043 A 
ENDBRANCH   6  25
TORSDOF 3
ENDMDL
MODEL 2
REMARK VINA RESULT:      -9.0      1.426      1.930
REMARK  3 active torsions:
REMARK  status: ('A' for Active; 'I' for Inactive)
REMARK    1  A    between atoms: C_6  and  C_7 
REMARK       I    between atoms: C_7  and  N_8 
REMARK    2  A    between atoms: N_8  and  C_9 
REMARK    3  A    between atoms: C_14  and  C_15 
ROOT
HETATM    1  C   UNL     1      43.097 -12.298   6.610  1.00  0.00     0.037 A 
HETATM    2  C   UNL     1      43.285 -13.678   6.765  1.00  0.00     0.061 A 
HETATM    3  C   UNL     1      43.248 -14.462   5.608  1.00  0.00     0.065 A 
HETATM    4  C   UNL     1      43.029 -13.948   4.336  1.00  0.00     0.086 A 
HETATM    5  N   UNL     1      43.040 -14.943   3.390  1.00  0.00    -0.226 NA
HETATM    6  C   UNL     1      43.269 -16.054   4.060  1.00  0.00     0.163 A 
HETATM    7  N   UNL     1      43.401 -15.809   5.402  1.00  0.00    -0.337 N 
HETATM    8  H   UNL     1      43.581 -16.511   6.105  1.00  0.00     0.167 HD
HETATM    9  C   UNL     1      42.838 -12.568   4.189  1.00  0.00     0.036 A 
HETATM   10  C   UNL     1      42.877 -11.756   5.334  1.00  0.00     0.032 A 
ENDROOT
BRANCH   1  11
HETATM   11  N   UNL     1      43.109 -11.398   7.692  1.00  0.00    -0.321 N 
HETATM   12  C   UNL     1      44.206 -10.964   8.413  1.00  0.00     0.280 C 
HETATM   13  O   UNL     1      45.387 -11.214   8.235  1.00  0.00    -0.265 OA
HETATM   14  H   UNL     1      42.227 -10.962   7.947  1.00  0.00     0.169 HD
BRANCH  12  15
HETATM   15  C   UNL     1      43.819 -10.017   9.534  1.00  0.00     0.193 A 
HETATM   16  C   UNL     1      43.788 -10.479  10.980  1.00  0.00     0.280 A 
HETATM   17  N   UNL     1      43.493  -9.488  11.884  1.00  0.00    -0.324 N 
HETATM   18  O   UNL     1      43.963 -11.644  11.297  1.00  0.00    -0.265 OA
HETATM   19  C   UNL     1      43.197  -8.203  11.501  1.00  0.00     0.033 A 
HETATM   20  H   UNL     1      43.474  -9.765  12.858  1.00  0.00     0.169 HD
HETATM   21  C   UNL     1      42.883  -7.239  12.610  1.00  0.00     0.070 C 
HETATM   22  C   UNL     1      43.192  -7.892  10.185  1.00  0.00     0.054 A 
HETATM   23  N   UNL     1      43.493  -8.796   9.185  1.00  0.00    -0.241 NA
HETATM   24  C   UNL     1      42.890  -6.507   9.667  1.00  0.00     0.072 C 
ENDBRANCH  12  15
ENDBRANCH   1  11
BRANCH   6  25
HETATM   25  C   UNL     1      43.377 -17.365   3.506  1.00  0.00     0.120 A 
HETATM   26  O   UNL     1      44.089 -18.372   4.111  1.00  0.00    -0.319 OA
HETATM   27  C   UNL     1      43.991 -19.473   3.325  1.00  0.00     0.142 A 
HETATM   28  C   UNL     1      43.225 -19.208   2.216  1.00  0.00     0.027 A 
HETATM   29  C   UNL     1      42.832 -17.853   2.331  1.00  0.00     0.043 A 
ENDBRANCH   6  25
TORSDOF 3
ENDMDL
MODEL 3
REMARK VINA RESULT:      -8.4      1.838      2.521
REMARK  3 active torsions:
REMARK  status: ('A' for Active; 'I' for Inactive)
REMARK    1  A    between atoms: C_6  and  C_7 
REMARK       I    between atoms: C_7  and  N_8 
REMARK    2  A    between atoms: N_8  and  C_9 
REMARK    3  A    between atoms: C_14  and  C_15 
ROOT
HETATM    1  C   UNL     1      43.014 -13.904   6.653  1.00  0.00     0.037 A 
HETATM    2  C   UNL     1      43.075 -14.415   5.350  1.00  0.00     0.061 A 
HETATM    3  C   UNL     1      43.245 -15.796   5.212  1.00  0.00     0.065 A 
HETATM    4  C   UNL     1      43.364 -16.668   6.287  1.00  0.00     0.086 A 
HETATM    5  N   UNL     1      43.526 -17.963   5.859  1.00  0.00    -0.226 NA
HETATM    6  C   UNL     1      43.500 -17.898   4.543  1.00  0.00     0.163 A 
HETATM    7  N   UNL     1      43.333 -16.609   4.111  1.00  0.00    -0.337 N 
HETATM    8  H   UNL     1      43.284 -16.323   3.144  1.00  0.00     0.167 HD
HETATM    9  C   UNL     1      43.307 -16.150   7.587  1.00  0.00     0.036 A 
HETATM   10  C   UNL     1      43.130 -14.767   7.754  1.00  0.00     0.032 A 
ENDROOT
BRANCH   1  11
HETATM   11  N   UNL     1      42.848 -12.534   6.931  1.00  0.00    -0.321 N 
HETATM   12  C   UNL     1      43.810 -11.641   7.365  1.00  0.00     0.280 C 
HETATM   13  O   UNL     1      45.003 -11.827   7.540  1.00  0.00    -0.265 OA
HETATM   14  H   UNL     1      41.938 -12.125   6.740  1.00  0.00     0.169 HD
BRANCH  12  15
HETATM   15  C   UNL     1      43.245 -10.251   7.591  1.00  0.00     0.193 A 
HETATM   16  C   UNL     1      42.422  -9.552   6.523  1.00  0.00     0.280 A 
HETATM   17  N   UNL     1      41.918  -8.334   6.905  1.00  0.00    -0.324 N 
HETATM   18  O   UNL     1      42.268 -10.021   5.408  1.00  0.00    -0.265 OA
HETATM   19  C   UNL     1      42.187  -7.773   8.131  1.00  0.00     0.033 A 
HETATM   20  H   UNL     1      41.358  -7.848   6.216  1.00  0.00     0.169 HD
HETATM   21  C   UNL     1      41.573  -6.428   8.392  1.00  0.00     0.070 C 
HETATM   22  C   UNL     1      42.978  -8.442   9.001  1.00  0.00     0.054 A 
HETATM   23  N   UNL     1      43.525  -9.683   8.738  1.00  0.00    -0.241 NA
HETATM   24  C   UNL     1      43.323  -7.914  10.372  1.00  0.00     0.072 C 
ENDBRANCH  12  15
ENDBRANCH   1  11
BRANCH   6  25
HETATM   25  C   UNL     1      43.624 -18.999   3.643  1.00  0.00     0.120 A 
HETATM   26  O   UNL     1      44.025 -20.249   4.048  1.00  0.00    -0.319 OA
HETATM   27  C   UNL     1      44.040 -21.050   2.953  1.00  0.00     0.142 A 
HETATM   28  C   UNL     1      43.651 -20.349   1.838  1.00  0.00     0.027 A 
HETATM   29  C   UNL     1      43.385 -19.031   2.280  1.00  0.00     0.043 A 
ENDBRANCH   6  25
TORSDOF 3
ENDMDL
MODEL 4
REMARK VINA RESULT:      -8.2      6.071      9.711
REMARK  3 active torsions:
REMARK  status: ('A' for Active; 'I' for Inactive)
REMARK    1  A    between atoms: C_6  and  C_7 
REMARK       I    between atoms: C_7  and  N_8 
REMARK    2  A    between atoms: N_8  and  C_9 
REMARK    3  A    between atoms: C_14  and  C_15 
ROOT
HETATM    1  C   UNL     1      40.713 -14.440   2.270  1.00  0.00     0.037 A 
HETATM    2  C   UNL     1      40.203 -14.401   0.966  1.00  0.00     0.061 A 
HETATM    3  C   UNL     1      39.447 -13.280   0.607  1.00  0.00     0.065 A 
HETATM    4  C   UNL     1      39.176 -12.227   1.472  1.00  0.00     0.086 A 
HETATM    5  N   UNL     1      38.410 -11.267   0.857  1.00  0.00    -0.226 NA
HETATM    6  C   UNL     1      38.216 -11.711  -0.368  1.00  0.00     0.163 A 
HETATM    7  N   UNL     1      38.825 -12.923  -0.560  1.00  0.00    -0.337 N 
HETATM    8  H   UNL     1      38.809 -13.449  -1.422  1.00  0.00     0.167 HD
HETATM    9  C   UNL     1      39.685 -12.274   2.776  1.00  0.00     0.036 A 
HETATM   10  C   UNL     1      40.453 -13.386   3.159  1.00  0.00     0.032 A 
ENDROOT
BRANCH   1  11
HETATM   11  N   UNL     1      41.487 -15.510   2.758  1.00  0.00    -0.321 N 
HETATM   12  C   UNL     1      42.780 -15.845   2.401  1.00  0.00     0.280 C 
HETATM   13  O   UNL     1      43.539 -15.262   1.645  1.00  0.00    -0.265 OA
HETATM   14  H   UNL     1      41.086 -16.076   3.501  1.00  0.00     0.169 HD
BRANCH  12  15
HETATM   15  C   UNL     1      43.271 -17.089   3.117  1.00  0.00     0.193 A 
HETATM   16  C   UNL     1      43.642 -17.055   4.589  1.00  0.00     0.280 A 
HETATM   17  N   UNL     1      43.995 -18.275   5.111  1.00  0.00    -0.324 N 
HETATM   18  O   UNL     1      43.666 -16.019   5.232  1.00  0.00    -0.265 OA
HETATM   19  C   UNL     1      44.061 -19.415   4.347  1.00  0.00     0.033 A 
HETATM   20  H   UNL     1      44.239 -18.285   6.094  1.00  0.00     0.169 HD
HETATM   21  C   UNL     1      44.478 -20.668   5.064  1.00  0.00     0.070 C 
HETATM   22  C   UNL     1      43.769 -19.342   3.029  1.00  0.00     0.054 A 
HETATM   23  N   UNL     1      43.380 -18.177   2.395  1.00  0.00    -0.241 NA
HETATM   24  C   UNL     1      43.803 -20.539   2.110  1.00  0.00     0.072 C 
ENDBRANCH  12  15
ENDBRANCH   1  11
BRANCH   6  25
HETATM   25  C   UNL     1      37.478 -11.051  -1.395  1.00  0.00     0.120 A 
HETATM   26  O   UNL     1      37.127  -9.724  -1.324  1.00  0.00    -0.319 OA
HETATM   27  C   UNL     1      36.435  -9.422  -2.451  1.00  0.00     0.142 A 
HETATM   28  C   UNL     1      36.330 -10.524  -3.263  1.00  0.00     0.027 A 
HETATM   29  C   UNL     1      36.998 -11.571  -2.585  1.00  0.00     0.043 A 
ENDBRANCH   6  25
TORSDOF 3
ENDMDL
MODEL 5
REMARK VINA RESULT:      -8.1      4.337      9.951
REMARK  3 active torsions:
REMARK  status: ('A' for Active; 'I' for Inactive)
REMARK    1  A    between atoms: C_6  and  C_7 
REMARK       I    between atoms: C_7  and  N_8 
REMARK    2  A    between atoms: N_8  and  C_9 
REMARK    3  A    between atoms: C_14  and  C_15 
ROOT
HETATM    1  C   UNL     1      42.074 -13.439   3.575  1.00  0.00     0.037 A 
HETATM    2  C   UNL     1      42.385 -12.177   4.097  1.00  0.00     0.061 A 
HETATM    3  C   UNL     1      43.042 -12.139   5.331  1.00  0.00     0.065 A 
HETATM    4  C   UNL     1      43.386 -13.275   6.054  1.00  0.00     0.086 A 
HETATM    5  N   UNL     1      44.016 -12.942   7.229  1.00  0.00    -0.226 NA
HETATM    6  C   UNL     1      44.070 -11.626   7.231  1.00  0.00     0.163 A 
HETATM    7  N   UNL     1      43.493 -11.101   6.105  1.00  0.00    -0.337 N 
HETATM    8  H   UNL     1      43.422 -10.116   5.894  1.00  0.00     0.167 HD
HETATM    9  C   UNL     1      43.067 -14.534   5.529  1.00  0.00     0.036 A 
HETATM   10  C   UNL     1      42.413 -14.599   4.288  1.00  0.00     0.032 A 
ENDROOT
BRANCH   1  11
HETATM   11  N   UNL     1      41.412 -13.617   2.345  1.00  0.00    -0.321 N 
HETATM   12  C   UNL     1      40.335 -12.900   1.858  1.00  0.00     0.280 C 
HETATM   13  O   UNL     1      39.772 -11.936   2.351  1.00  0.00    -0.265 OA
HETATM   14  H   UNL     1      41.795 -14.306   1.704  1.00  0.00     0.169 HD
BRANCH  12  15
HETATM   15  C   UNL     1      39.872 -13.406   0.504  1.00  0.00     0.193 A 
HETATM   16  C   UNL     1      39.740 -14.892   0.222  1.00  0.00     0.280 A 
HETATM   17  N   UNL     1      39.239 -15.188  -1.021  1.00  0.00    -0.324 N 
HETATM   18  O   UNL     1      40.097 -15.742   1.020  1.00  0.00    -0.265 OA
HETATM   19  C   UNL     1      38.938 -14.219  -1.948  1.00  0.00     0.033 A 
HETATM   20  H   UNL     1      39.131 -16.172  -1.235  1.00  0.00     0.169 HD
HETATM   21  C   UNL     1      38.411 -14.707  -3.267  1.00  0.00     0.070 C 
HETATM   22  C   UNL     1      39.141 -12.920  -1.632  1.00  0.00     0.054 A 
HETATM   23  N   UNL     1      39.620 -12.498  -0.407  1.00  0.00    -0.241 NA
HETATM   24  C   UNL     1      38.832 -11.785  -2.577  1.00  0.00     0.072 C 
ENDBRANCH  12  15
ENDBRANCH   1  11
BRANCH   6  25
HETATM   25  C   UNL     1      44.645 -10.808   8.250  1.00  0.00     0.120 A 
HETATM   26  O   UNL     1      44.426 -11.024   9.589  1.00  0.00    -0.319 OA
HETATM   27  C   UNL     1      45.110 -10.074  10.275  1.00  0.00     0.142 A 
HETATM   28  C   UNL     1      45.777  -9.242   9.410  1.00  0.00     0.027 A 
HETATM   29  C   UNL     1      45.478  -9.711   8.109  1.00  0.00     0.043 A 
ENDBRANCH   6  25
TORSDOF 3
ENDMDL
MODEL 6
REMARK VINA RESULT:      -7.9      2.057      9.602
REMARK  3 active torsions:
REMARK  status: ('A' for Active; 'I' for Inactive)
REMARK    1  A    between atoms: C_6  and  C_7 
REMARK       I    between atoms: C_7  and  N_8 
REMARK    2  A    between atoms: N_8  and  C_9 
REMARK    3  A    between atoms: C_14  and  C_15 
ROOT
HETATM    1  C   UNL     1      42.835 -13.453   4.969  1.00  0.00     0.037 A 
HETATM    2  C   UNL     1      43.194 -13.094   6.275  1.00  0.00     0.061 A 
HETATM    3  C   UNL     1      43.019 -11.755   6.641  1.00  0.00     0.065 A 
HETATM    4  C   UNL     1      42.524 -10.782   5.783  1.00  0.00     0.086 A 
HETATM    5  N   UNL     1      42.463  -9.559   6.404  1.00  0.00    -0.226 NA
HETATM    6  C   UNL     1      42.905  -9.770   7.627  1.00  0.00     0.163 A 
HETATM    7  N   UNL     1      43.252 -11.082   7.812  1.00  0.00    -0.337 N 
HETATM    8  H   UNL     1      43.614 -11.471   8.671  1.00  0.00     0.167 HD
HETATM    9  C   UNL     1      42.170 -11.147   4.477  1.00  0.00     0.036 A 
HETATM   10  C   UNL     1      42.330 -12.486   4.086  1.00  0.00     0.032 A 
ENDROOT
BRANCH   1  11
HETATM   11  N   UNL     1      42.963 -14.765   4.474  1.00  0.00    -0.321 N 
HETATM   12  C   UNL     1      42.646 -15.944   5.123  1.00  0.00     0.280 C 
HETATM   13  O   UNL     1      42.139 -16.100   6.221  1.00  0.00    -0.265 OA
HETATM   14  H   UNL     1      43.266 -14.873   3.510  1.00  0.00     0.169 HD
BRANCH  12  15
HETATM   15  C   UNL     1      42.954 -17.167   4.278  1.00  0.00     0.193 A 
HETATM   16  C   UNL     1      42.629 -17.202   2.795  1.00  0.00     0.280 A 
HETATM   17  N   UNL     1      43.037 -18.345   2.155  1.00  0.00    -0.324 N 
HETATM   18  O   UNL     1      42.015 -16.306   2.241  1.00  0.00    -0.265 OA
HETATM   19  C   UNL     1      43.636 -19.390   2.816  1.00  0.00     0.033 A 
HETATM   20  H   UNL     1      42.841 -18.394   1.162  1.00  0.00     0.169 HD
HETATM   21  C   UNL     1      44.011 -20.577   1.975  1.00  0.00     0.070 C 
HETATM   22  C   UNL     1      43.836 -19.297   4.150  1.00  0.00     0.054 A 
HETATM   23  N   UNL     1      43.489 -18.189   4.900  1.00  0.00    -0.241 NA
HETATM   24  C   UNL     1      44.494 -20.385   4.963  1.00  0.00     0.072 C 
ENDBRANCH  12  15
ENDBRANCH   1  11
BRANCH   6  25
HETATM   25  C   UNL     1      43.023  -8.792   8.660  1.00  0.00     0.120 A 
HETATM   26  O   UNL     1      43.107  -7.445   8.403  1.00  0.00    -0.319 OA
HETATM   27  C   UNL     1      43.214  -6.806   9.595  1.00  0.00     0.142 A 
HETATM   28  C   UNL     1      43.197  -7.709  10.629  1.00  0.00     0.027 A 
HETATM   29  C   UNL     1      43.076  -8.985  10.030  1.00  0.00     0.043 A 
ENDBRANCH   6  25
TORSDOF 3
ENDMDL
MODEL 7
REMARK VINA RESULT:      -7.9      4.546      5.672
REMARK  3 active torsions:
REMARK  status: ('A' for Active; 'I' for Inactive)
REMARK    1  A    between atoms: C_6  and  C_7 
REMARK       I    between atoms: C_7  and  N_8 
REMARK    2  A    between atoms: N_8  and  C_9 
REMARK    3  A    between atoms: C_14  and  C_15 
ROOT
HETATM    1  C   UNL     1      42.228 -12.978   3.393  1.00  0.00     0.037 A 
HETATM    2  C   UNL     1      41.309 -12.358   2.536  1.00  0.00     0.061 A 
HETATM    3  C   UNL     1      40.836 -13.108   1.455  1.00  0.00     0.065 A 
HETATM    4  C   UNL     1      41.233 -14.413   1.191  1.00  0.00     0.086 A 
HETATM    5  N   UNL     1      40.614 -14.902   0.067  1.00  0.00    -0.226 NA
HETATM    6  C   UNL     1      39.841 -13.923  -0.355  1.00  0.00     0.163 A 
HETATM    7  N   UNL     1      39.945 -12.822   0.453  1.00  0.00    -0.337 N 
HETATM    8  H   UNL     1      39.442 -11.956   0.321  1.00  0.00     0.167 HD
HETATM    9  C   UNL     1      42.155 -15.026   2.050  1.00  0.00     0.036 A 
HETATM   10  C   UNL     1      42.641 -14.296   3.147  1.00  0.00     0.032 A 
ENDROOT
BRANCH   1  11
HETATM   11  N   UNL     1      42.783 -12.334   4.515  1.00  0.00    -0.321 N 
HETATM   12  C   UNL     1      42.128 -11.936   5.666  1.00  0.00     0.280 C 
HETATM   13  O   UNL     1      40.961 -12.107   5.980  1.00  0.00    -0.265 OA
HETATM   14  H   UNL     1      43.789 -12.191   4.522  1.00  0.00     0.169 HD
BRANCH  12  15
HETATM   15  C   UNL     1      43.056 -11.240   6.644  1.00  0.00     0.193 A 
HETATM   16  C   UNL     1      44.356 -11.884   7.091  1.00  0.00     0.280 A 
HETATM   17  N   UNL     1      45.121 -11.098   7.917  1.00  0.00    -0.324 N 
HETATM   18  O   UNL     1      44.663 -13.021   6.774  1.00  0.00    -0.265 OA
HETATM   19  C   UNL     1      44.712  -9.859   8.347  1.00  0.00     0.033 A 
HETATM   20  H   UNL     1      45.999 -11.498   8.224  1.00  0.00     0.169 HD
HETATM   21  C   UNL     1      45.657  -9.130   9.259  1.00  0.00     0.070 C 
HETATM   22  C   UNL     1      43.510  -9.386   7.944  1.00  0.00     0.054 A 
HETATM   23  N   UNL     1      42.663 -10.074   7.097  1.00  0.00    -0.241 NA
HETATM   24  C   UNL     1      42.978  -8.034   8.353  1.00  0.00     0.072 C 
ENDBRANCH  12  15
ENDBRANCH   1  11
BRANCH   6  25
HETATM   25  C   UNL     1      38.986 -13.958  -1.498  1.00  0.00     0.120 A 
HETATM   26  O   UNL     1      37.913 -13.114  -1.651  1.00  0.00    -0.319 OA
HETATM   27  C   UNL     1      37.319 -13.414  -2.833  1.00  0.00     0.142 A 
HETATM   28  C   UNL     1      37.987 -14.437  -3.461  1.00  0.00     0.027 A 
HETATM   29  C   UNL     1      39.056 -14.788  -2.603  1.00  0.00     0.043 A 
ENDBRANCH   6  25
TORSDOF 3
ENDMDL
MODEL 8
REMARK VINA RESULT:      -7.8      3.084      3.922
REMARK  3 active torsions:
REMARK  status: ('A' for Active; 'I' for Inactive)
REMARK    1  A    between atoms: C_6  and  C_7 
REMARK       I    between atoms: C_7  and  N_8 
REMARK    2  A    between atoms: N_8  and  C_9 
REMARK    3  A    between atoms: C_14  and  C_15 
ROOT
HETATM    1  C   UNL     1      42.574 -12.106   5.996  1.00  0.00     0.037 A 
HETATM    2  C   UNL     1      41.902 -11.590   4.880  1.00  0.00     0.061 A 
HETATM    3  C   UNL     1      41.743 -12.440   3.780  1.00  0.00     0.065 A 
HETATM    4  C   UNL     1      42.220 -13.744   3.741  1.00  0.00     0.086 A 
HETATM    5  N   UNL     1      41.928 -14.342   2.540  1.00  0.00    -0.226 NA
HETATM    6  C   UNL     1      41.275 -13.429   1.849  1.00  0.00     0.163 A 
HETATM    7  N   UNL     1      41.142 -12.266   2.561  1.00  0.00    -0.337 N 
HETATM    8  H   UNL     1      40.676 -11.434   2.230  1.00  0.00     0.167 HD
HETATM    9  C   UNL     1      42.895 -14.252   4.859  1.00  0.00     0.036 A 
HETATM   10  C   UNL     1      43.062 -13.421   5.979  1.00  0.00     0.032 A 
ENDROOT
BRANCH   1  11
HETATM   11  N   UNL     1      42.802 -11.356   7.166  1.00  0.00    -0.321 N 
HETATM   12  C   UNL     1      43.985 -10.765   7.569  1.00  0.00     0.280 C 
HETATM   13  O   UNL     1      45.054 -10.714   6.981  1.00  0.00    -0.265 OA
HETATM   14  H   UNL     1      42.002 -11.167   7.764  1.00  0.00     0.169 HD
BRANCH  12  15
HETATM   15  C   UNL     1      43.853 -10.067   8.910  1.00  0.00     0.193 A 
HETATM   16  C   UNL     1      43.801  -8.552   9.007  1.00  0.00     0.280 A 
HETATM   17  N   UNL     1      43.603  -8.075  10.279  1.00  0.00    -0.324 N 
HETATM   18  O   UNL     1      43.970  -7.830   8.039  1.00  0.00    -0.265 OA
HETATM   19  C   UNL     1      43.518  -8.900  11.374  1.00  0.00     0.033 A 
HETATM   20  H   UNL     1      43.556  -7.067  10.373  1.00  0.00     0.169 HD
HETATM   21  C   UNL     1      43.314  -8.221  12.698  1.00  0.00     0.070 C 
HETATM   22  C   UNL     1      43.631 -10.236  11.202  1.00  0.00     0.054 A 
HETATM   23  N   UNL     1      43.810 -10.836   9.970  1.00  0.00    -0.241 NA
HETATM   24  C   UNL     1      43.541 -11.224  12.340  1.00  0.00     0.072 C 
ENDBRANCH  12  15
ENDBRANCH   1  11
BRANCH   6  25
HETATM   25  C   UNL     1      40.752 -13.586   0.530  1.00  0.00     0.120 A 
HETATM   26  O   UNL     1      40.907 -12.634  -0.449  1.00  0.00    -0.319 OA
HETATM   27  C   UNL     1      40.292 -13.093  -1.568  1.00  0.00     0.142 A 
HETATM   28  C   UNL     1      39.740 -14.330  -1.341  1.00  0.00     0.027 A 
HETATM   29  C   UNL     1      40.033 -14.646   0.006  1.00  0.00     0.043 A 
ENDBRANCH   6  25
TORSDOF 3
ENDMDL
MODEL 9
REMARK VINA RESULT:      -7.7      2.750      3.831
REMARK  3 active torsions:
REMARK  status: ('A' for Active; 'I' for Inactive)
REMARK    1  A    between atoms: C_6  and  C_7 
REMARK       I    between atoms: C_7  and  N_8 
REMARK    2  A    between atoms: N_8  and  C_9 
REMARK    3  A    between atoms: C_14  and  C_15 
ROOT
HETATM    1  C   UNL     1      42.895 -13.413   5.766  1.00  0.00     0.037 A 
HETATM    2  C   UNL     1      42.621 -14.195   4.637  1.00  0.00     0.061 A 
HETATM    3  C   UNL     1      43.076 -15.518   4.649  1.00  0.00     0.065 A 
HETATM    4  C   UNL     1      43.780 -16.079   5.707  1.00  0.00     0.086 A 
HETATM    5  N   UNL     1      44.103 -17.389   5.447  1.00  0.00    -0.226 NA
HETATM    6  C   UNL     1      43.602 -17.639   4.254  1.00  0.00     0.163 A 
HETATM    7  N   UNL     1      42.974 -16.536   3.737  1.00  0.00    -0.337 N 
HETATM    8  H   UNL     1      42.518 -16.498   2.837  1.00  0.00     0.167 HD
HETATM    9  C   UNL     1      44.053 -15.291   6.832  1.00  0.00     0.036 A 
HETATM   10  C   UNL     1      43.603 -13.961   6.847  1.00  0.00     0.032 A 
ENDROOT
BRANCH   1  11
HETATM   11  N   UNL     1      42.496 -12.068   5.880  1.00  0.00    -0.321 N 
HETATM   12  C   UNL     1      42.947 -10.991   5.140  1.00  0.00     0.280 C 
HETATM   13  O   UNL     1      43.730 -10.981   4.203  1.00  0.00    -0.265 OA
HETATM   14  H   UNL     1      41.749 -11.856   6.536  1.00  0.00     0.169 HD
BRANCH  12  15
HETATM   15  C   UNL     1      42.309  -9.685   5.575  1.00  0.00     0.193 A 
HETATM   16  C   UNL     1      42.301  -9.260   7.033  1.00  0.00     0.280 A 
HETATM   17  N   UNL     1      41.754  -8.021   7.257  1.00  0.00    -0.324 N 
HETATM   18  O   UNL     1      42.704  -9.986   7.926  1.00  0.00    -0.265 OA
HETATM   19  C   UNL     1      41.210  -7.259   6.251  1.00  0.00     0.033 A 
HETATM   20  H   UNL     1      41.743  -7.706   8.220  1.00  0.00     0.169 HD
HETATM   21  C   UNL     1      40.640  -5.932   6.662  1.00  0.00     0.070 C 
HETATM   22  C   UNL     1      41.209  -7.742   4.988  1.00  0.00     0.054 A 
HETATM   23  N   UNL     1      41.749  -8.964   4.636  1.00  0.00    -0.241 NA
HETATM   24  C   UNL     1      40.645  -6.977   3.815  1.00  0.00     0.072 C 
ENDBRANCH  12  15
ENDBRANCH   1  11
BRANCH   6  25
HETATM   25  C   UNL     1      43.676 -18.879   3.553  1.00  0.00     0.120 A 
HETATM   26  O   UNL     1      44.068 -20.051   4.154  1.00  0.00    -0.319 OA
HETATM   27  C   UNL     1      44.032 -21.027   3.213  1.00  0.00     0.142 A 
HETATM   28  C   UNL     1      43.619 -20.518   2.006  1.00  0.00     0.027 A 
HETATM   29  C   UNL     1      43.392 -19.138   2.224  1.00  0.00     0.043 A 
ENDBRANCH   6  25
TORSDOF 3
ENDMDL
MODEL 10
REMARK VINA RESULT:      -7.7      2.497      2.793
REMARK  3 active torsions:
REMARK  status: ('A' for Active; 'I' for Inactive)
REMARK    1  A    between atoms: C_6  and  C_7 
REMARK       I    between atoms: C_7  and  N_8 
REMARK    2  A    between atoms: N_8  and  C_9 
REMARK    3  A    between atoms: C_14  and  C_15 
ROOT
HETATM    1  C   UNL     1      42.456 -12.724   5.568  1.00  0.00     0.037 A 
HETATM    2  C   UNL     1      42.479 -14.075   5.938  1.00  0.00     0.061 A 
HETATM    3  C   UNL     1      42.776 -15.007   4.939  1.00  0.00     0.065 A 
HETATM    4  C   UNL     1      43.035 -14.663   3.619  1.00  0.00     0.086 A 
HETATM    5  N   UNL     1      43.291 -15.777   2.857  1.00  0.00    -0.226 NA
HETATM    6  C   UNL     1      43.199 -16.794   3.690  1.00  0.00     0.163 A 
HETATM    7  N   UNL     1      42.890 -16.373   4.957  1.00  0.00    -0.337 N 
HETATM    8  H   UNL     1      42.771 -16.979   5.756  1.00  0.00     0.167 HD
HETATM    9  C   UNL     1      43.006 -13.311   3.253  1.00  0.00     0.036 A 
HETATM   10  C   UNL     1      42.717 -12.353   4.240  1.00  0.00     0.032 A 
ENDROOT
BRANCH   1  11
HETATM   11  N   UNL     1      42.169 -11.686   6.475  1.00  0.00    -0.321 N 
HETATM   12  C   UNL     1      41.218 -10.691   6.341  1.00  0.00     0.280 C 
HETATM   13  O   UNL     1      40.396 -10.533   5.453  1.00  0.00    -0.265 OA
HETATM   14  H   UNL     1      42.666 -11.689   7.361  1.00  0.00     0.169 HD
BRANCH  12  15
HETATM   15  C   UNL     1      41.226  -9.727   7.513  1.00  0.00     0.193 A 
HETATM   16  C   UNL     1      39.995  -9.534   8.382  1.00  0.00     0.280 A 
HETATM   17  N   UNL     1      40.183  -8.688   9.446  1.00  0.00    -0.324 N 
HETATM   18  O   UNL     1      38.924 -10.055   8.120  1.00  0.00    -0.265 OA
HETATM   19  C   UNL     1      41.367  -8.028   9.667  1.00  0.00     0.033 A 
HETATM   20  H   UNL     1      39.381  -8.547  10.049  1.00  0.00     0.169 HD
HETATM   21  C   UNL     1      41.407  -7.126  10.868  1.00  0.00     0.070 C 
HETATM   22  C   UNL     1      42.395  -8.215   8.809  1.00  0.00     0.054 A 
HETATM   23  N   UNL     1      42.334  -9.058   7.716  1.00  0.00    -0.241 NA
HETATM   24  C   UNL     1      43.738  -7.545   8.973  1.00  0.00     0.072 C 
ENDBRANCH  12  15
ENDBRANCH   1  11
BRANCH   6  25
HETATM   25  C   UNL     1      43.392 -18.170   3.364  1.00  0.00     0.120 A 
HETATM   26  O   UNL     1      43.901 -19.081   4.257  1.00  0.00    -0.319 OA
HETATM   27  C   UNL     1      43.957 -20.283   3.629  1.00  0.00     0.142 A 
HETATM   28  C   UNL     1      43.489 -20.177   2.343  1.00  0.00     0.027 A 
HETATM   29  C   UNL     1      43.127 -18.819   2.171  1.00  0.00     0.043 A 
ENDBRANCH   6  25
TORSDOF 3
ENDMDL
