MODEL 1
REMARK VINA RESULT:      -9.3      0.000      0.000
REMARK  5 active torsions:
REMARK  status: ('A' for Active; 'I' for Inactive)
REMARK    1  A    between atoms: C_2  and  O_3 
REMARK    2  A    between atoms: O_3  and  C_4 
REMARK    3  A    between atoms: C_8  and  C_9 
REMARK    4  A    between atoms: C_9  and  N_10 
REMARK       I    between atoms: N_10  and  C_11 
REMARK       I    between atoms: C_11  and  N_12 
REMARK    5  A    between atoms: N_12  and  C_13 
ROOT
HETATM    1  N   UNL     1      42.454 -13.053   6.591  1.00  0.00    -0.339 N 
HETATM    2  C   UNL     1      42.674 -13.948   5.575  1.00  0.00     0.316 C 
HETATM    3  N   UNL     1      42.472 -15.247   5.984  1.00  0.00    -0.337 N 
HETATM    4  O   UNL     1      43.019 -13.627   4.445  1.00  0.00    -0.247 OA
HETATM    5  H   UNL     1      42.556 -13.394   7.535  1.00  0.00     0.164 HD
HETATM    6  H   UNL     1      41.818 -15.365   6.745  1.00  0.00     0.164 HD
ENDROOT
BRANCH   1   7
HETATM    7  C   UNL     1      42.627 -11.631   6.379  1.00  0.00     0.163 C 
BRANCH   7   8
HETATM    8  C   UNL     1      43.632 -10.997   7.307  1.00  0.00    -0.035 A 
HETATM    9  C   UNL     1      45.011 -11.113   7.119  1.00  0.00     0.028 A 
HETATM   10  C   UNL     1      45.862 -10.457   7.996  1.00  0.00     0.120 A 
HETATM   11  N   UNL     1      45.442  -9.691   9.024  1.00  0.00    -0.237 NA
HETATM   12  C   UNL     1      44.114  -9.555   9.173  1.00  0.00     0.165 A 
HETATM   13  C   UNL     1      43.184 -10.179   8.352  1.00  0.00     0.066 A 
BRANCH  12  14
HETATM   14  O   UNL     1      43.592  -8.741  10.151  1.00  0.00    -0.324 OA
BRANCH  14  15
HETATM   15  C   UNL     1      42.992  -9.311  11.328  1.00  0.00     0.058 C 
HETATM   16  C   UNL     1      43.556 -10.693  11.690  1.00  0.00     0.045 C 
HETATM   17  C   UNL     1      41.459  -9.307  11.255  1.00  0.00     0.045 C 
HETATM   18  C   UNL     1      43.407  -8.340  12.452  1.00  0.00     0.045 C 
ENDBRANCH  14  15
ENDBRANCH  12  14
ENDBRANCH   7   8
ENDBRANCH   1   7
BRANCH   3  19
HETATM   19  C   UNL     1      42.586 -16.330   5.049  1.00  0.00     0.100 A 
HETATM   20  C   UNL     1      43.858 -17.139   4.933  1.00  0.00     0.049 A 
HETATM   21  C   UNL     1      43.458 -16.172   3.829  1.00  0.00     0.024 A 
HETATM   22  C   UNL     1      43.835 -18.484   4.277  1.00  0.00    -0.045 A 
HETATM   23  C   UNL     1      43.177 -16.939   2.546  1.00  0.00     0.046 A 
HETATM   24  C   UNL     1      43.452 -18.376   2.925  1.00  0.00    -0.051 A 
HETATM   25  C   UNL     1      43.343 -19.490   2.107  1.00  0.00     0.007 A 
HETATM   26  C   UNL     1      43.624 -20.742   2.655  1.00  0.00     0.001 A 
HETATM   27  C   UNL     1      44.007 -20.863   4.000  1.00  0.00     0.001 A 
HETATM   28  C   UNL     1      44.112 -19.732   4.816  1.00  0.00     0.008 A 
ENDBRANCH   3  19
TORSDOF 5
ENDMDL
MODEL 2
REMARK VINA RESULT:      -9.1      1.966      3.222
REMARK  5 active torsions:
REMARK  status: ('A' for Active; 'I' for Inactive)
REMARK    1  A    between atoms: C_2  and  O_3 
REMARK    2  A    between atoms: O_3  and  C_4 
REMARK    3  A    between atoms: C_8  and  C_9 
REMARK    4  A    between atoms: C_9  and  N_10 
REMARK       I    between atoms: N_10  and  C_11 
REMARK       I    between atoms: C_11  and  N_12 
REMARK    5  A    between atoms: N_12  and  C_13 
ROOT
HETATM    1  N   UNL     1      43.447 -11.237   7.876  1.00  0.00    -0.339 N 
HETATM    2  C   UNL     1      43.995 -12.295   7.195  1.00  0.00     0.316 C 
HETATM    3  N   UNL     1      43.146 -13.378   7.162  1.00  0.00    -0.337 N 
HETATM    4  O   UNL     1      45.110 -12.278   6.690  1.00  0.00    -0.247 OA
HETATM    5  H   UNL     1      42.737 -11.449   8.560  1.00  0.00     0.164 HD
HETATM    6  H   UNL     1      42.162 -13.158   7.219  1.00  0.00     0.164 HD
ENDROOT
BRANCH   1   7
HETATM    7  C   UNL     1      44.181 -10.001   8.044  1.00  0.00     0.163 C 
BRANCH   7   8
HETATM    8  C   UNL     1      43.502  -9.011   8.956  1.00  0.00    -0.035 A 
HETATM    9  C   UNL     1      43.814  -7.649   8.957  1.00  0.00     0.028 A 
HETATM   10  C   UNL     1      43.106  -6.803   9.798  1.00  0.00     0.120 A 
HETATM   11  N   UNL     1      42.112  -7.209  10.614  1.00  0.00    -0.237 NA
HETATM   12  C   UNL     1      41.796  -8.513  10.578  1.00  0.00     0.165 A 
HETATM   13  C   UNL     1      42.452  -9.438   9.777  1.00  0.00     0.066 A 
BRANCH  12  14
HETATM   14  O   UNL     1      40.752  -9.009  11.325  1.00  0.00    -0.324 OA
BRANCH  14  15
HETATM   15  C   UNL     1      40.877  -9.135  12.753  1.00  0.00     0.058 C 
HETATM   16  C   UNL     1      40.302  -7.937  13.523  1.00  0.00     0.045 C 
HETATM   17  C   UNL     1      42.313  -9.470  13.180  1.00  0.00     0.045 C 
HETATM   18  C   UNL     1      39.995 -10.356  13.087  1.00  0.00     0.045 C 
ENDBRANCH  14  15
ENDBRANCH  12  14
ENDBRANCH   7   8
ENDBRANCH   1   7
BRANCH   3  19
HETATM   19  C   UNL     1      43.508 -14.564   6.438  1.00  0.00     0.100 A 
HETATM   20  C   UNL     1      42.470 -15.392   5.716  1.00  0.00     0.049 A 
HETATM   21  C   UNL     1      43.125 -15.916   6.984  1.00  0.00     0.024 A 
HETATM   22  C   UNL     1      42.888 -16.360   4.654  1.00  0.00    -0.045 A 
HETATM   23  C   UNL     1      43.941 -17.161   6.671  1.00  0.00     0.046 A 
HETATM   24  C   UNL     1      43.720 -17.364   5.190  1.00  0.00    -0.051 A 
HETATM   25  C   UNL     1      44.249 -18.372   4.398  1.00  0.00     0.007 A 
HETATM   26  C   UNL     1      43.939 -18.375   3.037  1.00  0.00     0.001 A 
HETATM   27  C   UNL     1      43.112 -17.381   2.492  1.00  0.00     0.001 A 
HETATM   28  C   UNL     1      42.585 -16.369   3.300  1.00  0.00     0.008 A 
ENDBRANCH   3  19
TORSDOF 5
ENDMDL
MODEL 3
REMARK VINA RESULT:      -8.7      1.652      2.250
REMARK  5 active torsions:
REMARK  status: ('A' for Active; 'I' for Inactive)
REMARK    1  A    between atoms: C_2  and  O_3 
REMARK    2  A    between atoms: O_3  and  C_4 
REMARK    3  A    between atoms: C_8  and  C_9 
REMARK    4  A    between atoms: C_9  and  N_10 
REMARK       I    between atoms: N_10  and  C_11 
REMARK       I    between atoms: C_11  and  N_12 
REMARK    5  A    between atoms: N_12  and  C_13 
ROOT
HETATM    1  N   UNL     1      41.659 -13.039   4.109  1.00  0.00    -0.339 N 
HETATM    2  C   UNL     1      41.962 -14.355   4.349  1.00  0.00     0.316 C 
HETATM    3  N   UNL     1      41.858 -15.120   3.210  1.00  0.00    -0.337 N 
HETATM    4  O   UNL     1      42.277 -14.794   5.448  1.00  0.00    -0.247 OA
HETATM    5  H   UNL     1      41.062 -12.841   3.321  1.00  0.00     0.164 HD
HETATM    6  H   UNL     1      42.010 -14.627   2.341  1.00  0.00     0.164 HD
ENDROOT
BRANCH   1   7
HETATM    7  C   UNL     1      41.690 -12.063   5.178  1.00  0.00     0.163 C 
BRANCH   7   8
HETATM    8  C   UNL     1      43.073 -11.796   5.717  1.00  0.00    -0.035 A 
HETATM    9  C   UNL     1      44.185 -11.622   4.889  1.00  0.00     0.028 A 
HETATM   10  C   UNL     1      45.411 -11.334   5.470  1.00  0.00     0.120 A 
HETATM   11  N   UNL     1      45.603 -11.195   6.797  1.00  0.00    -0.237 NA
HETATM   12  C   UNL     1      44.521 -11.328   7.581  1.00  0.00     0.165 A 
HETATM   13  C   UNL     1      43.255 -11.624   7.094  1.00  0.00     0.066 A 
BRANCH  12  14
HETATM   14  O   UNL     1      44.605 -11.137   8.941  1.00  0.00    -0.324 OA
BRANCH  14  15
HETATM   15  C   UNL     1      44.513  -9.812   9.495  1.00  0.00     0.058 C 
HETATM   16  C   UNL     1      44.824  -8.704   8.479  1.00  0.00     0.045 C 
HETATM   17  C   UNL     1      45.331  -9.669  10.786  1.00  0.00     0.045 C 
HETATM   18  C   UNL     1      43.022  -9.680   9.871  1.00  0.00     0.045 C 
ENDBRANCH  14  15
ENDBRANCH  12  14
ENDBRANCH   7   8
ENDBRANCH   1   7
BRANCH   3  19
HETATM   19  C   UNL     1      42.200 -16.515   3.236  1.00  0.00     0.100 A 
HETATM   20  C   UNL     1      43.524 -16.989   3.790  1.00  0.00     0.049 A 
HETATM   21  C   UNL     1      43.253 -17.041   2.294  1.00  0.00     0.024 A 
HETATM   22  C   UNL     1      43.702 -18.422   4.185  1.00  0.00    -0.045 A 
HETATM   23  C   UNL     1      43.244 -18.486   1.819  1.00  0.00     0.046 A 
HETATM   24  C   UNL     1      43.546 -19.273   3.073  1.00  0.00    -0.051 A 
HETATM   25  C   UNL     1      43.651 -20.651   3.188  1.00  0.00     0.007 A 
HETATM   26  C   UNL     1      43.918 -21.189   4.448  1.00  0.00     0.001 A 
HETATM   27  C   UNL     1      44.075 -20.353   5.563  1.00  0.00     0.001 A 
HETATM   28  C   UNL     1      43.966 -18.964   5.435  1.00  0.00     0.008 A 
ENDBRANCH   3  19
TORSDOF 5
ENDMDL
MODEL 4
REMARK VINA RESULT:      -8.6      1.770      2.844
REMARK  5 active torsions:
REMARK  status: ('A' for Active; 'I' for Inactive)
REMARK    1  A    between atoms: C_2  and  O_3 
REMARK    2  A    between atoms: O_3  and  C_4 
REMARK    3  A    between atoms: C_8  and  C_9 
REMARK    4  A    between atoms: C_9  and  N_10 
REMARK       I    between atoms: N_10  and  C_11 
REMARK       I    between atoms: C_11  and  N_12 
REMARK    5  A    between atoms: N_12  and  C_13 
ROOT
HETATM    1  N   UNL     1      42.423 -11.352   7.010  1.00  0.00    -0.339 N 
HETATM    2  C   UNL     1      42.910 -12.403   6.275  1.00  0.00     0.316 C 
HETATM    3  N   UNL     1      42.881 -13.582   6.987  1.00  0.00    -0.337 N 
HETATM    4  O   UNL     1      43.328 -12.301   5.129  1.00  0.00    -0.247 OA
HETATM    5  H   UNL     1      42.468 -11.433   8.014  1.00  0.00     0.164 HD
HETATM    6  H   UNL     1      42.170 -13.639   7.702  1.00  0.00     0.164 HD
ENDROOT
BRANCH   1   7
HETATM    7  C   UNL     1      42.380 -10.016   6.455  1.00  0.00     0.163 C 
BRANCH   7   8
HETATM    8  C   UNL     1      42.286  -8.928   7.496  1.00  0.00    -0.035 A 
HETATM    9  C   UNL     1      42.240  -7.572   7.167  1.00  0.00     0.028 A 
HETATM   10  C   UNL     1      42.107  -6.642   8.188  1.00  0.00     0.120 A 
HETATM   11  N   UNL     1      42.003  -6.964   9.494  1.00  0.00    -0.237 NA
HETATM   12  C   UNL     1      42.011  -8.273   9.795  1.00  0.00     0.165 A 
HETATM   13  C   UNL     1      42.148  -9.276   8.845  1.00  0.00     0.066 A 
BRANCH  12  14
HETATM   14  O   UNL     1      41.843  -8.702  11.092  1.00  0.00    -0.324 OA
BRANCH  14  15
HETATM   15  C   UNL     1      42.986  -8.921  11.938  1.00  0.00     0.058 C 
HETATM   16  C   UNL     1      43.151  -7.852  13.029  1.00  0.00     0.045 C 
HETATM   17  C   UNL     1      44.272  -9.133  11.128  1.00  0.00     0.045 C 
HETATM   18  C   UNL     1      42.659 -10.251  12.649  1.00  0.00     0.045 C 
ENDBRANCH  14  15
ENDBRANCH  12  14
ENDBRANCH   7   8
ENDBRANCH   1   7
BRANCH   3  19
HETATM   19  C   UNL     1      43.286 -14.814   6.371  1.00  0.00     0.100 A 
HETATM   20  C   UNL     1      42.332 -15.615   5.515  1.00  0.00     0.049 A 
HETATM   21  C   UNL     1      42.741 -16.121   6.890  1.00  0.00     0.024 A 
HETATM   22  C   UNL     1      42.859 -16.647   4.568  1.00  0.00    -0.045 A 
HETATM   23  C   UNL     1      43.523 -17.418   6.754  1.00  0.00     0.046 A 
HETATM   24  C   UNL     1      43.533 -17.670   5.264  1.00  0.00    -0.051 A 
HETATM   25  C   UNL     1      44.124 -18.736   4.603  1.00  0.00     0.007 A 
HETATM   26  C   UNL     1      44.038 -18.778   3.210  1.00  0.00     0.001 A 
HETATM   27  C   UNL     1      43.371 -17.766   2.505  1.00  0.00     0.001 A 
HETATM   28  C   UNL     1      42.779 -16.695   3.183  1.00  0.00     0.008 A 
ENDBRANCH   3  19
TORSDOF 5
ENDMDL
MODEL 5
REMARK VINA RESULT:      -8.6      1.965      3.163
REMARK  5 active torsions:
REMARK  status: ('A' for Active; 'I' for Inactive)
REMARK    1  A    between atoms: C_2  and  O_3 
REMARK    2  A    between atoms: O_3  and  C_4 
REMARK    3  A    between atoms: C_8  and  C_9 
REMARK    4  A    between atoms: C_9  and  N_10 
REMARK       I    between atoms: N_10  and  C_11 
REMARK       I    between atoms: C_11  and  N_12 
REMARK    5  A    between atoms: N_12  and  C_13 
ROOT
HETATM    1  N   UNL     1      40.371 -11.773   6.652  1.00  0.00    -0.339 N 
HETATM    2  C   UNL     1      41.183 -12.636   5.960  1.00  0.00     0.316 C 
HETATM    3  N   UNL     1      41.374 -13.817   6.642  1.00  0.00    -0.337 N 
HETATM    4  O   UNL     1      41.684 -12.379   4.874  1.00  0.00    -0.247 OA
HETATM    5  H   UNL     1      40.325 -11.888   7.653  1.00  0.00     0.164 HD
HETATM    6  H   UNL     1      40.626 -14.082   7.267  1.00  0.00     0.164 HD
ENDROOT
BRANCH   1   7
HETATM    7  C   UNL     1      40.054 -10.464   6.121  1.00  0.00     0.163 C 
BRANCH   7   8
HETATM    8  C   UNL     1      41.003  -9.381   6.568  1.00  0.00    -0.035 A 
HETATM    9  C   UNL     1      40.995  -8.097   6.018  1.00  0.00     0.028 A 
HETATM   10  C   UNL     1      41.873  -7.149   6.523  1.00  0.00     0.120 A 
HETATM   11  N   UNL     1      42.734  -7.382   7.534  1.00  0.00    -0.237 NA
HETATM   12  C   UNL     1      42.708  -8.608   8.080  1.00  0.00     0.165 A 
HETATM   13  C   UNL     1      41.871  -9.625   7.638  1.00  0.00     0.066 A 
BRANCH  12  14
HETATM   14  O   UNL     1      43.501  -8.919   9.160  1.00  0.00    -0.324 OA
BRANCH  14  15
HETATM   15  C   UNL     1      44.732  -9.640   8.972  1.00  0.00     0.058 C 
HETATM   16  C   UNL     1      45.840  -8.797   8.323  1.00  0.00     0.045 C 
HETATM   17  C   UNL     1      44.514 -10.976   8.248  1.00  0.00     0.045 C 
HETATM   18  C   UNL     1      45.188  -9.960  10.411  1.00  0.00     0.045 C 
ENDBRANCH  14  15
ENDBRANCH  12  14
ENDBRANCH   7   8
ENDBRANCH   1   7
BRANCH   3  19
HETATM   19  C   UNL     1      42.139 -14.880   6.054  1.00  0.00     0.100 A 
HETATM   20  C   UNL     1      41.476 -15.979   5.256  1.00  0.00     0.049 A 
HETATM   21  C   UNL     1      42.052 -16.269   6.634  1.00  0.00     0.024 A 
HETATM   22  C   UNL     1      42.288 -16.827   4.327  1.00  0.00    -0.045 A 
HETATM   23  C   UNL     1      43.205 -17.254   6.517  1.00  0.00     0.046 A 
HETATM   24  C   UNL     1      43.267 -17.551   5.036  1.00  0.00    -0.051 A 
HETATM   25  C   UNL     1      44.155 -18.400   4.393  1.00  0.00     0.007 A 
HETATM   26  C   UNL     1      44.061 -18.525   3.006  1.00  0.00     0.001 A 
HETATM   27  C   UNL     1      43.091 -17.808   2.289  1.00  0.00     0.001 A 
HETATM   28  C   UNL     1      42.201 -16.955   2.948  1.00  0.00     0.008 A 
ENDBRANCH   3  19
TORSDOF 5
ENDMDL
MODEL 6
REMARK VINA RESULT:      -8.4      2.780      3.302
REMARK  5 active torsions:
REMARK  status: ('A' for Active; 'I' for Inactive)
REMARK    1  A    between atoms: C_2  and  O_3 
REMARK    2  A    between atoms: O_3  and  C_4 
REMARK    3  A    between atoms: C_8  and  C_9 
REMARK    4  A    between atoms: C_9  and  N_10 
REMARK       I    between atoms: N_10  and  C_11 
REMARK       I    between atoms: C_11  and  N_12 
REMARK    5  A    between atoms: N_12  and  C_13 
ROOT
HETATM    1  N   UNL     1      40.593 -12.766   5.463  1.00  0.00    -0.339 N 
HETATM    2  C   UNL     1      40.755 -13.876   4.673  1.00  0.00     0.316 C 
HETATM    3  N   UNL     1      41.836 -14.632   5.068  1.00  0.00    -0.337 N 
HETATM    4  O   UNL     1      40.031 -14.152   3.725  1.00  0.00    -0.247 OA
HETATM    5  H   UNL     1      41.410 -12.419   5.941  1.00  0.00     0.164 HD
HETATM    6  H   UNL     1      42.081 -14.562   6.045  1.00  0.00     0.164 HD
ENDROOT
BRANCH   1   7
HETATM    7  C   UNL     1      39.523 -11.825   5.211  1.00  0.00     0.163 C 
BRANCH   7   8
HETATM    8  C   UNL     1      39.589 -10.586   6.068  1.00  0.00    -0.035 A 
HETATM    9  C   UNL     1      39.804  -9.312   5.538  1.00  0.00     0.028 A 
HETATM   10  C   UNL     1      39.803  -8.223   6.397  1.00  0.00     0.120 A 
HETATM   11  N   UNL     1      39.590  -8.310   7.726  1.00  0.00    -0.237 NA
HETATM   12  C   UNL     1      39.348  -9.535   8.220  1.00  0.00     0.165 A 
HETATM   13  C   UNL     1      39.337 -10.685   7.442  1.00  0.00     0.066 A 
BRANCH  12  14
HETATM   14  O   UNL     1      39.054  -9.715   9.551  1.00  0.00    -0.324 OA
BRANCH  14  15
HETATM   15  C   UNL     1      39.940  -9.211  10.566  1.00  0.00     0.058 C 
HETATM   16  C   UNL     1      39.589  -7.789  11.031  1.00  0.00     0.045 C 
HETATM   17  C   UNL     1      41.415  -9.346  10.163  1.00  0.00     0.045 C 
HETATM   18  C   UNL     1      39.696 -10.155  11.761  1.00  0.00     0.045 C 
ENDBRANCH  14  15
ENDBRANCH  12  14
ENDBRANCH   7   8
ENDBRANCH   1   7
BRANCH   3  19
HETATM   19  C   UNL     1      42.136 -15.872   4.409  1.00  0.00     0.100 A 
HETATM   20  C   UNL     1      43.493 -16.525   4.541  1.00  0.00     0.049 A 
HETATM   21  C   UNL     1      43.075 -15.881   3.229  1.00  0.00     0.024 A 
HETATM   22  C   UNL     1      43.664 -17.974   4.206  1.00  0.00    -0.045 A 
HETATM   23  C   UNL     1      42.974 -16.939   2.141  1.00  0.00     0.046 A 
HETATM   24  C   UNL     1      43.373 -18.213   2.849  1.00  0.00    -0.051 A 
HETATM   25  C   UNL     1      43.447 -19.484   2.300  1.00  0.00     0.007 A 
HETATM   26  C   UNL     1      43.820 -20.542   3.131  1.00  0.00     0.001 A 
HETATM   27  C   UNL     1      44.112 -20.316   4.485  1.00  0.00     0.001 A 
HETATM   28  C   UNL     1      44.033 -19.030   5.027  1.00  0.00     0.008 A 
ENDBRANCH   3  19
TORSDOF 5
ENDMDL
MODEL 7
REMARK VINA RESULT:      -8.3      2.392      9.447
REMARK  5 active torsions:
REMARK  status: ('A' for Active; 'I' for Inactive)
REMARK    1  A    between atoms: C_2  and  O_3 
REMARK    2  A    between atoms: O_3  and  C_4 
REMARK    3  A    between atoms: C_8  and  C_9 
REMARK    4  A    between atoms: C_9  and  N_10 
REMARK       I    between atoms: N_10  and  C_11 
REMARK       I    between atoms: C_11  and  N_12 
REMARK    5  A    between atoms: N_12  and  C_13 
ROOT
HETATM    1  N   UNL     1      43.853 -11.577   4.674  1.00  0.00    -0.339 N 
HETATM    2  C   UNL     1      43.369 -11.110   5.870  1.00  0.00     0.316 C 
HETATM    3  N   UNL     1      44.374 -10.935   6.795  1.00  0.00    -0.337 N 
HETATM    4  O   UNL     1      42.185 -10.888   6.089  1.00  0.00    -0.247 OA
HETATM    5  H   UNL     1      44.725 -12.081   4.696  1.00  0.00     0.164 HD
HETATM    6  H   UNL     1      45.288 -10.741   6.411  1.00  0.00     0.164 HD
ENDROOT
BRANCH   1   7
HETATM    7  C   UNL     1      42.960 -11.846   3.567  1.00  0.00     0.163 C 
BRANCH   7   8
HETATM    8  C   UNL     1      42.338 -13.219   3.609  1.00  0.00    -0.035 A 
HETATM    9  C   UNL     1      41.067 -13.487   3.096  1.00  0.00     0.028 A 
HETATM   10  C   UNL     1      40.592 -14.790   3.135  1.00  0.00     0.120 A 
HETATM   11  N   UNL     1      41.291 -15.833   3.627  1.00  0.00    -0.237 NA
HETATM   12  C   UNL     1      42.527 -15.571   4.084  1.00  0.00     0.165 A 
HETATM   13  C   UNL     1      43.085 -14.299   4.094  1.00  0.00     0.066 A 
BRANCH  12  14
HETATM   14  O   UNL     1      43.341 -16.581   4.542  1.00  0.00    -0.324 OA
BRANCH  14  15
HETATM   15  C   UNL     1      43.329 -16.948   5.933  1.00  0.00     0.058 C 
HETATM   16  C   UNL     1      43.387 -18.466   6.163  1.00  0.00     0.045 C 
HETATM   17  C   UNL     1      42.172 -16.286   6.695  1.00  0.00     0.045 C 
HETATM   18  C   UNL     1      44.644 -16.354   6.477  1.00  0.00     0.045 C 
ENDBRANCH  14  15
ENDBRANCH  12  14
ENDBRANCH   7   8
ENDBRANCH   1   7
BRANCH   3  19
HETATM   19  C   UNL     1      44.083 -10.388   8.091  1.00  0.00     0.100 A 
HETATM   20  C   UNL     1      44.465  -8.971   8.450  1.00  0.00     0.049 A 
HETATM   21  C   UNL     1      45.207 -10.147   9.067  1.00  0.00     0.024 A 
HETATM   22  C   UNL     1      43.815  -8.290   9.614  1.00  0.00    -0.045 A 
HETATM   23  C   UNL     1      44.975 -10.176  10.570  1.00  0.00     0.046 A 
HETATM   24  C   UNL     1      44.101  -8.968  10.816  1.00  0.00    -0.051 A 
HETATM   25  C   UNL     1      43.598  -8.537  12.034  1.00  0.00     0.007 A 
HETATM   26  C   UNL     1      42.788  -7.400  12.049  1.00  0.00     0.001 A 
HETATM   27  C   UNL     1      42.495  -6.717  10.859  1.00  0.00     0.001 A 
HETATM   28  C   UNL     1      43.007  -7.162   9.636  1.00  0.00     0.008 A 
ENDBRANCH   3  19
TORSDOF 5
ENDMDL
MODEL 8
REMARK VINA RESULT:      -8.2      2.816      4.023
REMARK  5 active torsions:
REMARK  status: ('A' for Active; 'I' for Inactive)
REMARK    1  A    between atoms: C_2  and  O_3 
REMARK    2  A    between atoms: O_3  and  C_4 
REMARK    3  A    between atoms: C_8  and  C_9 
REMARK    4  A    between atoms: C_9  and  N_10 
REMARK       I    between atoms: N_10  and  C_11 
REMARK       I    between atoms: C_11  and  N_12 
REMARK    5  A    between atoms: N_12  and  C_13 
ROOT
HETATM    1  N   UNL     1      40.071 -13.323   2.835  1.00  0.00    -0.339 N 
HETATM    2  C   UNL     1      40.505 -14.521   3.344  1.00  0.00     0.316 C 
HETATM    3  N   UNL     1      41.131 -15.287   2.387  1.00  0.00    -0.337 N 
HETATM    4  O   UNL     1      40.344 -14.869   4.507  1.00  0.00    -0.247 OA
HETATM    5  H   UNL     1      39.897 -13.282   1.843  1.00  0.00     0.164 HD
HETATM    6  H   UNL     1      41.567 -14.771   1.636  1.00  0.00     0.164 HD
ENDROOT
BRANCH   1   7
HETATM    7  C   UNL     1      39.370 -12.372   3.671  1.00  0.00     0.163 C 
BRANCH   7   8
HETATM    8  C   UNL     1      40.260 -11.298   4.246  1.00  0.00    -0.035 A 
HETATM    9  C   UNL     1      40.215  -9.971   3.813  1.00  0.00     0.028 A 
HETATM   10  C   UNL     1      41.038  -9.040   4.430  1.00  0.00     0.120 A 
HETATM   11  N   UNL     1      41.877  -9.330   5.445  1.00  0.00    -0.237 NA
HETATM   12  C   UNL     1      41.885 -10.601   5.878  1.00  0.00     0.165 A 
HETATM   13  C   UNL     1      41.105 -11.605   5.319  1.00  0.00     0.066 A 
BRANCH  12  14
HETATM   14  O   UNL     1      42.658 -10.978   6.952  1.00  0.00    -0.324 OA
BRANCH  14  15
HETATM   15  C   UNL     1      43.970 -11.530   6.743  1.00  0.00     0.058 C 
HETATM   16  C   UNL     1      45.029 -10.961   7.700  1.00  0.00     0.045 C 
HETATM   17  C   UNL     1      44.405 -11.445   5.274  1.00  0.00     0.045 C 
HETATM   18  C   UNL     1      43.795 -13.022   7.092  1.00  0.00     0.045 C 
ENDBRANCH  14  15
ENDBRANCH  12  14
ENDBRANCH   7   8
ENDBRANCH   1   7
BRANCH   3  19
HETATM   19  C   UNL     1      41.718 -16.551   2.735  1.00  0.00     0.100 A 
HETATM   20  C   UNL     1      42.990 -16.630   3.546  1.00  0.00     0.049 A 
HETATM   21  C   UNL     1      42.997 -16.988   2.068  1.00  0.00     0.024 A 
HETATM   22  C   UNL     1      43.361 -17.904   4.238  1.00  0.00    -0.045 A 
HETATM   23  C   UNL     1      43.340 -18.459   1.892  1.00  0.00     0.046 A 
HETATM   24  C   UNL     1      43.562 -18.942   3.306  1.00  0.00    -0.051 A 
HETATM   25  C   UNL     1      43.901 -20.226   3.706  1.00  0.00     0.007 A 
HETATM   26  C   UNL     1      44.042 -20.477   5.071  1.00  0.00     0.001 A 
HETATM   27  C   UNL     1      43.844 -19.453   6.009  1.00  0.00     0.001 A 
HETATM   28  C   UNL     1      43.502 -18.162   5.595  1.00  0.00     0.008 A 
ENDBRANCH   3  19
TORSDOF 5
ENDMDL
MODEL 9
REMARK VINA RESULT:      -8.1      2.272      3.814
REMARK  5 active torsions:
REMARK  status: ('A' for Active; 'I' for Inactive)
REMARK    1  A    between atoms: C_2  and  O_3 
REMARK    2  A    between atoms: O_3  and  C_4 
REMARK    3  A    between atoms: C_8  and  C_9 
REMARK    4  A    between atoms: C_9  and  N_10 
REMARK       I    between atoms: N_10  and  C_11 
REMARK       I    between atoms: C_11  and  N_12 
REMARK    5  A    between atoms: N_12  and  C_13 
ROOT
HETATM    1  N   UNL     1      43.914 -11.634   8.327  1.00  0.00    -0.339 N 
HETATM    2  C   UNL     1      43.761 -12.236   7.103  1.00  0.00     0.316 C 
HETATM    3  N   UNL     1      43.081 -13.429   7.202  1.00  0.00    -0.337 N 
HETATM    4  O   UNL     1      44.188 -11.771   6.055  1.00  0.00    -0.247 OA
HETATM    5  H   UNL     1      43.889 -12.231   9.139  1.00  0.00     0.164 HD
HETATM    6  H   UNL     1      42.441 -13.501   7.980  1.00  0.00     0.164 HD
ENDROOT
BRANCH   1   7
HETATM    7  C   UNL     1      44.617 -10.375   8.452  1.00  0.00     0.163 C 
BRANCH   7   8
HETATM    8  C   UNL     1      43.911  -9.370   9.327  1.00  0.00    -0.035 A 
HETATM    9  C   UNL     1      43.923  -7.999   9.061  1.00  0.00     0.028 A 
HETATM   10  C   UNL     1      43.207  -7.151   9.894  1.00  0.00     0.120 A 
HETATM   11  N   UNL     1      42.477  -7.569  10.949  1.00  0.00    -0.237 NA
HETATM   12  C   UNL     1      42.443  -8.893  11.173  1.00  0.00     0.165 A 
HETATM   13  C   UNL     1      43.132  -9.818  10.401  1.00  0.00     0.066 A 
BRANCH  12  14
HETATM   14  O   UNL     1      41.672  -9.420  12.184  1.00  0.00    -0.324 OA
BRANCH  14  15
HETATM   15  C   UNL     1      40.237  -9.397  12.089  1.00  0.00     0.058 C 
HETATM   16  C   UNL     1      39.714  -9.691  10.675  1.00  0.00     0.045 C 
HETATM   17  C   UNL     1      39.640  -8.111  12.678  1.00  0.00     0.045 C 
HETATM   18  C   UNL     1      39.796 -10.569  12.990  1.00  0.00     0.045 C 
ENDBRANCH  14  15
ENDBRANCH  12  14
ENDBRANCH   7   8
ENDBRANCH   1   7
BRANCH   3  19
HETATM   19  C   UNL     1      42.758 -14.182   6.022  1.00  0.00     0.100 A 
HETATM   20  C   UNL     1      41.324 -14.465   5.638  1.00  0.00     0.049 A 
HETATM   21  C   UNL     1      42.216 -15.583   6.157  1.00  0.00     0.024 A 
HETATM   22  C   UNL     1      40.990 -14.877   4.238  1.00  0.00    -0.045 A 
HETATM   23  C   UNL     1      42.428 -16.625   5.070  1.00  0.00     0.046 A 
HETATM   24  C   UNL     1      41.610 -16.100   3.913  1.00  0.00    -0.051 A 
HETATM   25  C   UNL     1      41.463 -16.683   2.663  1.00  0.00     0.007 A 
HETATM   26  C   UNL     1      40.675 -16.026   1.717  1.00  0.00     0.001 A 
HETATM   27  C   UNL     1      40.052 -14.808   2.029  1.00  0.00     0.001 A 
HETATM   28  C   UNL     1      40.209 -14.229   3.292  1.00  0.00     0.008 A 
ENDBRANCH   3  19
TORSDOF 5
ENDMDL
MODEL 10
REMARK VINA RESULT:      -8.0      6.792      8.951
REMARK  5 active torsions:
REMARK  status: ('A' for Active; 'I' for Inactive)
REMARK    1  A    between atoms: C_2  and  O_3 
REMARK    2  A    between atoms: O_3  and  C_4 
REMARK    3  A    between atoms: C_8  and  C_9 
REMARK    4  A    between atoms: C_9  and  N_10 
REMARK       I    between atoms: N_10  and  C_11 
REMARK       I    between atoms: C_11  and  N_12 
REMARK    5  A    between atoms: N_12  and  C_13 
ROOT
HETATM    1  N   UNL     1      38.860 -12.807  -0.261  1.00  0.00    -0.339 N 
HETATM    2  C   UNL     1      39.714 -13.146   0.759  1.00  0.00     0.316 C 
HETATM    3  N   UNL     1      39.867 -14.510   0.866  1.00  0.00    -0.337 N 
HETATM    4  O   UNL     1      40.262 -12.331   1.490  1.00  0.00    -0.247 OA
HETATM    5  H   UNL     1      38.182 -13.498  -0.542  1.00  0.00     0.164 HD
HETATM    6  H   UNL     1      39.733 -15.029   0.010  1.00  0.00     0.164 HD
ENDROOT
BRANCH   1   7
HETATM    7  C   UNL     1      38.546 -11.421  -0.536  1.00  0.00     0.163 C 
BRANCH   7   8
HETATM    8  C   UNL     1      39.441 -10.790  -1.572  1.00  0.00    -0.035 A 
HETATM    9  C   UNL     1      39.915 -11.487  -2.686  1.00  0.00     0.028 A 
HETATM   10  C   UNL     1      40.696 -10.813  -3.613  1.00  0.00     0.120 A 
HETATM   11  N   UNL     1      41.021  -9.508  -3.520  1.00  0.00    -0.237 NA
HETATM   12  C   UNL     1      40.529  -8.837  -2.464  1.00  0.00     0.165 A 
HETATM   13  C   UNL     1      39.747  -9.427  -1.480  1.00  0.00     0.066 A 
BRANCH  12  14
HETATM   14  O   UNL     1      40.751  -7.487  -2.318  1.00  0.00    -0.324 OA
BRANCH  14  15
HETATM   15  C   UNL     1      42.079  -6.992  -2.072  1.00  0.00     0.058 C 
HETATM   16  C   UNL     1      42.726  -6.342  -3.305  1.00  0.00     0.045 C 
HETATM   17  C   UNL     1      42.981  -8.054  -1.430  1.00  0.00     0.045 C 
HETATM   18  C   UNL     1      41.860  -5.875  -1.030  1.00  0.00     0.045 C 
ENDBRANCH  14  15
ENDBRANCH  12  14
ENDBRANCH   7   8
ENDBRANCH   1   7
BRANCH   3  19
HETATM   19  C   UNL     1      40.774 -15.066   1.830  1.00  0.00     0.100 A 
HETATM   20  C   UNL     1      40.860 -16.557   2.060  1.00  0.00     0.049 A 
HETATM   21  C   UNL     1      40.233 -15.652   3.110  1.00  0.00     0.024 A 
HETATM   22  C   UNL     1      42.056 -17.144   2.742  1.00  0.00    -0.045 A 
HETATM   23  C   UNL     1      41.063 -15.683   4.384  1.00  0.00     0.046 A 
HETATM   24  C   UNL     1      42.175 -16.654   4.057  1.00  0.00    -0.051 A 
HETATM   25  C   UNL     1      43.215 -17.041   4.889  1.00  0.00     0.007 A 
HETATM   26  C   UNL     1      44.159 -17.940   4.390  1.00  0.00     0.001 A 
HETATM   27  C   UNL     1      44.052 -18.435   3.082  1.00  0.00     0.001 A 
HETATM   28  C   UNL     1      42.999 -18.037   2.252  1.00  0.00     0.008 A 
ENDBRANCH   3  19
TORSDOF 5
ENDMDL
