MODEL 1
REMARK VINA RESULT:      -8.6      0.000      0.000
REMARK  3 active torsions:
REMARK  status: ('A' for Active; 'I' for Inactive)
REMARK    1  A    between atoms: C_3  and  N_4 
REMARK       I    between atoms: N_4  and  C_5 
REMARK    2  A    between atoms: C_5  and  C_6 
REMARK    3  A    between atoms: C_6  and  C_7 
ROOT
HETATM    1  C   UNL     1      40.598 -14.357   1.415  1.00  0.00     0.286 C 
HETATM    2  N   UNL     1      41.232 -14.061   0.055  1.00  0.00    -0.056 N 
HETATM    3  H   UNL     1      41.916 -13.296   0.236  1.00  0.00     0.278 HD
HETATM    4  H   UNL     1      41.778 -14.860  -0.286  1.00  0.00     0.278 HD
HETATM    5  C   UNL     1      40.297 -13.541  -0.995  1.00  0.00     0.209 C 
HETATM    6  C   UNL     1      39.521 -12.327  -0.430  1.00  0.00     0.115 C 
HETATM    7  N   UNL     1      38.896 -12.618   0.859  1.00  0.00    -0.353 N 
HETATM    8  C   UNL     1      39.527 -13.331   1.848  1.00  0.00     0.249 C 
HETATM    9  O   UNL     1      39.168 -13.214   3.015  1.00  0.00    -0.271 OA
HETATM   10  C   UNL     1      39.378 -14.658  -1.492  1.00  0.00     0.035 C 
HETATM   11  C   UNL     1      38.381 -14.118  -2.516  1.00  0.00     0.002 C 
HETATM   12  C   UNL     1      37.580 -12.942  -1.958  1.00  0.00     0.002 C 
HETATM   13  C   UNL     1      38.490 -11.825  -1.445  1.00  0.00     0.027 C 
HETATM   14  H   UNL     1      38.248 -11.930   1.238  1.00  0.00     0.163 HD
ENDROOT
BRANCH   1  15
HETATM   15  C   UNL     1      41.683 -14.490   2.496  1.00  0.00     0.146 C 
BRANCH  15  16
HETATM   16  C   UNL     1      41.749 -15.922   2.983  1.00  0.00     0.224 C 
HETATM   17  N   UNL     1      42.953 -16.543   2.757  1.00  0.00    -0.327 N 
HETATM   18  H   UNL     1      43.731 -15.976   2.443  1.00  0.00     0.169 HD
HETATM   19  O   UNL     1      40.792 -16.373   3.616  1.00  0.00    -0.273 OA
BRANCH  17  20
HETATM   20  C   UNL     1      43.250 -17.905   3.013  1.00  0.00     0.040 A 
HETATM   21  C   UNL     1      43.887 -18.255   4.221  1.00  0.00    -0.035 A 
HETATM   22  C   UNL     1      44.217 -17.248   5.289  1.00  0.00     0.050 C 
HETATM   23  C   UNL     1      44.224 -19.601   4.453  1.00  0.00     0.009 A 
HETATM   24  C   UNL     1      43.934 -20.587   3.511  1.00  0.00     0.001 A 
HETATM   25  C   UNL     1      43.306 -20.239   2.322  1.00  0.00     0.002 A 
HETATM   26  C   UNL     1      42.966 -18.908   2.075  1.00  0.00     0.030 A 
ENDBRANCH  17  20
ENDBRANCH  15  16
ENDBRANCH   1  15
TORSDOF 3
ENDMDL
MODEL 2
REMARK VINA RESULT:      -8.5      1.618      2.502
REMARK  3 active torsions:
REMARK  status: ('A' for Active; 'I' for Inactive)
REMARK    1  A    between atoms: C_3  and  N_4 
REMARK       I    between atoms: N_4  and  C_5 
REMARK    2  A    between atoms: C_5  and  C_6 
REMARK    3  A    between atoms: C_6  and  C_7 
ROOT
HETATM    1  C   UNL     1      41.884 -13.880   3.134  1.00  0.00     0.286 C 
HETATM    2  N   UNL     1      40.370 -14.096   3.149  1.00  0.00    -0.056 N 
HETATM    3  H   UNL     1      40.242 -15.105   3.377  1.00  0.00     0.278 HD
HETATM    4  H   UNL     1      39.924 -13.571   3.909  1.00  0.00     0.278 HD
HETATM    5  C   UNL     1      39.672 -13.875   1.840  1.00  0.00     0.209 C 
HETATM    6  C   UNL     1      40.375 -14.708   0.742  1.00  0.00     0.115 C 
HETATM    7  N   UNL     1      41.819 -14.484   0.713  1.00  0.00    -0.353 N 
HETATM    8  C   UNL     1      42.580 -14.387   1.851  1.00  0.00     0.249 C 
HETATM    9  O   UNL     1      43.786 -14.605   1.805  1.00  0.00    -0.271 OA
HETATM   10  C   UNL     1      39.613 -12.382   1.512  1.00  0.00     0.035 C 
HETATM   11  C   UNL     1      38.960 -12.158   0.149  1.00  0.00     0.002 C 
HETATM   12  C   UNL     1      39.667 -12.945  -0.953  1.00  0.00     0.002 C 
HETATM   13  C   UNL     1      39.745 -14.436  -0.628  1.00  0.00     0.027 C 
HETATM   14  H   UNL     1      42.345 -14.876  -0.066  1.00  0.00     0.163 HD
ENDROOT
BRANCH   1  15
HETATM   15  C   UNL     1      42.529 -14.510   4.380  1.00  0.00     0.146 C 
BRANCH  15  16
HETATM   16  C   UNL     1      42.343 -16.012   4.350  1.00  0.00     0.224 C 
HETATM   17  N   UNL     1      43.512 -16.725   4.239  1.00  0.00    -0.327 N 
HETATM   18  H   UNL     1      44.387 -16.228   4.346  1.00  0.00     0.169 HD
HETATM   19  O   UNL     1      41.211 -16.469   4.526  1.00  0.00    -0.273 OA
BRANCH  17  20
HETATM   20  C   UNL     1      43.619 -18.130   4.083  1.00  0.00     0.040 A 
HETATM   21  C   UNL     1      43.715 -18.945   5.230  1.00  0.00    -0.035 A 
HETATM   22  C   UNL     1      43.648 -18.394   6.628  1.00  0.00     0.050 C 
HETATM   23  C   UNL     1      43.869 -20.334   5.072  1.00  0.00     0.009 A 
HETATM   24  C   UNL     1      43.925 -20.911   3.804  1.00  0.00     0.001 A 
HETATM   25  C   UNL     1      43.830 -20.106   2.677  1.00  0.00     0.002 A 
HETATM   26  C   UNL     1      43.677 -18.726   2.815  1.00  0.00     0.030 A 
ENDBRANCH  17  20
ENDBRANCH  15  16
ENDBRANCH   1  15
TORSDOF 3
ENDMDL
MODEL 3
REMARK VINA RESULT:      -8.2      4.703      6.880
REMARK  3 active torsions:
REMARK  status: ('A' for Active; 'I' for Inactive)
REMARK    1  A    between atoms: C_3  and  N_4 
REMARK       I    between atoms: N_4  and  C_5 
REMARK    2  A    between atoms: C_5  and  C_6 
REMARK    3  A    between atoms: C_6  and  C_7 
ROOT
HETATM    1  C   UNL     1      42.811 -11.995   5.402  1.00  0.00     0.286 C 
HETATM    2  N   UNL     1      43.885 -12.814   6.118  1.00  0.00    -0.056 N 
HETATM    3  H   UNL     1      43.362 -13.540   6.651  1.00  0.00     0.278 HD
HETATM    4  H   UNL     1      44.479 -13.319   5.451  1.00  0.00     0.278 HD
HETATM    5  C   UNL     1      44.702 -12.065   7.129  1.00  0.00     0.209 C 
HETATM    6  C   UNL     1      43.754 -11.346   8.117  1.00  0.00     0.115 C 
HETATM    7  N   UNL     1      42.741 -10.544   7.432  1.00  0.00    -0.353 N 
HETATM    8  C   UNL     1      42.080 -10.981   6.311  1.00  0.00     0.249 C 
HETATM    9  O   UNL     1      40.995 -10.496   6.009  1.00  0.00    -0.271 OA
HETATM   10  C   UNL     1      45.673 -11.112   6.430  1.00  0.00     0.035 C 
HETATM   11  C   UNL     1      46.462 -10.302   7.457  1.00  0.00     0.002 C 
HETATM   12  C   UNL     1      45.539  -9.555   8.417  1.00  0.00     0.002 C 
HETATM   13  C   UNL     1      44.554 -10.496   9.110  1.00  0.00     0.027 C 
HETATM   14  H   UNL     1      42.166  -9.923   7.997  1.00  0.00     0.163 HD
ENDROOT
BRANCH   1  15
HETATM   15  C   UNL     1      41.798 -12.924   4.712  1.00  0.00     0.146 C 
BRANCH  15  16
HETATM   16  C   UNL     1      42.531 -14.040   3.997  1.00  0.00     0.224 C 
HETATM   17  N   UNL     1      42.152 -15.303   4.380  1.00  0.00    -0.327 N 
HETATM   18  H   UNL     1      41.333 -15.398   4.967  1.00  0.00     0.169 HD
HETATM   19  O   UNL     1      43.306 -13.745   3.084  1.00  0.00    -0.273 OA
BRANCH  17  20
HETATM   20  C   UNL     1      42.746 -16.516   3.952  1.00  0.00     0.040 A 
HETATM   21  C   UNL     1      43.751 -17.109   4.745  1.00  0.00    -0.035 A 
HETATM   22  C   UNL     1      44.185 -16.539   6.068  1.00  0.00     0.050 C 
HETATM   23  C   UNL     1      44.372 -18.288   4.296  1.00  0.00     0.009 A 
HETATM   24  C   UNL     1      44.007 -18.875   3.085  1.00  0.00     0.001 A 
HETATM   25  C   UNL     1      43.017 -18.290   2.306  1.00  0.00     0.002 A 
HETATM   26  C   UNL     1      42.391 -17.120   2.738  1.00  0.00     0.030 A 
ENDBRANCH  17  20
ENDBRANCH  15  16
ENDBRANCH   1  15
TORSDOF 3
ENDMDL
MODEL 4
REMARK VINA RESULT:      -8.1      1.915      3.076
REMARK  3 active torsions:
REMARK  status: ('A' for Active; 'I' for Inactive)
REMARK    1  A    between atoms: C_3  and  N_4 
REMARK       I    between atoms: N_4  and  C_5 
REMARK    2  A    between atoms: C_5  and  C_6 
REMARK    3  A    between atoms: C_6  and  C_7 
ROOT
HETATM    1  C   UNL     1      41.302 -13.353   4.327  1.00  0.00     0.286 C 
HETATM    2  N   UNL     1      39.949 -13.992   4.014  1.00  0.00    -0.056 N 
HETATM    3  H   UNL     1      40.142 -15.013   3.938  1.00  0.00     0.278 HD
HETATM    4  H   UNL     1      39.292 -13.881   4.795  1.00  0.00     0.278 HD
HETATM    5  C   UNL     1      39.330 -13.589   2.709  1.00  0.00     0.209 C 
HETATM    6  C   UNL     1      40.357 -13.799   1.572  1.00  0.00     0.115 C 
HETATM    7  N   UNL     1      41.644 -13.168   1.861  1.00  0.00    -0.353 N 
HETATM    8  C   UNL     1      42.232 -13.213   3.101  1.00  0.00     0.249 C 
HETATM    9  O   UNL     1      43.442 -13.046   3.213  1.00  0.00    -0.271 OA
HETATM   10  C   UNL     1      38.809 -12.153   2.786  1.00  0.00     0.035 C 
HETATM   11  C   UNL     1      38.235 -11.717   1.439  1.00  0.00     0.002 C 
HETATM   12  C   UNL     1      39.252 -11.883   0.312  1.00  0.00     0.002 C 
HETATM   13  C   UNL     1      39.789 -13.312   0.235  1.00  0.00     0.027 C 
HETATM   14  H   UNL     1      42.333 -13.130   1.112  1.00  0.00     0.163 HD
ENDROOT
BRANCH   1  15
HETATM   15  C   UNL     1      42.012 -14.121   5.454  1.00  0.00     0.146 C 
BRANCH  15  16
HETATM   16  C   UNL     1      42.029 -15.601   5.134  1.00  0.00     0.224 C 
HETATM   17  N   UNL     1      43.227 -16.061   4.645  1.00  0.00    -0.327 N 
HETATM   18  H   UNL     1      44.028 -15.443   4.685  1.00  0.00     0.169 HD
HETATM   19  O   UNL     1      41.039 -16.278   5.423  1.00  0.00    -0.273 OA
BRANCH  17  20
HETATM   20  C   UNL     1      43.485 -17.371   4.168  1.00  0.00     0.040 A 
HETATM   21  C   UNL     1      43.349 -17.642   2.791  1.00  0.00    -0.035 A 
HETATM   22  C   UNL     1      42.998 -16.581   1.783  1.00  0.00     0.050 C 
HETATM   23  C   UNL     1      43.559 -18.952   2.326  1.00  0.00     0.009 A 
HETATM   24  C   UNL     1      43.900 -19.980   3.205  1.00  0.00     0.001 A 
HETATM   25  C   UNL     1      44.033 -19.710   4.561  1.00  0.00     0.002 A 
HETATM   26  C   UNL     1      43.828 -18.415   5.039  1.00  0.00     0.030 A 
ENDBRANCH  17  20
ENDBRANCH  15  16
ENDBRANCH   1  15
TORSDOF 3
ENDMDL
MODEL 5
REMARK VINA RESULT:      -7.8      5.027      7.488
REMARK  3 active torsions:
REMARK  status: ('A' for Active; 'I' for Inactive)
REMARK    1  A    between atoms: C_3  and  N_4 
REMARK       I    between atoms: N_4  and  C_5 
REMARK    2  A    between atoms: C_5  and  C_6 
REMARK    3  A    between atoms: C_6  and  C_7 
ROOT
HETATM    1  C   UNL     1      41.377 -13.957   5.055  1.00  0.00     0.286 C 
HETATM    2  N   UNL     1      42.872 -14.268   5.114  1.00  0.00    -0.056 N 
HETATM    3  H   UNL     1      43.345 -13.373   4.867  1.00  0.00     0.278 HD
HETATM    4  H   UNL     1      43.171 -14.497   6.068  1.00  0.00     0.278 HD
HETATM    5  C   UNL     1      43.362 -15.281   4.122  1.00  0.00     0.209 C 
HETATM    6  C   UNL     1      42.901 -14.870   2.704  1.00  0.00     0.115 C 
HETATM    7  N   UNL     1      41.466 -14.595   2.644  1.00  0.00    -0.353 N 
HETATM    8  C   UNL     1      40.799 -13.901   3.623  1.00  0.00     0.249 C 
HETATM    9  O   UNL     1      39.735 -13.348   3.368  1.00  0.00    -0.271 OA
HETATM   10  C   UNL     1      42.896 -16.683   4.518  1.00  0.00     0.035 C 
HETATM   11  C   UNL     1      43.338 -17.710   3.477  1.00  0.00     0.002 C 
HETATM   12  C   UNL     1      42.857 -17.336   2.076  1.00  0.00     0.002 C 
HETATM   13  C   UNL     1      43.305 -15.930   1.676  1.00  0.00     0.027 C 
HETATM   14  H   UNL     1      41.047 -14.457   1.726  1.00  0.00     0.163 HD
ENDROOT
BRANCH   1  15
HETATM   15  C   UNL     1      41.069 -12.653   5.810  1.00  0.00     0.146 C 
BRANCH  15  16
HETATM   16  C   UNL     1      42.319 -11.804   5.896  1.00  0.00     0.224 C 
HETATM   17  N   UNL     1      42.849 -11.701   7.159  1.00  0.00    -0.327 N 
HETATM   18  H   UNL     1      42.479 -12.305   7.883  1.00  0.00     0.169 HD
HETATM   19  O   UNL     1      42.810 -11.371   4.851  1.00  0.00    -0.273 OA
BRANCH  17  20
HETATM   20  C   UNL     1      43.946 -10.889   7.539  1.00  0.00     0.040 A 
HETATM   21  C   UNL     1      43.701  -9.628   8.121  1.00  0.00    -0.035 A 
HETATM   22  C   UNL     1      42.314  -9.123   8.416  1.00  0.00     0.050 C 
HETATM   23  C   UNL     1      44.790  -8.803   8.454  1.00  0.00     0.009 A 
HETATM   24  C   UNL     1      46.101  -9.215   8.220  1.00  0.00     0.001 A 
HETATM   25  C   UNL     1      46.340 -10.458   7.646  1.00  0.00     0.002 A 
HETATM   26  C   UNL     1      45.270 -11.288   7.310  1.00  0.00     0.030 A 
ENDBRANCH  17  20
ENDBRANCH  15  16
ENDBRANCH   1  15
TORSDOF 3
ENDMDL
MODEL 6
REMARK VINA RESULT:      -7.8      3.385      4.668
REMARK  3 active torsions:
REMARK  status: ('A' for Active; 'I' for Inactive)
REMARK    1  A    between atoms: C_3  and  N_4 
REMARK       I    between atoms: N_4  and  C_5 
REMARK    2  A    between atoms: C_5  and  C_6 
REMARK    3  A    between atoms: C_6  and  C_7 
ROOT
HETATM    1  C   UNL     1      42.301 -13.474   6.164  1.00  0.00     0.286 C 
HETATM    2  N   UNL     1      40.844 -13.845   6.444  1.00  0.00    -0.056 N 
HETATM    3  H   UNL     1      40.751 -14.834   6.130  1.00  0.00     0.278 HD
HETATM    4  H   UNL     1      40.642 -13.842   7.450  1.00  0.00     0.278 HD
HETATM    5  C   UNL     1      39.820 -13.067   5.672  1.00  0.00     0.209 C 
HETATM    6  C   UNL     1      40.163 -13.128   4.165  1.00  0.00     0.115 C 
HETATM    7  N   UNL     1      41.551 -12.752   3.896  1.00  0.00    -0.353 N 
HETATM    8  C   UNL     1      42.599 -13.164   4.680  1.00  0.00     0.249 C 
HETATM    9  O   UNL     1      43.738 -13.183   4.224  1.00  0.00    -0.271 OA
HETATM   10  C   UNL     1      39.722 -11.637   6.206  1.00  0.00     0.035 C 
HETATM   11  C   UNL     1      38.726 -10.824   5.381  1.00  0.00     0.002 C 
HETATM   12  C   UNL     1      39.075 -10.843   3.894  1.00  0.00     0.002 C 
HETATM   13  C   UNL     1      39.189 -12.268   3.354  1.00  0.00     0.027 C 
HETATM   14  H   UNL     1      41.828 -12.623   2.924  1.00  0.00     0.163 HD
ENDROOT
BRANCH   1  15
HETATM   15  C   UNL     1      43.244 -14.573   6.683  1.00  0.00     0.146 C 
BRANCH  15  16
HETATM   16  C   UNL     1      42.903 -15.894   6.025  1.00  0.00     0.224 C 
HETATM   17  N   UNL     1      43.889 -16.390   5.207  1.00  0.00    -0.327 N 
HETATM   18  H   UNL     1      44.797 -15.943   5.228  1.00  0.00     0.169 HD
HETATM   19  O   UNL     1      41.852 -16.456   6.342  1.00  0.00    -0.273 OA
BRANCH  17  20
HETATM   20  C   UNL     1      43.792 -17.545   4.392  1.00  0.00     0.040 A 
HETATM   21  C   UNL     1      43.338 -17.415   3.063  1.00  0.00    -0.035 A 
HETATM   22  C   UNL     1      43.004 -16.084   2.445  1.00  0.00     0.050 C 
HETATM   23  C   UNL     1      43.197 -18.568   2.271  1.00  0.00     0.009 A 
HETATM   24  C   UNL     1      43.502 -19.830   2.779  1.00  0.00     0.001 A 
HETATM   25  C   UNL     1      43.949 -19.956   4.087  1.00  0.00     0.002 A 
HETATM   26  C   UNL     1      44.094 -18.821   4.888  1.00  0.00     0.030 A 
ENDBRANCH  17  20
ENDBRANCH  15  16
ENDBRANCH   1  15
TORSDOF 3
ENDMDL
MODEL 7
REMARK VINA RESULT:      -7.5      2.143      7.528
REMARK  3 active torsions:
REMARK  status: ('A' for Active; 'I' for Inactive)
REMARK    1  A    between atoms: C_3  and  N_4 
REMARK       I    between atoms: N_4  and  C_5 
REMARK    2  A    between atoms: C_5  and  C_6 
REMARK    3  A    between atoms: C_6  and  C_7 
ROOT
HETATM    1  C   UNL     1      43.153 -15.716   2.841  1.00  0.00     0.286 C 
HETATM    2  N   UNL     1      42.379 -16.875   3.469  1.00  0.00    -0.056 N 
HETATM    3  H   UNL     1      41.402 -16.768   3.122  1.00  0.00     0.278 HD
HETATM    4  H   UNL     1      42.710 -17.781   3.120  1.00  0.00     0.278 HD
HETATM    5  C   UNL     1      42.291 -16.857   4.966  1.00  0.00     0.209 C 
HETATM    6  C   UNL     1      41.764 -15.478   5.429  1.00  0.00     0.115 C 
HETATM    7  N   UNL     1      42.520 -14.371   4.846  1.00  0.00    -0.353 N 
HETATM    8  C   UNL     1      42.922 -14.354   3.533  1.00  0.00     0.249 C 
HETATM    9  O   UNL     1      43.178 -13.288   2.982  1.00  0.00    -0.271 OA
HETATM   10  C   UNL     1      43.642 -17.220   5.585  1.00  0.00     0.035 C 
HETATM   11  C   UNL     1      43.573 -17.141   7.109  1.00  0.00     0.002 C 
HETATM   12  C   UNL     1      43.091 -15.771   7.582  1.00  0.00     0.002 C 
HETATM   13  C   UNL     1      41.748 -15.392   6.959  1.00  0.00     0.027 C 
HETATM   14  H   UNL     1      42.341 -13.434   5.203  1.00  0.00     0.163 HD
ENDROOT
BRANCH   1  15
HETATM   15  C   UNL     1      42.842 -15.614   1.338  1.00  0.00     0.146 C 
BRANCH  15  16
HETATM   16  C   UNL     1      41.424 -15.123   1.140  1.00  0.00     0.224 C 
HETATM   17  N   UNL     1      41.323 -13.946   0.441  1.00  0.00    -0.327 N 
HETATM   18  H   UNL     1      42.154 -13.589  -0.015  1.00  0.00     0.169 HD
HETATM   19  O   UNL     1      40.495 -15.843   1.515  1.00  0.00    -0.273 OA
BRANCH  17  20
HETATM   20  C   UNL     1      40.132 -13.215   0.207  1.00  0.00     0.040 A 
HETATM   21  C   UNL     1      39.531 -13.267  -1.068  1.00  0.00    -0.035 A 
HETATM   22  C   UNL     1      40.066 -14.119  -2.186  1.00  0.00     0.050 C 
HETATM   23  C   UNL     1      38.375 -12.503  -1.312  1.00  0.00     0.009 A 
HETATM   24  C   UNL     1      37.820 -11.702  -0.315  1.00  0.00     0.001 A 
HETATM   25  C   UNL     1      38.414 -11.652   0.939  1.00  0.00     0.002 A 
HETATM   26  C   UNL     1      39.561 -12.404   1.198  1.00  0.00     0.030 A 
ENDBRANCH  17  20
ENDBRANCH  15  16
ENDBRANCH   1  15
TORSDOF 3
ENDMDL
MODEL 8
REMARK VINA RESULT:      -7.3     13.995     17.101
REMARK  3 active torsions:
REMARK  status: ('A' for Active; 'I' for Inactive)
REMARK    1  A    between atoms: C_3  and  N_4 
REMARK       I    between atoms: N_4  and  C_5 
REMARK    2  A    between atoms: C_5  and  C_6 
REMARK    3  A    between atoms: C_6  and  C_7 
ROOT
HETATM    1  C   UNL     1      47.268 -29.405   2.769  1.00  0.00     0.286 C 
HETATM    2  N   UNL     1      48.672 -28.833   2.567  1.00  0.00    -0.056 N 
HETATM    3  H   UNL     1      48.706 -28.545   1.566  1.00  0.00     0.278 HD
HETATM    4  H   UNL     1      48.812 -27.978   3.116  1.00  0.00     0.278 HD
HETATM    5  C   UNL     1      49.799 -29.804   2.757  1.00  0.00     0.209 C 
HETATM    6  C   UNL     1      49.543 -31.058   1.888  1.00  0.00     0.115 C 
HETATM    7  N   UNL     1      48.209 -31.617   2.099  1.00  0.00    -0.353 N 
HETATM    8  C   UNL     1      47.086 -30.837   2.220  1.00  0.00     0.249 C 
HETATM    9  O   UNL     1      45.979 -31.314   1.991  1.00  0.00    -0.271 OA
HETATM   10  C   UNL     1      49.977 -30.131   4.240  1.00  0.00     0.035 C 
HETATM   11  C   UNL     1      51.082 -31.168   4.433  1.00  0.00     0.002 C 
HETATM   12  C   UNL     1      50.823 -32.428   3.609  1.00  0.00     0.002 C 
HETATM   13  C   UNL     1      50.630 -32.111   2.127  1.00  0.00     0.027 C 
HETATM   14  H   UNL     1      48.002 -32.522   1.680  1.00  0.00     0.163 HD
ENDROOT
BRANCH   1  15
HETATM   15  C   UNL     1      46.212 -28.461   2.169  1.00  0.00     0.146 C 
BRANCH  15  16
HETATM   16  C   UNL     1      46.290 -28.499   0.657  1.00  0.00     0.224 C 
HETATM   17  N   UNL     1      45.085 -28.706   0.032  1.00  0.00    -0.327 N 
HETATM   18  H   UNL     1      44.243 -28.657   0.592  1.00  0.00     0.169 HD
HETATM   19  O   UNL     1      47.370 -28.247   0.117  1.00  0.00    -0.273 OA
BRANCH  17  20
HETATM   20  C   UNL     1      44.888 -28.890  -1.359  1.00  0.00     0.040 A 
HETATM   21  C   UNL     1      44.388 -30.122  -1.827  1.00  0.00    -0.035 A 
HETATM   22  C   UNL     1      43.993 -31.243  -0.905  1.00  0.00     0.050 C 
HETATM   23  C   UNL     1      44.239 -30.320  -3.212  1.00  0.00     0.009 A 
HETATM   24  C   UNL     1      44.574 -29.317  -4.120  1.00  0.00     0.001 A 
HETATM   25  C   UNL     1      45.066 -28.104  -3.657  1.00  0.00     0.002 A 
HETATM   26  C   UNL     1      45.221 -27.892  -2.286  1.00  0.00     0.030 A 
ENDBRANCH  17  20
ENDBRANCH  15  16
ENDBRANCH   1  15
TORSDOF 3
ENDMDL
MODEL 9
REMARK VINA RESULT:      -7.3      5.689      7.857
REMARK  3 active torsions:
REMARK  status: ('A' for Active; 'I' for Inactive)
REMARK    1  A    between atoms: C_3  and  N_4 
REMARK       I    between atoms: N_4  and  C_5 
REMARK    2  A    between atoms: C_5  and  C_6 
REMARK    3  A    between atoms: C_6  and  C_7 
ROOT
HETATM    1  C   UNL     1      41.080 -11.943   5.456  1.00  0.00     0.286 C 
HETATM    2  N   UNL     1      41.915 -12.128   4.189  1.00  0.00    -0.056 N 
HETATM    3  H   UNL     1      41.412 -11.590   3.451  1.00  0.00     0.278 HD
HETATM    4  H   UNL     1      42.840 -11.692   4.281  1.00  0.00     0.278 HD
HETATM    5  C   UNL     1      42.015 -13.534   3.679  1.00  0.00     0.209 C 
HETATM    6  C   UNL     1      40.593 -14.127   3.539  1.00  0.00     0.115 C 
HETATM    7  N   UNL     1      39.803 -13.971   4.759  1.00  0.00    -0.353 N 
HETATM    8  C   UNL     1      39.809 -12.820   5.507  1.00  0.00     0.249 C 
HETATM    9  O   UNL     1      38.871 -12.568   6.256  1.00  0.00    -0.271 OA
HETATM   10  C   UNL     1      42.923 -14.367   4.586  1.00  0.00     0.035 C 
HETATM   11  C   UNL     1      42.976 -15.817   4.107  1.00  0.00     0.002 C 
HETATM   12  C   UNL     1      41.580 -16.428   4.000  1.00  0.00     0.002 C 
HETATM   13  C   UNL     1      40.660 -15.595   3.107  1.00  0.00     0.027 C 
HETATM   14  H   UNL     1      38.908 -14.455   4.811  1.00  0.00     0.163 HD
ENDROOT
BRANCH   1  15
HETATM   15  C   UNL     1      40.718 -10.460   5.650  1.00  0.00     0.146 C 
BRANCH  15  16
HETATM   16  C   UNL     1      41.760  -9.788   6.519  1.00  0.00     0.224 C 
HETATM   17  N   UNL     1      42.483 -10.650   7.306  1.00  0.00    -0.327 N 
HETATM   18  H   UNL     1      42.387 -11.644   7.140  1.00  0.00     0.169 HD
HETATM   19  O   UNL     1      41.948  -8.577   6.382  1.00  0.00    -0.273 OA
BRANCH  17  20
HETATM   20  C   UNL     1      43.440 -10.282   8.284  1.00  0.00     0.040 A 
HETATM   21  C   UNL     1      44.800 -10.589   8.068  1.00  0.00    -0.035 A 
HETATM   22  C   UNL     1      45.295 -11.243   6.807  1.00  0.00     0.050 C 
HETATM   23  C   UNL     1      45.742 -10.265   9.060  1.00  0.00     0.009 A 
HETATM   24  C   UNL     1      45.351  -9.645  10.247  1.00  0.00     0.001 A 
HETATM   25  C   UNL     1      44.012  -9.344  10.458  1.00  0.00     0.002 A 
HETATM   26  C   UNL     1      43.064  -9.659   9.483  1.00  0.00     0.030 A 
ENDBRANCH  17  20
ENDBRANCH  15  16
ENDBRANCH   1  15
TORSDOF 3
ENDMDL
MODEL 10
REMARK VINA RESULT:      -7.2      2.688      7.477
REMARK  3 active torsions:
REMARK  status: ('A' for Active; 'I' for Inactive)
REMARK    1  A    between atoms: C_3  and  N_4 
REMARK       I    between atoms: N_4  and  C_5 
REMARK    2  A    between atoms: C_5  and  C_6 
REMARK    3  A    between atoms: C_6  and  C_7 
ROOT
HETATM    1  C   UNL     1      41.040 -16.057   3.076  1.00  0.00     0.286 C 
HETATM    2  N   UNL     1      40.271 -15.373   4.206  1.00  0.00    -0.056 N 
HETATM    3  H   UNL     1      39.850 -14.524   3.772  1.00  0.00     0.278 HD
HETATM    4  H   UNL     1      39.485 -15.950   4.529  1.00  0.00     0.278 HD
HETATM    5  C   UNL     1      41.105 -14.883   5.352  1.00  0.00     0.209 C 
HETATM    6  C   UNL     1      42.254 -14.003   4.806  1.00  0.00     0.115 C 
HETATM    7  N   UNL     1      43.004 -14.667   3.740  1.00  0.00    -0.353 N 
HETATM    8  C   UNL     1      42.398 -15.398   2.748  1.00  0.00     0.249 C 
HETATM    9  O   UNL     1      42.978 -15.589   1.684  1.00  0.00    -0.271 OA
HETATM   10  C   UNL     1      41.601 -16.061   6.193  1.00  0.00     0.035 C 
HETATM   11  C   UNL     1      42.503 -15.570   7.324  1.00  0.00     0.002 C 
HETATM   12  C   UNL     1      43.665 -14.731   6.795  1.00  0.00     0.002 C 
HETATM   13  C   UNL     1      43.181 -13.559   5.941  1.00  0.00     0.027 C 
HETATM   14  H   UNL     1      43.864 -14.227   3.420  1.00  0.00     0.163 HD
ENDROOT
BRANCH   1  15
HETATM   15  C   UNL     1      40.169 -16.150   1.812  1.00  0.00     0.146 C 
BRANCH  15  16
HETATM   16  C   UNL     1      39.988 -14.771   1.212  1.00  0.00     0.224 C 
HETATM   17  N   UNL     1      40.319 -14.683  -0.118  1.00  0.00    -0.327 N 
HETATM   18  H   UNL     1      40.497 -15.542  -0.623  1.00  0.00     0.169 HD
HETATM   19  O   UNL     1      39.476 -13.890   1.907  1.00  0.00    -0.273 OA
BRANCH  17  20
HETATM   20  C   UNL     1      40.345 -13.497  -0.893  1.00  0.00     0.040 A 
HETATM   21  C   UNL     1      39.734 -13.492  -2.164  1.00  0.00    -0.035 A 
HETATM   22  C   UNL     1      38.996 -14.680  -2.717  1.00  0.00     0.050 C 
HETATM   23  C   UNL     1      39.802 -12.329  -2.952  1.00  0.00     0.009 A 
HETATM   24  C   UNL     1      40.460 -11.188  -2.494  1.00  0.00     0.001 A 
HETATM   25  C   UNL     1      41.061 -11.196  -1.242  1.00  0.00     0.002 A 
HETATM   26  C   UNL     1      41.003 -12.342  -0.447  1.00  0.00     0.030 A 
ENDBRANCH  17  20
ENDBRANCH  15  16
ENDBRANCH   1  15
TORSDOF 3
ENDMDL
