MODEL 1
REMARK VINA RESULT:      -8.5      0.000      0.000
REMARK  3 active torsions:
REMARK  status: ('A' for Active; 'I' for Inactive)
REMARK    1  A    between atoms: C_3  and  N_4 
REMARK       I    between atoms: N_4  and  C_5 
REMARK    2  A    between atoms: C_5  and  C_6 
REMARK    3  A    between atoms: C_6  and  C_7 
ROOT
HETATM    1  C   UNL     1      40.420 -15.750   5.293  1.00  0.00     0.286 C 
HETATM    2  N   UNL     1      40.207 -16.256   3.861  1.00  0.00    -0.056 N 
HETATM    3  H   UNL     1      40.825 -17.075   3.703  1.00  0.00     0.278 HD
HETATM    4  H   UNL     1      39.242 -16.597   3.766  1.00  0.00     0.278 HD
HETATM    5  C   UNL     1      40.511 -15.252   2.779  1.00  0.00     0.209 C 
HETATM    6  C   UNL     1      39.786 -13.927   3.085  1.00  0.00     0.115 C 
HETATM    7  N   UNL     1      40.126 -13.432   4.409  1.00  0.00    -0.353 N 
HETATM    8  C   UNL     1      40.197 -14.243   5.509  1.00  0.00     0.249 C 
HETATM    9  O   UNL     1      40.126 -13.759   6.634  1.00  0.00    -0.271 OA
HETATM   10  C   UNL     1      40.087 -15.811   1.426  1.00  0.00     0.035 C 
HETATM   11  C   UNL     1      40.382 -14.794   0.322  1.00  0.00     0.002 C 
HETATM   12  C   UNL     1      39.758 -13.427   0.611  1.00  0.00     0.002 C 
HETATM   13  C   UNL     1      40.118 -12.901   2.001  1.00  0.00     0.027 C 
HETATM   14  H   UNL     1      39.906 -12.464   4.640  1.00  0.00     0.163 HD
ENDROOT
BRANCH   1  15
HETATM   15  C   UNL     1      41.750 -16.210   5.897  1.00  0.00     0.146 C 
BRANCH  15  16
HETATM   16  C   UNL     1      42.913 -15.802   5.048  1.00  0.00     0.224 C 
HETATM   17  N   UNL     1      43.679 -16.628   4.306  1.00  0.00    -0.325 N 
HETATM   18  H   UNL     1      44.419 -16.106   3.831  1.00  0.00     0.169 HD
HETATM   19  O   UNL     1      43.270 -14.617   5.144  1.00  0.00    -0.273 OA
BRANCH  17  20
HETATM   20  C   UNL     1      43.723 -18.006   4.010  1.00  0.00     0.073 A 
HETATM   21  C   UNL     1      44.082 -19.042   4.864  1.00  0.00     0.033 A 
HETATM   22  C   UNL     1      44.094 -20.369   4.406  1.00  0.00     0.002 A 
HETATM   23  C   UNL     1      43.739 -20.678   3.094  1.00  0.00     0.003 A 
HETATM   24  C   UNL     1      43.371 -19.656   2.227  1.00  0.00     0.044 A 
HETATM   25  C   UNL     1      43.368 -18.345   2.690  1.00  0.00     0.143 A 
HETATM   26  F   UNL     1      43.028 -17.363   1.838  1.00  0.00    -0.204 F 
ENDBRANCH  17  20
ENDBRANCH  15  16
ENDBRANCH   1  15
TORSDOF 3
ENDMDL
MODEL 2
REMARK VINA RESULT:      -8.4      2.444      2.781
REMARK  3 active torsions:
REMARK  status: ('A' for Active; 'I' for Inactive)
REMARK    1  A    between atoms: C_3  and  N_4 
REMARK       I    between atoms: N_4  and  C_5 
REMARK    2  A    between atoms: C_5  and  C_6 
REMARK    3  A    between atoms: C_6  and  C_7 
ROOT
HETATM    1  C   UNL     1      41.574 -15.875   5.560  1.00  0.00     0.286 C 
HETATM    2  N   UNL     1      42.362 -14.984   4.593  1.00  0.00    -0.056 N 
HETATM    3  H   UNL     1      43.305 -15.395   4.455  1.00  0.00     0.278 HD
HETATM    4  H   UNL     1      41.901 -14.995   3.674  1.00  0.00     0.278 HD
HETATM    5  C   UNL     1      42.558 -13.563   5.056  1.00  0.00     0.209 C 
HETATM    6  C   UNL     1      41.205 -12.968   5.489  1.00  0.00     0.115 C 
HETATM    7  N   UNL     1      40.564 -13.793   6.499  1.00  0.00    -0.353 N 
HETATM    8  C   UNL     1      40.523 -15.160   6.425  1.00  0.00     0.249 C 
HETATM    9  O   UNL     1      39.690 -15.785   7.073  1.00  0.00    -0.271 OA
HETATM   10  C   UNL     1      43.187 -12.741   3.936  1.00  0.00     0.035 C 
HETATM   11  C   UNL     1      43.381 -11.294   4.393  1.00  0.00     0.002 C 
HETATM   12  C   UNL     1      42.085 -10.672   4.917  1.00  0.00     0.002 C 
HETATM   13  C   UNL     1      41.410 -11.535   5.984  1.00  0.00     0.027 C 
HETATM   14  H   UNL     1      39.790 -13.399   7.034  1.00  0.00     0.163 HD
ENDROOT
BRANCH   1  15
HETATM   15  C   UNL     1      42.475 -16.777   6.409  1.00  0.00     0.146 C 
BRANCH  15  16
HETATM   16  C   UNL     1      43.907 -16.688   5.982  1.00  0.00     0.224 C 
HETATM   17  N   UNL     1      44.523 -17.504   5.103  1.00  0.00    -0.325 N 
HETATM   18  H   UNL     1      45.505 -17.244   4.994  1.00  0.00     0.169 HD
HETATM   19  O   UNL     1      44.608 -15.865   6.593  1.00  0.00    -0.273 OA
BRANCH  17  20
HETATM   20  C   UNL     1      44.171 -18.607   4.297  1.00  0.00     0.073 A 
HETATM   21  C   UNL     1      44.222 -19.953   4.639  1.00  0.00     0.033 A 
HETATM   22  C   UNL     1      43.852 -20.937   3.709  1.00  0.00     0.002 A 
HETATM   23  C   UNL     1      43.419 -20.589   2.430  1.00  0.00     0.003 A 
HETATM   24  C   UNL     1      43.356 -19.248   2.072  1.00  0.00     0.044 A 
HETATM   25  C   UNL     1      43.729 -18.282   3.001  1.00  0.00     0.143 A 
HETATM   26  F   UNL     1      43.680 -16.989   2.637  1.00  0.00    -0.204 F 
ENDBRANCH  17  20
ENDBRANCH  15  16
ENDBRANCH   1  15
TORSDOF 3
ENDMDL
MODEL 3
REMARK VINA RESULT:      -8.0      1.714      5.656
REMARK  3 active torsions:
REMARK  status: ('A' for Active; 'I' for Inactive)
REMARK    1  A    between atoms: C_3  and  N_4 
REMARK       I    between atoms: N_4  and  C_5 
REMARK    2  A    between atoms: C_5  and  C_6 
REMARK    3  A    between atoms: C_6  and  C_7 
ROOT
HETATM    1  C   UNL     1      43.385 -15.737   5.028  1.00  0.00     0.286 C 
HETATM    2  N   UNL     1      43.435 -16.364   3.630  1.00  0.00    -0.056 N 
HETATM    3  H   UNL     1      42.723 -15.902   3.033  1.00  0.00     0.278 HD
HETATM    4  H   UNL     1      44.349 -16.163   3.203  1.00  0.00     0.278 HD
HETATM    5  C   UNL     1      43.160 -17.845   3.587  1.00  0.00     0.209 C 
HETATM    6  C   UNL     1      44.043 -18.565   4.624  1.00  0.00     0.115 C 
HETATM    7  N   UNL     1      43.857 -18.008   5.954  1.00  0.00    -0.353 N 
HETATM    8  C   UNL     1      43.783 -16.662   6.191  1.00  0.00     0.249 C 
HETATM    9  O   UNL     1      43.989 -16.225   7.318  1.00  0.00    -0.271 OA
HETATM   10  C   UNL     1      43.419 -18.376   2.181  1.00  0.00     0.035 C 
HETATM   11  C   UNL     1      43.152 -19.881   2.131  1.00  0.00     0.002 C 
HETATM   12  C   UNL     1      43.938 -20.646   3.198  1.00  0.00     0.002 C 
HETATM   13  C   UNL     1      43.742 -20.065   4.599  1.00  0.00     0.027 C 
HETATM   14  H   UNL     1      44.196 -18.537   6.757  1.00  0.00     0.163 HD
ENDROOT
BRANCH   1  15
HETATM   15  C   UNL     1      42.063 -15.019   5.313  1.00  0.00     0.146 C 
BRANCH  15  16
HETATM   16  C   UNL     1      40.885 -15.907   5.058  1.00  0.00     0.224 C 
HETATM   17  N   UNL     1      40.121 -15.909   3.947  1.00  0.00    -0.325 N 
HETATM   18  H   UNL     1      39.370 -16.597   4.025  1.00  0.00     0.169 HD
HETATM   19  O   UNL     1      40.516 -16.611   6.013  1.00  0.00    -0.273 OA
BRANCH  17  20
HETATM   20  C   UNL     1      40.089 -15.222   2.716  1.00  0.00     0.073 A 
HETATM   21  C   UNL     1      40.344 -15.742   1.453  1.00  0.00     0.033 A 
HETATM   22  C   UNL     1      40.291 -14.915   0.320  1.00  0.00     0.002 A 
HETATM   23  C   UNL     1      39.974 -13.562   0.433  1.00  0.00     0.003 A 
HETATM   24  C   UNL     1      39.709 -13.026   1.687  1.00  0.00     0.044 A 
HETATM   25  C   UNL     1      39.770 -13.854   2.803  1.00  0.00     0.143 A 
HETATM   26  F   UNL     1      39.530 -13.320   4.013  1.00  0.00    -0.204 F 
ENDBRANCH  17  20
ENDBRANCH  15  16
ENDBRANCH   1  15
TORSDOF 3
ENDMDL
MODEL 4
REMARK VINA RESULT:      -7.9      1.627      2.026
REMARK  3 active torsions:
REMARK  status: ('A' for Active; 'I' for Inactive)
REMARK    1  A    between atoms: C_3  and  N_4 
REMARK       I    between atoms: N_4  and  C_5 
REMARK    2  A    between atoms: C_5  and  C_6 
REMARK    3  A    between atoms: C_6  and  C_7 
ROOT
HETATM    1  C   UNL     1      41.193 -15.441   3.343  1.00  0.00     0.286 C 
HETATM    2  N   UNL     1      40.771 -15.530   1.872  1.00  0.00    -0.056 N 
HETATM    3  H   UNL     1      41.525 -16.003   1.338  1.00  0.00     0.278 HD
HETATM    4  H   UNL     1      39.940 -16.130   1.797  1.00  0.00     0.278 HD
HETATM    5  C   UNL     1      40.515 -14.204   1.204  1.00  0.00     0.209 C 
HETATM    6  C   UNL     1      39.564 -13.361   2.075  1.00  0.00     0.115 C 
HETATM    7  N   UNL     1      40.081 -13.207   3.424  1.00  0.00    -0.353 N 
HETATM    8  C   UNL     1      40.639 -14.240   4.128  1.00  0.00     0.249 C 
HETATM    9  O   UNL     1      40.726 -14.174   5.349  1.00  0.00    -0.271 OA
HETATM   10  C   UNL     1      39.930 -14.433  -0.185  1.00  0.00     0.035 C 
HETATM   11  C   UNL     1      39.657 -13.092  -0.869  1.00  0.00     0.002 C 
HETATM   12  C   UNL     1      38.785 -12.172  -0.012  1.00  0.00     0.002 C 
HETATM   13  C   UNL     1      39.328 -12.004   1.408  1.00  0.00     0.027 C 
HETATM   14  H   UNL     1      39.676 -12.488   4.024  1.00  0.00     0.163 HD
ENDROOT
BRANCH   1  15
HETATM   15  C   UNL     1      42.705 -15.587   3.540  1.00  0.00     0.146 C 
BRANCH  15  16
HETATM   16  C   UNL     1      43.337 -16.354   2.422  1.00  0.00     0.224 C 
HETATM   17  N   UNL     1      43.775 -17.628   2.484  1.00  0.00    -0.325 N 
HETATM   18  H   UNL     1      44.181 -17.916   1.592  1.00  0.00     0.169 HD
HETATM   19  O   UNL     1      43.588 -15.709   1.391  1.00  0.00    -0.273 OA
BRANCH  17  20
HETATM   20  C   UNL     1      43.813 -18.660   3.445  1.00  0.00     0.073 A 
HETATM   21  C   UNL     1      43.908 -18.525   4.825  1.00  0.00     0.033 A 
HETATM   22  C   UNL     1      43.955 -19.661   5.648  1.00  0.00     0.002 A 
HETATM   23  C   UNL     1      43.899 -20.944   5.105  1.00  0.00     0.003 A 
HETATM   24  C   UNL     1      43.798 -21.098   3.728  1.00  0.00     0.044 A 
HETATM   25  C   UNL     1      43.757 -19.966   2.922  1.00  0.00     0.143 A 
HETATM   26  F   UNL     1      43.677 -20.127   1.590  1.00  0.00    -0.204 F 
ENDBRANCH  17  20
ENDBRANCH  15  16
ENDBRANCH   1  15
TORSDOF 3
ENDMDL
MODEL 5
REMARK VINA RESULT:      -7.8      1.470      5.406
REMARK  3 active torsions:
REMARK  status: ('A' for Active; 'I' for Inactive)
REMARK    1  A    between atoms: C_3  and  N_4 
REMARK       I    between atoms: N_4  and  C_5 
REMARK    2  A    between atoms: C_5  and  C_6 
REMARK    3  A    between atoms: C_6  and  C_7 
ROOT
HETATM    1  C   UNL     1      43.026 -13.886   4.830  1.00  0.00     0.286 C 
HETATM    2  N   UNL     1      43.184 -14.691   3.534  1.00  0.00    -0.056 N 
HETATM    3  H   UNL     1      42.461 -14.377   2.858  1.00  0.00     0.278 HD
HETATM    4  H   UNL     1      44.094 -14.470   3.110  1.00  0.00     0.278 HD
HETATM    5  C   UNL     1      43.034 -16.182   3.689  1.00  0.00     0.209 C 
HETATM    6  C   UNL     1      43.930 -16.675   4.841  1.00  0.00     0.115 C 
HETATM    7  N   UNL     1      43.646 -15.961   6.075  1.00  0.00    -0.353 N 
HETATM    8  C   UNL     1      43.452 -14.606   6.121  1.00  0.00     0.249 C 
HETATM    9  O   UNL     1      43.575 -14.004   7.182  1.00  0.00    -0.271 OA
HETATM   10  C   UNL     1      43.392 -16.874   2.379  1.00  0.00     0.035 C 
HETATM   11  C   UNL     1      43.252 -18.389   2.530  1.00  0.00     0.002 C 
HETATM   12  C   UNL     1      44.054 -18.931   3.715  1.00  0.00     0.002 C 
HETATM   13  C   UNL     1      43.755 -18.185   5.016  1.00  0.00     0.027 C 
HETATM   14  H   UNL     1      43.994 -16.344   6.954  1.00  0.00     0.163 HD
ENDROOT
BRANCH   1  15
HETATM   15  C   UNL     1      41.639 -13.254   4.975  1.00  0.00     0.146 C 
BRANCH  15  16
HETATM   16  C   UNL     1      40.551 -14.277   4.870  1.00  0.00     0.224 C 
HETATM   17  N   UNL     1      39.833 -14.558   3.763  1.00  0.00    -0.325 N 
HETATM   18  H   UNL     1      39.141 -15.285   3.956  1.00  0.00     0.169 HD
HETATM   19  O   UNL     1      40.207 -14.817   5.933  1.00  0.00    -0.273 OA
BRANCH  17  20
HETATM   20  C   UNL     1      39.792 -14.124   2.423  1.00  0.00     0.073 A 
HETATM   21  C   UNL     1      39.546 -12.836   1.960  1.00  0.00     0.033 A 
HETATM   22  C   UNL     1      39.519 -12.570   0.581  1.00  0.00     0.002 A 
HETATM   23  C   UNL     1      39.745 -13.582  -0.350  1.00  0.00     0.003 A 
HETATM   24  C   UNL     1      39.999 -14.874   0.094  1.00  0.00     0.044 A 
HETATM   25  C   UNL     1      40.018 -15.127   1.462  1.00  0.00     0.143 A 
HETATM   26  F   UNL     1      40.246 -16.384   1.879  1.00  0.00    -0.204 F 
ENDBRANCH  17  20
ENDBRANCH  15  16
ENDBRANCH   1  15
TORSDOF 3
ENDMDL
MODEL 6
REMARK VINA RESULT:      -7.7      1.869      2.841
REMARK  3 active torsions:
REMARK  status: ('A' for Active; 'I' for Inactive)
REMARK    1  A    between atoms: C_3  and  N_4 
REMARK       I    between atoms: N_4  and  C_5 
REMARK    2  A    between atoms: C_5  and  C_6 
REMARK    3  A    between atoms: C_6  and  C_7 
ROOT
HETATM    1  C   UNL     1      40.145 -15.765   3.123  1.00  0.00     0.286 C 
HETATM    2  N   UNL     1      39.375 -14.549   2.596  1.00  0.00    -0.056 N 
HETATM    3  H   UNL     1      39.405 -14.561   1.558  1.00  0.00     0.278 HD
HETATM    4  H   UNL     1      38.385 -14.638   2.860  1.00  0.00     0.278 HD
HETATM    5  C   UNL     1      39.912 -13.214   3.043  1.00  0.00     0.209 C 
HETATM    6  C   UNL     1      40.099 -13.217   4.572  1.00  0.00     0.115 C 
HETATM    7  N   UNL     1      40.942 -14.321   4.999  1.00  0.00    -0.353 N 
HETATM    8  C   UNL     1      40.817 -15.588   4.495  1.00  0.00     0.249 C 
HETATM    9  O   UNL     1      41.275 -16.542   5.115  1.00  0.00    -0.271 OA
HETATM   10  C   UNL     1      38.959 -12.105   2.608  1.00  0.00     0.035 C 
HETATM   11  C   UNL     1      39.491 -10.746   3.066  1.00  0.00     0.002 C 
HETATM   12  C   UNL     1      39.779 -10.713   4.568  1.00  0.00     0.002 C 
HETATM   13  C   UNL     1      40.670 -11.870   5.020  1.00  0.00     0.027 C 
HETATM   14  H   UNL     1      41.333 -14.303   5.940  1.00  0.00     0.163 HD
ENDROOT
BRANCH   1  15
HETATM   15  C   UNL     1      41.120 -16.346   2.095  1.00  0.00     0.146 C 
BRANCH  15  16
HETATM   16  C   UNL     1      42.535 -15.961   2.394  1.00  0.00     0.224 C 
HETATM   17  N   UNL     1      43.509 -16.792   2.816  1.00  0.00    -0.325 N 
HETATM   18  H   UNL     1      44.382 -16.282   2.964  1.00  0.00     0.169 HD
HETATM   19  O   UNL     1      42.785 -14.745   2.369  1.00  0.00    -0.273 OA
BRANCH  17  20
HETATM   20  C   UNL     1      43.642 -18.168   3.095  1.00  0.00     0.073 A 
HETATM   21  C   UNL     1      43.331 -19.233   2.258  1.00  0.00     0.033 A 
HETATM   22  C   UNL     1      43.504 -20.556   2.697  1.00  0.00     0.002 A 
HETATM   23  C   UNL     1      43.995 -20.830   3.972  1.00  0.00     0.003 A 
HETATM   24  C   UNL     1      44.317 -19.778   4.821  1.00  0.00     0.044 A 
HETATM   25  C   UNL     1      44.138 -18.472   4.377  1.00  0.00     0.143 A 
HETATM   26  F   UNL     1      44.436 -17.463   5.213  1.00  0.00    -0.204 F 
ENDBRANCH  17  20
ENDBRANCH  15  16
ENDBRANCH   1  15
TORSDOF 3
ENDMDL
MODEL 7
REMARK VINA RESULT:      -7.6     13.665     16.530
REMARK  3 active torsions:
REMARK  status: ('A' for Active; 'I' for Inactive)
REMARK    1  A    between atoms: C_3  and  N_4 
REMARK       I    between atoms: N_4  and  C_5 
REMARK    2  A    between atoms: C_5  and  C_6 
REMARK    3  A    between atoms: C_6  and  C_7 
ROOT
HETATM    1  C   UNL     1      48.836 -29.592   1.109  1.00  0.00     0.286 C 
HETATM    2  N   UNL     1      49.454 -29.444  -0.287  1.00  0.00    -0.056 N 
HETATM    3  H   UNL     1      48.696 -29.238  -0.965  1.00  0.00     0.278 HD
HETATM    4  H   UNL     1      50.079 -28.627  -0.292  1.00  0.00     0.278 HD
HETATM    5  C   UNL     1      50.187 -30.660  -0.790  1.00  0.00     0.209 C 
HETATM    6  C   UNL     1      51.181 -31.145   0.282  1.00  0.00     0.115 C 
HETATM    7  N   UNL     1      50.513 -31.389   1.550  1.00  0.00    -0.353 N 
HETATM    8  C   UNL     1      49.573 -30.540   2.069  1.00  0.00     0.249 C 
HETATM    9  O   UNL     1      49.307 -30.578   3.266  1.00  0.00    -0.271 OA
HETATM   10  C   UNL     1      50.904 -30.325  -2.093  1.00  0.00     0.035 C 
HETATM   11  C   UNL     1      51.660 -31.551  -2.607  1.00  0.00     0.002 C 
HETATM   12  C   UNL     1      52.604 -32.134  -1.554  1.00  0.00     0.002 C 
HETATM   13  C   UNL     1      51.904 -32.397  -0.220  1.00  0.00     0.027 C 
HETATM   14  H   UNL     1      51.001 -31.930   2.264  1.00  0.00     0.163 HD
ENDROOT
BRANCH   1  15
HETATM   15  C   UNL     1      47.336 -29.894   1.068  1.00  0.00     0.146 C 
BRANCH  15  16
HETATM   16  C   UNL     1      46.516 -28.648   1.197  1.00  0.00     0.224 C 
HETATM   17  N   UNL     1      45.668 -28.159   0.270  1.00  0.00    -0.325 N 
HETATM   18  H   UNL     1      45.242 -27.288   0.592  1.00  0.00     0.169 HD
HETATM   19  O   UNL     1      46.742 -27.949   2.198  1.00  0.00    -0.273 OA
BRANCH  17  20
HETATM   20  C   UNL     1      45.214 -28.533  -1.012  1.00  0.00     0.073 A 
HETATM   21  C   UNL     1      44.051 -29.226  -1.326  1.00  0.00     0.033 A 
HETATM   22  C   UNL     1      43.750 -29.540  -2.661  1.00  0.00     0.002 A 
HETATM   23  C   UNL     1      44.601 -29.159  -3.697  1.00  0.00     0.003 A 
HETATM   24  C   UNL     1      45.765 -28.460  -3.403  1.00  0.00     0.044 A 
HETATM   25  C   UNL     1      46.056 -28.158  -2.077  1.00  0.00     0.143 A 
HETATM   26  F   UNL     1      47.193 -27.498  -1.802  1.00  0.00    -0.204 F 
ENDBRANCH  17  20
ENDBRANCH  15  16
ENDBRANCH   1  15
TORSDOF 3
ENDMDL
MODEL 8
REMARK VINA RESULT:      -7.6      2.547      6.170
REMARK  3 active torsions:
REMARK  status: ('A' for Active; 'I' for Inactive)
REMARK    1  A    between atoms: C_3  and  N_4 
REMARK       I    between atoms: N_4  and  C_5 
REMARK    2  A    between atoms: C_5  and  C_6 
REMARK    3  A    between atoms: C_6  and  C_7 
ROOT
HETATM    1  C   UNL     1      42.056 -14.096   2.978  1.00  0.00     0.286 C 
HETATM    2  N   UNL     1      42.575 -15.322   2.218  1.00  0.00    -0.056 N 
HETATM    3  H   UNL     1      41.906 -15.550   1.458  1.00  0.00     0.278 HD
HETATM    4  H   UNL     1      43.465 -15.083   1.762  1.00  0.00     0.278 HD
HETATM    5  C   UNL     1      42.741 -16.565   3.055  1.00  0.00     0.209 C 
HETATM    6  C   UNL     1      43.548 -16.230   4.324  1.00  0.00     0.115 C 
HETATM    7  N   UNL     1      42.936 -15.142   5.068  1.00  0.00    -0.353 N 
HETATM    8  C   UNL     1      42.440 -14.017   4.465  1.00  0.00     0.249 C 
HETATM    9  O   UNL     1      42.270 -12.994   5.120  1.00  0.00    -0.271 OA
HETATM   10  C   UNL     1      43.431 -17.648   2.234  1.00  0.00     0.035 C 
HETATM   11  C   UNL     1      43.613 -18.911   3.079  1.00  0.00     0.002 C 
HETATM   12  C   UNL     1      44.336 -18.627   4.397  1.00  0.00     0.002 C 
HETATM   13  C   UNL     1      43.691 -17.486   5.185  1.00  0.00     0.027 C 
HETATM   14  H   UNL     1      43.230 -14.981   6.032  1.00  0.00     0.163 HD
ENDROOT
BRANCH   1  15
HETATM   15  C   UNL     1      40.557 -13.859   2.775  1.00  0.00     0.146 C 
BRANCH  15  16
HETATM   16  C   UNL     1      39.940 -14.920   1.918  1.00  0.00     0.224 C 
HETATM   17  N   UNL     1      39.779 -14.863   0.580  1.00  0.00    -0.325 N 
HETATM   18  H   UNL     1      39.318 -15.706   0.234  1.00  0.00     0.169 HD
HETATM   19  O   UNL     1      39.424 -15.876   2.520  1.00  0.00    -0.273 OA
BRANCH  17  20
HETATM   20  C   UNL     1      40.082 -13.957  -0.457  1.00  0.00     0.073 A 
HETATM   21  C   UNL     1      40.792 -12.766  -0.357  1.00  0.00     0.033 A 
HETATM   22  C   UNL     1      40.993 -11.961  -1.490  1.00  0.00     0.002 A 
HETATM   23  C   UNL     1      40.495 -12.340  -2.736  1.00  0.00     0.003 A 
HETATM   24  C   UNL     1      39.789 -13.530  -2.857  1.00  0.00     0.044 A 
HETATM   25  C   UNL     1      39.592 -14.317  -1.727  1.00  0.00     0.143 A 
HETATM   26  F   UNL     1      38.892 -15.457  -1.852  1.00  0.00    -0.204 F 
ENDBRANCH  17  20
ENDBRANCH  15  16
ENDBRANCH   1  15
TORSDOF 3
ENDMDL
MODEL 9
REMARK VINA RESULT:      -7.5      1.895      2.205
REMARK  3 active torsions:
REMARK  status: ('A' for Active; 'I' for Inactive)
REMARK    1  A    between atoms: C_3  and  N_4 
REMARK       I    between atoms: N_4  and  C_5 
REMARK    2  A    between atoms: C_5  and  C_6 
REMARK    3  A    between atoms: C_6  and  C_7 
ROOT
HETATM    1  C   UNL     1      41.974 -14.449   5.516  1.00  0.00     0.286 C 
HETATM    2  N   UNL     1      41.160 -15.334   4.564  1.00  0.00    -0.056 N 
HETATM    3  H   UNL     1      41.553 -16.294   4.585  1.00  0.00     0.278 HD
HETATM    4  H   UNL     1      40.196 -15.405   4.914  1.00  0.00     0.278 HD
HETATM    5  C   UNL     1      41.155 -14.884   3.126  1.00  0.00     0.209 C 
HETATM    6  C   UNL     1      40.790 -13.389   3.053  1.00  0.00     0.115 C 
HETATM    7  N   UNL     1      41.678 -12.587   3.878  1.00  0.00    -0.353 N 
HETATM    8  C   UNL     1      42.057 -12.960   5.140  1.00  0.00     0.249 C 
HETATM    9  O   UNL     1      42.491 -12.123   5.923  1.00  0.00    -0.271 OA
HETATM   10  C   UNL     1      40.171 -15.730   2.326  1.00  0.00     0.035 C 
HETATM   11  C   UNL     1      40.152 -15.274   0.866  1.00  0.00     0.002 C 
HETATM   12  C   UNL     1      39.879 -13.775   0.730  1.00  0.00     0.002 C 
HETATM   13  C   UNL     1      40.814 -12.928   1.594  1.00  0.00     0.027 C 
HETATM   14  H   UNL     1      41.697 -11.577   3.738  1.00  0.00     0.163 HD
ENDROOT
BRANCH   1  15
HETATM   15  C   UNL     1      43.359 -15.025   5.827  1.00  0.00     0.146 C 
BRANCH  15  16
HETATM   16  C   UNL     1      43.277 -16.185   6.768  1.00  0.00     0.224 C 
HETATM   17  N   UNL     1      43.375 -17.487   6.430  1.00  0.00    -0.325 N 
HETATM   18  H   UNL     1      43.270 -18.084   7.253  1.00  0.00     0.169 HD
HETATM   19  O   UNL     1      42.966 -15.916   7.940  1.00  0.00    -0.273 OA
BRANCH  17  20
HETATM   20  C   UNL     1      43.589 -18.234   5.253  1.00  0.00     0.073 A 
HETATM   21  C   UNL     1      43.664 -17.754   3.951  1.00  0.00     0.033 A 
HETATM   22  C   UNL     1      43.864 -18.638   2.879  1.00  0.00     0.002 A 
HETATM   23  C   UNL     1      43.999 -20.008   3.094  1.00  0.00     0.003 A 
HETATM   24  C   UNL     1      43.934 -20.506   4.390  1.00  0.00     0.044 A 
HETATM   25  C   UNL     1      43.731 -19.622   5.444  1.00  0.00     0.143 A 
HETATM   26  F   UNL     1      43.651 -20.116   6.691  1.00  0.00    -0.204 F 
ENDBRANCH  17  20
ENDBRANCH  15  16
ENDBRANCH   1  15
TORSDOF 3
ENDMDL
MODEL 10
REMARK VINA RESULT:      -7.5     13.718     16.324
REMARK  3 active torsions:
REMARK  status: ('A' for Active; 'I' for Inactive)
REMARK    1  A    between atoms: C_3  and  N_4 
REMARK       I    between atoms: N_4  and  C_5 
REMARK    2  A    between atoms: C_5  and  C_6 
REMARK    3  A    between atoms: C_6  and  C_7 
ROOT
HETATM    1  C   UNL     1      48.556 -29.975   0.176  1.00  0.00     0.286 C 
HETATM    2  N   UNL     1      47.850 -30.553   1.409  1.00  0.00    -0.056 N 
HETATM    3  H   UNL     1      46.991 -30.000   1.589  1.00  0.00     0.278 HD
HETATM    4  H   UNL     1      47.542 -31.512   1.201  1.00  0.00     0.278 HD
HETATM    5  C   UNL     1      48.667 -30.536   2.675  1.00  0.00     0.209 C 
HETATM    6  C   UNL     1      50.053 -31.151   2.405  1.00  0.00     0.115 C 
HETATM    7  N   UNL     1      50.726 -30.479   1.306  1.00  0.00    -0.353 N 
HETATM    8  C   UNL     1      50.086 -30.129   0.147  1.00  0.00     0.249 C 
HETATM    9  O   UNL     1      50.736 -29.905  -0.868  1.00  0.00    -0.271 OA
HETATM   10  C   UNL     1      47.931 -31.298   3.772  1.00  0.00     0.035 C 
HETATM   11  C   UNL     1      48.757 -31.294   5.059  1.00  0.00     0.002 C 
HETATM   12  C   UNL     1      50.178 -31.816   4.838  1.00  0.00     0.002 C 
HETATM   13  C   UNL     1      50.890 -31.107   3.685  1.00  0.00     0.027 C 
HETATM   14  H   UNL     1      51.727 -30.627   1.181  1.00  0.00     0.163 HD
ENDROOT
BRANCH   1  15
HETATM   15  C   UNL     1      48.134 -28.537  -0.133  1.00  0.00     0.146 C 
BRANCH  15  16
HETATM   16  C   UNL     1      46.771 -28.232   0.407  1.00  0.00     0.224 C 
HETATM   17  N   UNL     1      45.618 -28.258  -0.292  1.00  0.00    -0.325 N 
HETATM   18  H   UNL     1      44.829 -27.996   0.301  1.00  0.00     0.169 HD
HETATM   19  O   UNL     1      46.730 -27.796   1.569  1.00  0.00    -0.273 OA
BRANCH  17  20
HETATM   20  C   UNL     1      45.219 -28.557  -1.611  1.00  0.00     0.073 A 
HETATM   21  C   UNL     1      45.519 -27.844  -2.766  1.00  0.00     0.033 A 
HETATM   22  C   UNL     1      45.023 -28.266  -4.010  1.00  0.00     0.002 A 
HETATM   23  C   UNL     1      44.231 -29.408  -4.118  1.00  0.00     0.003 A 
HETATM   24  C   UNL     1      43.926 -30.137  -2.975  1.00  0.00     0.044 A 
HETATM   25  C   UNL     1      44.418 -29.707  -1.747  1.00  0.00     0.143 A 
HETATM   26  F   UNL     1      44.102 -30.410  -0.646  1.00  0.00    -0.204 F 
ENDBRANCH  17  20
ENDBRANCH  15  16
ENDBRANCH   1  15
TORSDOF 3
ENDMDL
