MODEL 1
REMARK VINA RESULT:      -7.0      0.000      0.000
REMARK  6 active torsions:
REMARK  status: ('A' for Active; 'I' for Inactive)
REMARK    1  A    between atoms: C_2  and  C_3 
REMARK    2  A    between atoms: C_3  and  N_4 
REMARK    3  A    between atoms: C_3  and  C_15 
REMARK       I    between atoms: N_4  and  C_5 
REMARK       I    between atoms: C_5  and  N_6 
REMARK    4  A    between atoms: N_6  and  C_7 
REMARK    5  A    between atoms: C_16  and  O_17 
REMARK    6  A    between atoms: O_17  and  C_18 
ROOT
HETATM    1  N   UNL     1      42.354 -15.084   3.844  1.00  0.00    -0.334 N 
HETATM    2  C   UNL     1      42.606 -13.756   4.087  1.00  0.00     0.321 C 
HETATM    3  N   UNL     1      42.000 -13.355   5.256  1.00  0.00    -0.307 N 
HETATM    4  O   UNL     1      43.323 -13.071   3.371  1.00  0.00    -0.247 OA
HETATM    5  H   UNL     1      41.484 -15.469   4.182  1.00  0.00     0.165 HD
HETATM    6  H   UNL     1      41.715 -14.114   5.854  1.00  0.00     0.170 HD
ENDROOT
BRANCH   1   7
HETATM    7  C   UNL     1      42.957 -15.805   2.735  1.00  0.00     0.122 C 
BRANCH   7   8
HETATM    8  C   UNL     1      42.146 -15.726   1.424  1.00  0.00     0.026 C 
HETATM    9  C   UNL     1      40.634 -15.643   1.582  1.00  0.00     0.007 C 
ENDBRANCH   7   8
BRANCH   7  10
HETATM   10  C   UNL     1      43.327 -17.231   3.132  1.00  0.00    -0.002 A 
HETATM   11  C   UNL     1      43.934 -17.574   4.359  1.00  0.00     0.077 A 
HETATM   12  C   UNL     1      44.257 -18.911   4.626  1.00  0.00     0.037 A 
HETATM   13  C   UNL     1      43.962 -19.912   3.701  1.00  0.00     0.003 A 
HETATM   14  C   UNL     1      43.345 -19.590   2.498  1.00  0.00     0.001 A 
HETATM   15  C   UNL     1      43.030 -18.261   2.217  1.00  0.00     0.012 A 
BRANCH  11  16
HETATM   16  O   UNL     1      44.216 -16.544   5.225  1.00  0.00    -0.351 OA
BRANCH  16  17
HETATM   17  C   UNL     1      44.140 -16.843   6.621  1.00  0.00     0.171 C 
HETATM   18  C   UNL     1      42.749 -16.476   7.105  1.00  0.00     0.034 C 
ENDBRANCH  16  17
ENDBRANCH  11  16
ENDBRANCH   7  10
ENDBRANCH   1   7
BRANCH   3  19
HETATM   19  C   UNL     1      41.990 -12.052   5.802  1.00  0.00     0.059 A 
HETATM   20  C   UNL     1      43.054 -11.637   6.624  1.00  0.00    -0.032 A 
HETATM   21  C   UNL     1      44.237 -12.516   6.920  1.00  0.00     0.050 C 
HETATM   22  C   UNL     1      43.020 -10.345   7.169  1.00  0.00     0.028 A 
HETATM   23  C   UNL     1      41.941  -9.523   6.889  1.00  0.00     0.117 A 
HETATM   24  N   UNL     1      40.905  -9.891   6.115  1.00  0.00    -0.271 NA
HETATM   25  C   UNL     1      40.954 -11.141   5.587  1.00  0.00     0.146 A 
ENDBRANCH   3  19
TORSDOF 6
ENDMDL
MODEL 2
REMARK VINA RESULT:      -6.9      2.400      6.695
REMARK  6 active torsions:
REMARK  status: ('A' for Active; 'I' for Inactive)
REMARK    1  A    between atoms: C_2  and  C_3 
REMARK    2  A    between atoms: C_3  and  N_4 
REMARK    3  A    between atoms: C_3  and  C_15 
REMARK       I    between atoms: N_4  and  C_5 
REMARK       I    between atoms: C_5  and  N_6 
REMARK    4  A    between atoms: N_6  and  C_7 
REMARK    5  A    between atoms: C_16  and  O_17 
REMARK    6  A    between atoms: O_17  and  C_18 
ROOT
HETATM    1  N   UNL     1      42.439 -15.236   2.079  1.00  0.00    -0.334 N 
HETATM    2  C   UNL     1      42.291 -16.447   2.712  1.00  0.00     0.321 C 
HETATM    3  N   UNL     1      43.407 -17.229   2.524  1.00  0.00    -0.307 N 
HETATM    4  O   UNL     1      41.312 -16.731   3.388  1.00  0.00    -0.247 OA
HETATM    5  H   UNL     1      43.009 -15.206   1.246  1.00  0.00     0.165 HD
HETATM    6  H   UNL     1      44.218 -16.722   2.206  1.00  0.00     0.170 HD
ENDROOT
BRANCH   1   7
HETATM    7  C   UNL     1      41.461 -14.168   2.197  1.00  0.00     0.122 C 
BRANCH   7   8
HETATM    8  C   UNL     1      41.024 -13.569   0.843  1.00  0.00     0.026 C 
HETATM    9  C   UNL     1      40.217 -14.489  -0.061  1.00  0.00     0.007 C 
ENDBRANCH   7   8
BRANCH   7  10
HETATM   10  C   UNL     1      41.905 -13.114   3.208  1.00  0.00    -0.002 A 
HETATM   11  C   UNL     1      41.363 -12.992   4.505  1.00  0.00     0.077 A 
HETATM   12  C   UNL     1      41.820 -11.977   5.357  1.00  0.00     0.037 A 
HETATM   13  C   UNL     1      42.825 -11.101   4.945  1.00  0.00     0.003 A 
HETATM   14  C   UNL     1      43.380 -11.225   3.677  1.00  0.00     0.001 A 
HETATM   15  C   UNL     1      42.925 -12.224   2.817  1.00  0.00     0.012 A 
BRANCH  11  16
HETATM   16  O   UNL     1      40.366 -13.872   4.851  1.00  0.00    -0.351 OA
BRANCH  16  17
HETATM   17  C   UNL     1      40.282 -14.235   6.231  1.00  0.00     0.171 C 
HETATM   18  C   UNL     1      41.269 -15.361   6.481  1.00  0.00     0.034 C 
ENDBRANCH  16  17
ENDBRANCH  11  16
ENDBRANCH   7  10
ENDBRANCH   1   7
BRANCH   3  19
HETATM   19  C   UNL     1      43.599 -18.554   2.977  1.00  0.00     0.059 A 
HETATM   20  C   UNL     1      44.030 -18.779   4.297  1.00  0.00    -0.032 A 
HETATM   21  C   UNL     1      44.259 -17.661   5.275  1.00  0.00     0.050 C 
HETATM   22  C   UNL     1      44.228 -20.100   4.725  1.00  0.00     0.028 A 
HETATM   23  C   UNL     1      44.006 -21.138   3.836  1.00  0.00     0.117 A 
HETATM   24  N   UNL     1      43.603 -20.957   2.565  1.00  0.00    -0.271 NA
HETATM   25  C   UNL     1      43.405 -19.674   2.167  1.00  0.00     0.146 A 
ENDBRANCH   3  19
TORSDOF 6
ENDMDL
MODEL 3
REMARK VINA RESULT:      -6.8      2.164      3.286
REMARK  6 active torsions:
REMARK  status: ('A' for Active; 'I' for Inactive)
REMARK    1  A    between atoms: C_2  and  C_3 
REMARK    2  A    between atoms: C_3  and  N_4 
REMARK    3  A    between atoms: C_3  and  C_15 
REMARK       I    between atoms: N_4  and  C_5 
REMARK       I    between atoms: C_5  and  N_6 
REMARK    4  A    between atoms: N_6  and  C_7 
REMARK    5  A    between atoms: C_16  and  O_17 
REMARK    6  A    between atoms: O_17  and  C_18 
ROOT
HETATM    1  N   UNL     1      42.449 -12.873   4.921  1.00  0.00    -0.334 N 
HETATM    2  C   UNL     1      43.268 -11.805   5.199  1.00  0.00     0.321 C 
HETATM    3  N   UNL     1      43.598 -11.785   6.535  1.00  0.00    -0.307 N 
HETATM    4  O   UNL     1      43.674 -11.034   4.341  1.00  0.00    -0.247 OA
HETATM    5  H   UNL     1      41.835 -13.200   5.653  1.00  0.00     0.165 HD
HETATM    6  H   UNL     1      43.425 -12.653   7.017  1.00  0.00     0.170 HD
ENDROOT
BRANCH   1   7
HETATM    7  C   UNL     1      42.030 -13.206   3.570  1.00  0.00     0.122 C 
BRANCH   7   8
HETATM    8  C   UNL     1      40.546 -12.893   3.282  1.00  0.00     0.026 C 
HETATM    9  C   UNL     1      39.678 -12.610   4.499  1.00  0.00     0.007 C 
ENDBRANCH   7   8
BRANCH   7  10
HETATM   10  C   UNL     1      42.430 -14.630   3.198  1.00  0.00    -0.002 A 
HETATM   11  C   UNL     1      42.195 -15.754   4.019  1.00  0.00     0.077 A 
HETATM   12  C   UNL     1      42.619 -17.023   3.600  1.00  0.00     0.037 A 
HETATM   13  C   UNL     1      43.250 -17.191   2.367  1.00  0.00     0.003 A 
HETATM   14  C   UNL     1      43.468 -16.095   1.541  1.00  0.00     0.001 A 
HETATM   15  C   UNL     1      43.060 -14.827   1.953  1.00  0.00     0.012 A 
BRANCH  11  16
HETATM   16  O   UNL     1      41.585 -15.526   5.229  1.00  0.00    -0.351 OA
BRANCH  16  17
HETATM   17  C   UNL     1      41.938 -16.405   6.300  1.00  0.00     0.171 C 
HETATM   18  C   UNL     1      42.728 -15.608   7.321  1.00  0.00     0.034 C 
ENDBRANCH  16  17
ENDBRANCH  11  16
ENDBRANCH   7  10
ENDBRANCH   1   7
BRANCH   3  19
HETATM   19  C   UNL     1      44.375 -10.810   7.201  1.00  0.00     0.059 A 
HETATM   20  C   UNL     1      43.734  -9.739   7.851  1.00  0.00    -0.032 A 
HETATM   21  C   UNL     1      42.238  -9.603   7.904  1.00  0.00     0.050 C 
HETATM   22  C   UNL     1      44.522  -8.774   8.495  1.00  0.00     0.028 A 
HETATM   23  C   UNL     1      45.901  -8.899   8.464  1.00  0.00     0.117 A 
HETATM   24  N   UNL     1      46.545  -9.904   7.846  1.00  0.00    -0.271 NA
HETATM   25  C   UNL     1      45.770 -10.837   7.233  1.00  0.00     0.146 A 
ENDBRANCH   3  19
TORSDOF 6
ENDMDL
MODEL 4
REMARK VINA RESULT:      -6.8      2.233      3.811
REMARK  6 active torsions:
REMARK  status: ('A' for Active; 'I' for Inactive)
REMARK    1  A    between atoms: C_2  and  C_3 
REMARK    2  A    between atoms: C_3  and  N_4 
REMARK    3  A    between atoms: C_3  and  C_15 
REMARK       I    between atoms: N_4  and  C_5 
REMARK       I    between atoms: C_5  and  N_6 
REMARK    4  A    between atoms: N_6  and  C_7 
REMARK    5  A    between atoms: C_16  and  O_17 
REMARK    6  A    between atoms: O_17  and  C_18 
ROOT
HETATM    1  N   UNL     1      42.883 -14.045   6.004  1.00  0.00    -0.334 N 
HETATM    2  C   UNL     1      43.091 -12.712   6.264  1.00  0.00     0.321 C 
HETATM    3  N   UNL     1      44.069 -12.554   7.219  1.00  0.00    -0.307 N 
HETATM    4  O   UNL     1      42.510 -11.817   5.667  1.00  0.00    -0.247 OA
HETATM    5  H   UNL     1      43.044 -14.703   6.753  1.00  0.00     0.165 HD
HETATM    6  H   UNL     1      44.637 -13.374   7.369  1.00  0.00     0.170 HD
ENDROOT
BRANCH   1   7
HETATM    7  C   UNL     1      41.982 -14.507   4.961  1.00  0.00     0.122 C 
BRANCH   7   8
HETATM    8  C   UNL     1      40.526 -14.703   5.434  1.00  0.00     0.026 C 
HETATM    9  C   UNL     1      40.319 -15.728   6.539  1.00  0.00     0.007 C 
ENDBRANCH   7   8
BRANCH   7  10
HETATM   10  C   UNL     1      42.550 -15.722   4.232  1.00  0.00    -0.002 A 
HETATM   11  C   UNL     1      42.295 -16.015   2.876  1.00  0.00     0.077 A 
HETATM   12  C   UNL     1      42.844 -17.169   2.298  1.00  0.00     0.037 A 
HETATM   13  C   UNL     1      43.661 -18.018   3.044  1.00  0.00     0.003 A 
HETATM   14  C   UNL     1      43.936 -17.728   4.376  1.00  0.00     0.001 A 
HETATM   15  C   UNL     1      43.385 -16.590   4.964  1.00  0.00     0.012 A 
BRANCH  11  16
HETATM   16  O   UNL     1      41.471 -15.152   2.194  1.00  0.00    -0.351 OA
BRANCH  16  17
HETATM   17  C   UNL     1      40.267 -15.706   1.657  1.00  0.00     0.171 C 
HETATM   18  C   UNL     1      39.991 -15.030   0.327  1.00  0.00     0.034 C 
ENDBRANCH  16  17
ENDBRANCH  11  16
ENDBRANCH   7  10
ENDBRANCH   1   7
BRANCH   3  19
HETATM   19  C   UNL     1      44.516 -11.337   7.781  1.00  0.00     0.059 A 
HETATM   20  C   UNL     1      45.693 -10.740   7.292  1.00  0.00    -0.032 A 
HETATM   21  C   UNL     1      46.486 -11.324   6.157  1.00  0.00     0.050 C 
HETATM   22  C   UNL     1      46.129  -9.539   7.871  1.00  0.00     0.028 A 
HETATM   23  C   UNL     1      45.397  -8.985   8.908  1.00  0.00     0.117 A 
HETATM   24  N   UNL     1      44.274  -9.534   9.404  1.00  0.00    -0.271 NA
HETATM   25  C   UNL     1      43.858 -10.691   8.829  1.00  0.00     0.146 A 
ENDBRANCH   3  19
TORSDOF 6
ENDMDL
MODEL 5
REMARK VINA RESULT:      -6.7      3.512      6.531
REMARK  6 active torsions:
REMARK  status: ('A' for Active; 'I' for Inactive)
REMARK    1  A    between atoms: C_2  and  C_3 
REMARK    2  A    between atoms: C_3  and  N_4 
REMARK    3  A    between atoms: C_3  and  C_15 
REMARK       I    between atoms: N_4  and  C_5 
REMARK       I    between atoms: C_5  and  N_6 
REMARK    4  A    between atoms: N_6  and  C_7 
REMARK    5  A    between atoms: C_16  and  O_17 
REMARK    6  A    between atoms: O_17  and  C_18 
ROOT
HETATM    1  N   UNL     1      42.172 -14.876   1.255  1.00  0.00    -0.334 N 
HETATM    2  C   UNL     1      40.905 -14.915   0.725  1.00  0.00     0.321 C 
HETATM    3  N   UNL     1      40.825 -14.117  -0.393  1.00  0.00    -0.307 N 
HETATM    4  O   UNL     1      40.013 -15.619   1.177  1.00  0.00    -0.247 OA
HETATM    5  H   UNL     1      42.708 -14.029   1.134  1.00  0.00     0.165 HD
HETATM    6  H   UNL     1      41.719 -13.862  -0.784  1.00  0.00     0.170 HD
ENDROOT
BRANCH   1   7
HETATM    7  C   UNL     1      42.576 -15.706   2.378  1.00  0.00     0.122 C 
BRANCH   7   8
HETATM    8  C   UNL     1      42.258 -17.205   2.193  1.00  0.00     0.026 C 
HETATM    9  C   UNL     1      43.383 -18.170   2.538  1.00  0.00     0.007 C 
ENDBRANCH   7   8
BRANCH   7  10
HETATM   10  C   UNL     1      42.068 -15.139   3.701  1.00  0.00    -0.002 A 
HETATM   11  C   UNL     1      42.420 -13.866   4.198  1.00  0.00     0.077 A 
HETATM   12  C   UNL     1      41.920 -13.440   5.437  1.00  0.00     0.037 A 
HETATM   13  C   UNL     1      41.057 -14.253   6.172  1.00  0.00     0.003 A 
HETATM   14  C   UNL     1      40.687 -15.500   5.683  1.00  0.00     0.001 A 
HETATM   15  C   UNL     1      41.188 -15.938   4.457  1.00  0.00     0.012 A 
BRANCH  11  16
HETATM   16  O   UNL     1      43.286 -13.117   3.438  1.00  0.00    -0.351 OA
BRANCH  16  17
HETATM   17  C   UNL     1      43.073 -11.703   3.432  1.00  0.00     0.171 C 
HETATM   18  C   UNL     1      42.188 -11.366   2.246  1.00  0.00     0.034 C 
ENDBRANCH  16  17
ENDBRANCH  11  16
ENDBRANCH   7  10
ENDBRANCH   1   7
BRANCH   3  19
HETATM   19  C   UNL     1      39.674 -13.863  -1.173  1.00  0.00     0.059 A 
HETATM   20  C   UNL     1      38.872 -12.745  -0.880  1.00  0.00    -0.032 A 
HETATM   21  C   UNL     1      39.209 -11.772   0.215  1.00  0.00     0.050 C 
HETATM   22  C   UNL     1      37.725 -12.517  -1.655  1.00  0.00     0.028 A 
HETATM   23  C   UNL     1      37.414 -13.400  -2.676  1.00  0.00     0.117 A 
HETATM   24  N   UNL     1      38.154 -14.482  -2.977  1.00  0.00    -0.271 NA
HETATM   25  C   UNL     1      39.266 -14.687  -2.224  1.00  0.00     0.146 A 
ENDBRANCH   3  19
TORSDOF 6
ENDMDL
MODEL 6
REMARK VINA RESULT:      -6.7      2.010      3.934
REMARK  6 active torsions:
REMARK  status: ('A' for Active; 'I' for Inactive)
REMARK    1  A    between atoms: C_2  and  C_3 
REMARK    2  A    between atoms: C_3  and  N_4 
REMARK    3  A    between atoms: C_3  and  C_15 
REMARK       I    between atoms: N_4  and  C_5 
REMARK       I    between atoms: C_5  and  N_6 
REMARK    4  A    between atoms: N_6  and  C_7 
REMARK    5  A    between atoms: C_16  and  O_17 
REMARK    6  A    between atoms: O_17  and  C_18 
ROOT
HETATM    1  N   UNL     1      41.907 -14.690   5.444  1.00  0.00    -0.334 N 
HETATM    2  C   UNL     1      40.853 -13.857   5.732  1.00  0.00     0.321 C 
HETATM    3  N   UNL     1      41.077 -12.601   5.217  1.00  0.00    -0.307 N 
HETATM    4  O   UNL     1      39.846 -14.232   6.317  1.00  0.00    -0.247 OA
HETATM    5  H   UNL     1      42.824 -14.278   5.356  1.00  0.00     0.165 HD
HETATM    6  H   UNL     1      41.802 -12.563   4.519  1.00  0.00     0.170 HD
ENDROOT
BRANCH   1   7
HETATM    7  C   UNL     1      41.896 -16.106   5.771  1.00  0.00     0.122 C 
BRANCH   7   8
HETATM    8  C   UNL     1      42.413 -16.423   7.191  1.00  0.00     0.026 C 
HETATM    9  C   UNL     1      43.111 -15.281   7.914  1.00  0.00     0.007 C 
ENDBRANCH   7   8
BRANCH   7  10
HETATM   10  C   UNL     1      42.573 -16.935   4.683  1.00  0.00    -0.002 A 
HETATM   11  C   UNL     1      42.184 -16.920   3.327  1.00  0.00     0.077 A 
HETATM   12  C   UNL     1      42.853 -17.734   2.402  1.00  0.00     0.037 A 
HETATM   13  C   UNL     1      43.918 -18.541   2.804  1.00  0.00     0.003 A 
HETATM   14  C   UNL     1      44.324 -18.547   4.134  1.00  0.00     0.001 A 
HETATM   15  C   UNL     1      43.657 -17.751   5.064  1.00  0.00     0.012 A 
BRANCH  11  16
HETATM   16  O   UNL     1      41.119 -16.119   2.991  1.00  0.00    -0.351 OA
BRANCH  16  17
HETATM   17  C   UNL     1      41.285 -15.281   1.845  1.00  0.00     0.171 C 
HETATM   18  C   UNL     1      40.022 -15.375   1.008  1.00  0.00     0.034 C 
ENDBRANCH  16  17
ENDBRANCH  11  16
ENDBRANCH   7  10
ENDBRANCH   1   7
BRANCH   3  19
HETATM   19  C   UNL     1      40.245 -11.467   5.358  1.00  0.00     0.059 A 
HETATM   20  C   UNL     1      39.346 -11.135   4.327  1.00  0.00    -0.032 A 
HETATM   21  C   UNL     1      39.200 -11.966   3.083  1.00  0.00     0.050 C 
HETATM   22  C   UNL     1      38.538  -9.999   4.477  1.00  0.00     0.028 A 
HETATM   23  C   UNL     1      38.655  -9.235   5.627  1.00  0.00     0.117 A 
HETATM   24  N   UNL     1      39.509  -9.519   6.626  1.00  0.00    -0.271 NA
HETATM   25  C   UNL     1      40.279 -10.627   6.472  1.00  0.00     0.146 A 
ENDBRANCH   3  19
TORSDOF 6
ENDMDL
MODEL 7
REMARK VINA RESULT:      -6.5      2.616      5.237
REMARK  6 active torsions:
REMARK  status: ('A' for Active; 'I' for Inactive)
REMARK    1  A    between atoms: C_2  and  C_3 
REMARK    2  A    between atoms: C_3  and  N_4 
REMARK    3  A    between atoms: C_3  and  C_15 
REMARK       I    between atoms: N_4  and  C_5 
REMARK       I    between atoms: C_5  and  N_6 
REMARK    4  A    between atoms: N_6  and  C_7 
REMARK    5  A    between atoms: C_16  and  O_17 
REMARK    6  A    between atoms: O_17  and  C_18 
ROOT
HETATM    1  N   UNL     1      41.930 -16.014   3.007  1.00  0.00    -0.334 N 
HETATM    2  C   UNL     1      41.782 -15.130   1.966  1.00  0.00     0.321 C 
HETATM    3  N   UNL     1      40.449 -14.914   1.703  1.00  0.00    -0.307 N 
HETATM    4  O   UNL     1      42.727 -14.587   1.412  1.00  0.00    -0.247 OA
HETATM    5  H   UNL     1      41.215 -16.714   3.137  1.00  0.00     0.165 HD
HETATM    6  H   UNL     1      39.829 -15.203   2.443  1.00  0.00     0.170 HD
ENDROOT
BRANCH   1   7
HETATM    7  C   UNL     1      43.227 -16.346   3.572  1.00  0.00     0.122 C 
BRANCH   7   8
HETATM    8  C   UNL     1      43.788 -17.702   3.095  1.00  0.00     0.026 C 
HETATM    9  C   UNL     1      42.842 -18.558   2.264  1.00  0.00     0.007 C 
ENDBRANCH   7   8
BRANCH   7  10
HETATM   10  C   UNL     1      43.230 -16.192   5.090  1.00  0.00    -0.002 A 
HETATM   11  C   UNL     1      42.979 -14.974   5.758  1.00  0.00     0.077 A 
HETATM   12  C   UNL     1      43.025 -14.925   7.158  1.00  0.00     0.037 A 
HETATM   13  C   UNL     1      43.291 -16.076   7.901  1.00  0.00     0.003 A 
HETATM   14  C   UNL     1      43.518 -17.285   7.256  1.00  0.00     0.001 A 
HETATM   15  C   UNL     1      43.487 -17.342   5.863  1.00  0.00     0.012 A 
BRANCH  11  16
HETATM   16  O   UNL     1      42.738 -13.871   4.974  1.00  0.00    -0.351 OA
BRANCH  16  17
HETATM   17  C   UNL     1      41.695 -12.994   5.406  1.00  0.00     0.171 C 
HETATM   18  C   UNL     1      40.399 -13.783   5.431  1.00  0.00     0.034 C 
ENDBRANCH  16  17
ENDBRANCH  11  16
ENDBRANCH   7  10
ENDBRANCH   1   7
BRANCH   3  19
HETATM   19  C   UNL     1      39.907 -14.112   0.673  1.00  0.00     0.059 A 
HETATM   20  C   UNL     1      39.467 -12.809   0.968  1.00  0.00    -0.032 A 
HETATM   21  C   UNL     1      39.584 -12.207   2.340  1.00  0.00     0.050 C 
HETATM   22  C   UNL     1      38.920 -12.033  -0.064  1.00  0.00     0.028 A 
HETATM   23  C   UNL     1      38.821 -12.574  -1.336  1.00  0.00     0.117 A 
HETATM   24  N   UNL     1      39.224 -13.817  -1.650  1.00  0.00    -0.271 NA
HETATM   25  C   UNL     1      39.761 -14.555  -0.643  1.00  0.00     0.146 A 
ENDBRANCH   3  19
TORSDOF 6
ENDMDL
MODEL 8
REMARK VINA RESULT:      -6.3      2.779      7.061
REMARK  6 active torsions:
REMARK  status: ('A' for Active; 'I' for Inactive)
REMARK    1  A    between atoms: C_2  and  C_3 
REMARK    2  A    between atoms: C_3  and  N_4 
REMARK    3  A    between atoms: C_3  and  C_15 
REMARK       I    between atoms: N_4  and  C_5 
REMARK       I    between atoms: C_5  and  N_6 
REMARK    4  A    between atoms: N_6  and  C_7 
REMARK    5  A    between atoms: C_16  and  O_17 
REMARK    6  A    between atoms: O_17  and  C_18 
ROOT
HETATM    1  N   UNL     1      40.483 -13.731   3.740  1.00  0.00    -0.334 N 
HETATM    2  C   UNL     1      41.649 -14.393   4.040  1.00  0.00     0.321 C 
HETATM    3  N   UNL     1      41.422 -15.745   4.150  1.00  0.00    -0.307 N 
HETATM    4  O   UNL     1      42.730 -13.830   4.132  1.00  0.00    -0.247 OA
HETATM    5  H   UNL     1      39.616 -14.127   4.075  1.00  0.00     0.165 HD
HETATM    6  H   UNL     1      40.550 -16.052   3.749  1.00  0.00     0.170 HD
ENDROOT
BRANCH   1   7
HETATM    7  C   UNL     1      40.442 -12.306   3.460  1.00  0.00     0.122 C 
BRANCH   7   8
HETATM    8  C   UNL     1      40.153 -11.433   4.699  1.00  0.00     0.026 C 
HETATM    9  C   UNL     1      39.553 -12.156   5.896  1.00  0.00     0.007 C 
ENDBRANCH   7   8
BRANCH   7  10
HETATM   10  C   UNL     1      39.528 -11.996   2.277  1.00  0.00    -0.002 A 
HETATM   11  C   UNL     1      39.708 -12.528   0.983  1.00  0.00     0.077 A 
HETATM   12  C   UNL     1      38.828 -12.168  -0.047  1.00  0.00     0.037 A 
HETATM   13  C   UNL     1      37.759 -11.308   0.200  1.00  0.00     0.003 A 
HETATM   14  C   UNL     1      37.558 -10.794   1.476  1.00  0.00     0.001 A 
HETATM   15  C   UNL     1      38.435 -11.136   2.505  1.00  0.00     0.012 A 
BRANCH  11  16
HETATM   16  O   UNL     1      40.788 -13.358   0.794  1.00  0.00    -0.351 OA
BRANCH  16  17
HETATM   17  C   UNL     1      40.566 -14.528   0.003  1.00  0.00     0.171 C 
HETATM   18  C   UNL     1      39.884 -15.564   0.877  1.00  0.00     0.034 C 
ENDBRANCH  16  17
ENDBRANCH  11  16
ENDBRANCH   7  10
ENDBRANCH   1   7
BRANCH   3  19
HETATM   19  C   UNL     1      42.365 -16.737   4.501  1.00  0.00     0.059 A 
HETATM   20  C   UNL     1      43.113 -17.369   3.491  1.00  0.00    -0.032 A 
HETATM   21  C   UNL     1      42.981 -17.005   2.038  1.00  0.00     0.050 C 
HETATM   22  C   UNL     1      44.035 -18.361   3.856  1.00  0.00     0.028 A 
HETATM   23  C   UNL     1      44.174 -18.694   5.193  1.00  0.00     0.117 A 
HETATM   24  N   UNL     1      43.470 -18.116   6.182  1.00  0.00    -0.271 NA
HETATM   25  C   UNL     1      42.587 -17.151   5.816  1.00  0.00     0.146 A 
ENDBRANCH   3  19
TORSDOF 6
ENDMDL
MODEL 9
REMARK VINA RESULT:      -6.3     15.632     17.678
REMARK  6 active torsions:
REMARK  status: ('A' for Active; 'I' for Inactive)
REMARK    1  A    between atoms: C_2  and  C_3 
REMARK    2  A    between atoms: C_3  and  N_4 
REMARK    3  A    between atoms: C_3  and  C_15 
REMARK       I    between atoms: N_4  and  C_5 
REMARK       I    between atoms: C_5  and  N_6 
REMARK    4  A    between atoms: N_6  and  C_7 
REMARK    5  A    between atoms: C_16  and  O_17 
REMARK    6  A    between atoms: O_17  and  C_18 
ROOT
HETATM    1  N   UNL     1      48.566 -30.726  -0.527  1.00  0.00    -0.334 N 
HETATM    2  C   UNL     1      47.938 -30.148  -1.604  1.00  0.00     0.321 C 
HETATM    3  N   UNL     1      46.716 -30.740  -1.825  1.00  0.00    -0.307 N 
HETATM    4  O   UNL     1      48.407 -29.202  -2.222  1.00  0.00    -0.247 OA
HETATM    5  H   UNL     1      48.373 -31.698  -0.334  1.00  0.00     0.165 HD
HETATM    6  H   UNL     1      46.372 -31.281  -1.047  1.00  0.00     0.170 HD
ENDROOT
BRANCH   1   7
HETATM    7  C   UNL     1      49.826 -30.230   0.002  1.00  0.00     0.122 C 
BRANCH   7   8
HETATM    8  C   UNL     1      51.065 -30.984  -0.527  1.00  0.00     0.026 C 
HETATM    9  C   UNL     1      51.486 -30.653  -1.951  1.00  0.00     0.007 C 
ENDBRANCH   7   8
BRANCH   7  10
HETATM   10  C   UNL     1      49.788 -30.123   1.523  1.00  0.00    -0.002 A 
HETATM   11  C   UNL     1      48.775 -29.450   2.240  1.00  0.00     0.077 A 
HETATM   12  C   UNL     1      48.837 -29.386   3.639  1.00  0.00     0.037 A 
HETATM   13  C   UNL     1      49.877 -30.003   4.333  1.00  0.00     0.003 A 
HETATM   14  C   UNL     1      50.869 -30.686   3.640  1.00  0.00     0.001 A 
HETATM   15  C   UNL     1      50.824 -30.746   2.248  1.00  0.00     0.012 A 
BRANCH  11  16
HETATM   16  O   UNL     1      47.784 -28.848   1.502  1.00  0.00    -0.351 OA
BRANCH  16  17
HETATM   17  C   UNL     1      46.478 -28.822   2.084  1.00  0.00     0.171 C 
HETATM   18  C   UNL     1      45.833 -30.176   1.851  1.00  0.00     0.034 C 
ENDBRANCH  16  17
ENDBRANCH  11  16
ENDBRANCH   7  10
ENDBRANCH   1   7
BRANCH   3  19
HETATM   19  C   UNL     1      45.811 -30.452  -2.871  1.00  0.00     0.059 A 
HETATM   20  C   UNL     1      44.694 -29.635  -2.616  1.00  0.00    -0.032 A 
HETATM   21  C   UNL     1      44.436 -29.015  -1.271  1.00  0.00     0.050 C 
HETATM   22  C   UNL     1      43.799 -29.371  -3.663  1.00  0.00     0.028 A 
HETATM   23  C   UNL     1      44.036 -29.927  -4.909  1.00  0.00     0.117 A 
HETATM   24  N   UNL     1      45.088 -30.717  -5.185  1.00  0.00    -0.271 NA
HETATM   25  C   UNL     1      45.952 -30.958  -4.165  1.00  0.00     0.146 A 
ENDBRANCH   3  19
TORSDOF 6
ENDMDL
MODEL 10
REMARK VINA RESULT:      -6.2      2.498      7.340
REMARK  6 active torsions:
REMARK  status: ('A' for Active; 'I' for Inactive)
REMARK    1  A    between atoms: C_2  and  C_3 
REMARK    2  A    between atoms: C_3  and  N_4 
REMARK    3  A    between atoms: C_3  and  C_15 
REMARK       I    between atoms: N_4  and  C_5 
REMARK       I    between atoms: C_5  and  N_6 
REMARK    4  A    between atoms: N_6  and  C_7 
REMARK    5  A    between atoms: C_16  and  O_17 
REMARK    6  A    between atoms: O_17  and  C_18 
ROOT
HETATM    1  N   UNL     1      42.222 -13.540   3.542  1.00  0.00    -0.334 N 
HETATM    2  C   UNL     1      42.831 -14.648   3.004  1.00  0.00     0.321 C 
HETATM    3  N   UNL     1      42.523 -15.771   3.737  1.00  0.00    -0.307 N 
HETATM    4  O   UNL     1      43.499 -14.611   1.981  1.00  0.00    -0.247 OA
HETATM    5  H   UNL     1      42.057 -13.528   4.538  1.00  0.00     0.165 HD
HETATM    6  H   UNL     1      41.731 -15.660   4.350  1.00  0.00     0.170 HD
ENDROOT
BRANCH   1   7
HETATM    7  C   UNL     1      42.283 -12.231   2.913  1.00  0.00     0.122 C 
BRANCH   7   8
HETATM    8  C   UNL     1      43.351 -11.296   3.518  1.00  0.00     0.026 C 
HETATM    9  C   UNL     1      43.889 -11.697   4.884  1.00  0.00     0.007 C 
ENDBRANCH   7   8
BRANCH   7  10
HETATM   10  C   UNL     1      40.901 -11.590   2.823  1.00  0.00    -0.002 A 
HETATM   11  C   UNL     1      39.847 -12.099   2.034  1.00  0.00     0.077 A 
HETATM   12  C   UNL     1      38.617 -11.428   1.998  1.00  0.00     0.037 A 
HETATM   13  C   UNL     1      38.414 -10.275   2.756  1.00  0.00     0.003 A 
HETATM   14  C   UNL     1      39.437  -9.776   3.554  1.00  0.00     0.001 A 
HETATM   15  C   UNL     1      40.669 -10.429   3.588  1.00  0.00     0.012 A 
BRANCH  11  16
HETATM   16  O   UNL     1      40.110 -13.229   1.296  1.00  0.00    -0.351 OA
BRANCH  16  17
HETATM   17  C   UNL     1      39.680 -13.217  -0.067  1.00  0.00     0.171 C 
HETATM   18  C   UNL     1      39.772 -14.635  -0.601  1.00  0.00     0.034 C 
ENDBRANCH  16  17
ENDBRANCH  11  16
ENDBRANCH   7  10
ENDBRANCH   1   7
BRANCH   3  19
HETATM   19  C   UNL     1      43.006 -17.081   3.522  1.00  0.00     0.059 A 
HETATM   20  C   UNL     1      43.916 -17.643   4.436  1.00  0.00    -0.032 A 
HETATM   21  C   UNL     1      44.375 -16.917   5.670  1.00  0.00     0.050 C 
HETATM   22  C   UNL     1      44.395 -18.939   4.200  1.00  0.00     0.028 A 
HETATM   23  C   UNL     1      43.967 -19.622   3.073  1.00  0.00     0.117 A 
HETATM   24  N   UNL     1      43.106 -19.112   2.176  1.00  0.00    -0.271 NA
HETATM   25  C   UNL     1      42.642 -17.859   2.421  1.00  0.00     0.146 A 
ENDBRANCH   3  19
TORSDOF 6
ENDMDL
