MODEL 1
REMARK VINA RESULT:     -10.2      0.000      0.000
REMARK  4 active torsions:
REMARK  status: ('A' for Active; 'I' for Inactive)
REMARK    1  A    between atoms: C_2  and  C_3 
REMARK    2  A    between atoms: N_16  and  C_17 
REMARK    3  A    between atoms: C_17  and  C_18 
REMARK       I    between atoms: C_18  and  N_19 
REMARK    4  A    between atoms: N_19  and  C_20 
ROOT
HETATM    1  C   UNL     1      43.192 -15.703   7.905  1.00  0.00     0.054 C 
HETATM    2  C   UNL     1      43.144 -15.164   6.472  1.00  0.00     0.140 A 
HETATM    3  N   UNL     1      44.128 -14.110   6.337  1.00  0.00    -0.321 N 
HETATM    4  C   UNL     1      43.566 -12.867   6.180  1.00  0.00     0.326 A 
HETATM    5  O   UNL     1      44.213 -11.839   6.097  1.00  0.00    -0.247 OA
HETATM    6  N   UNL     1      42.215 -13.001   6.158  1.00  0.00    -0.259 N 
HETATM    7  C   UNL     1      41.864 -14.314   6.280  1.00  0.00     0.261 A 
HETATM    8  O   UNL     1      40.709 -14.725   6.239  1.00  0.00    -0.270 OA
HETATM    9  H   UNL     1      45.129 -14.223   6.420  1.00  0.00     0.165 HD
ENDROOT
BRANCH   6  10
HETATM   10  C   UNL     1      41.289 -11.899   6.002  1.00  0.00     0.240 C 
BRANCH  10  11
HETATM   11  C   UNL     1      40.648 -11.919   4.613  1.00  0.00     0.240 C 
HETATM   12  N   UNL     1      41.571 -12.019   3.580  1.00  0.00    -0.325 N 
HETATM   13  H   UNL     1      42.532 -12.197   3.858  1.00  0.00     0.169 HD
HETATM   14  O   UNL     1      39.427 -11.963   4.491  1.00  0.00    -0.271 OA
BRANCH  12  15
HETATM   15  C   UNL     1      41.306 -11.996   2.186  1.00  0.00     0.047 A 
HETATM   16  C   UNL     1      40.814 -13.171   1.534  1.00  0.00     0.019 A 
HETATM   17  C   UNL     1      40.580 -13.142   0.137  1.00  0.00     0.069 A 
HETATM   18  C   UNL     1      40.505 -14.395   2.179  1.00  0.00     0.017 A 
HETATM   19  N   UNL     1      40.104 -14.189  -0.560  1.00  0.00    -0.260 NA
HETATM   20  C   UNL     1      40.842 -11.980  -0.570  1.00  0.00     0.032 A 
HETATM   21  C   UNL     1      39.827 -15.327   0.105  1.00  0.00     0.117 A 
HETATM   22  C   UNL     1      40.007 -15.479   1.461  1.00  0.00     0.020 A 
HETATM   23  C   UNL     1      41.325 -10.836   0.058  1.00  0.00     0.005 A 
HETATM   24  C   UNL     1      41.554 -10.845   1.429  1.00  0.00     0.030 A 
ENDBRANCH  12  15
ENDBRANCH  10  11
ENDBRANCH   6  10
BRANCH   2  25
HETATM   25  C   UNL     1      43.275 -16.255   5.416  1.00  0.00    -0.020 A 
HETATM   26  C   UNL     1      43.561 -17.594   5.746  1.00  0.00     0.022 A 
HETATM   27  C   UNL     1      43.662 -18.596   4.762  1.00  0.00    -0.025 A 
HETATM   28  C   UNL     1      43.481 -18.256   3.405  1.00  0.00    -0.026 A 
HETATM   29  C   UNL     1      43.937 -19.933   5.100  1.00  0.00     0.012 A 
HETATM   30  C   UNL     1      43.215 -16.924   3.067  1.00  0.00     0.013 A 
HETATM   31  C   UNL     1      43.574 -19.256   2.423  1.00  0.00     0.012 A 
HETATM   32  C   UNL     1      43.118 -15.940   4.056  1.00  0.00     0.011 A 
HETATM   33  C   UNL     1      43.844 -20.578   2.777  1.00  0.00     0.001 A 
HETATM   34  C   UNL     1      44.026 -20.916   4.114  1.00  0.00     0.001 A 
ENDBRANCH   2  25
TORSDOF 4
ENDMDL
MODEL 2
REMARK VINA RESULT:     -10.2      1.738      2.856
REMARK  4 active torsions:
REMARK  status: ('A' for Active; 'I' for Inactive)
REMARK    1  A    between atoms: C_2  and  C_3 
REMARK    2  A    between atoms: N_16  and  C_17 
REMARK    3  A    between atoms: C_17  and  C_18 
REMARK       I    between atoms: C_18  and  N_19 
REMARK    4  A    between atoms: N_19  and  C_20 
ROOT
HETATM    1  C   UNL     1      43.403 -14.199   6.170  1.00  0.00     0.054 C 
HETATM    2  C   UNL     1      42.971 -14.294   4.703  1.00  0.00     0.140 A 
HETATM    3  N   UNL     1      43.653 -13.264   3.948  1.00  0.00    -0.321 N 
HETATM    4  C   UNL     1      42.809 -12.276   3.504  1.00  0.00     0.326 A 
HETATM    5  O   UNL     1      43.184 -11.292   2.892  1.00  0.00    -0.247 OA
HETATM    6  N   UNL     1      41.542 -12.585   3.880  1.00  0.00    -0.259 N 
HETATM    7  C   UNL     1      41.521 -13.771   4.555  1.00  0.00     0.261 A 
HETATM    8  O   UNL     1      40.499 -14.313   4.963  1.00  0.00    -0.270 OA
HETATM    9  H   UNL     1      44.651 -13.200   3.805  1.00  0.00     0.165 HD
ENDROOT
BRANCH   6  10
HETATM   10  C   UNL     1      40.381 -11.772   3.582  1.00  0.00     0.240 C 
BRANCH  10  11
HETATM   11  C   UNL     1      39.709 -12.237   2.290  1.00  0.00     0.240 C 
HETATM   12  N   UNL     1      40.593 -12.795   1.376  1.00  0.00    -0.325 N 
HETATM   13  H   UNL     1      41.541 -12.949   1.711  1.00  0.00     0.169 HD
HETATM   14  O   UNL     1      38.486 -12.207   2.178  1.00  0.00    -0.271 OA
BRANCH  12  15
HETATM   15  C   UNL     1      40.298 -13.258   0.067  1.00  0.00     0.047 A 
HETATM   16  C   UNL     1      40.504 -12.397  -1.057  1.00  0.00     0.019 A 
HETATM   17  C   UNL     1      40.178 -12.863  -2.355  1.00  0.00     0.069 A 
HETATM   18  C   UNL     1      41.041 -11.087  -0.995  1.00  0.00     0.017 A 
HETATM   19  N   UNL     1      40.351 -12.133  -3.472  1.00  0.00    -0.260 NA
HETATM   20  C   UNL     1      39.660 -14.138  -2.508  1.00  0.00     0.032 A 
HETATM   21  C   UNL     1      40.868 -10.895  -3.354  1.00  0.00     0.117 A 
HETATM   22  C   UNL     1      41.226 -10.332  -2.150  1.00  0.00     0.020 A 
HETATM   23  C   UNL     1      39.454 -14.978  -1.418  1.00  0.00     0.005 A 
HETATM   24  C   UNL     1      39.773 -14.539  -0.138  1.00  0.00     0.030 A 
ENDBRANCH  12  15
ENDBRANCH  10  11
ENDBRANCH   6  10
BRANCH   2  25
HETATM   25  C   UNL     1      43.143 -15.690   4.116  1.00  0.00    -0.020 A 
HETATM   26  C   UNL     1      43.489 -16.803   4.905  1.00  0.00     0.022 A 
HETATM   27  C   UNL     1      43.627 -18.092   4.355  1.00  0.00    -0.025 A 
HETATM   28  C   UNL     1      43.423 -18.279   2.971  1.00  0.00    -0.026 A 
HETATM   29  C   UNL     1      43.962 -19.200   5.152  1.00  0.00     0.012 A 
HETATM   30  C   UNL     1      43.098 -17.174   2.175  1.00  0.00     0.013 A 
HETATM   31  C   UNL     1      43.553 -19.564   2.421  1.00  0.00     0.012 A 
HETATM   32  C   UNL     1      42.964 -15.901   2.738  1.00  0.00     0.011 A 
HETATM   33  C   UNL     1      43.883 -20.654   3.227  1.00  0.00     0.001 A 
HETATM   34  C   UNL     1      44.088 -20.472   4.592  1.00  0.00     0.001 A 
ENDBRANCH   2  25
TORSDOF 4
ENDMDL
MODEL 3
REMARK VINA RESULT:      -9.9      2.151      3.251
REMARK  4 active torsions:
REMARK  status: ('A' for Active; 'I' for Inactive)
REMARK    1  A    between atoms: C_2  and  C_3 
REMARK    2  A    between atoms: N_16  and  C_17 
REMARK    3  A    between atoms: C_17  and  C_18 
REMARK       I    between atoms: C_18  and  N_19 
REMARK    4  A    between atoms: N_19  and  C_20 
ROOT
HETATM    1  C   UNL     1      43.465 -12.971   6.561  1.00  0.00     0.054 C 
HETATM    2  C   UNL     1      43.004 -13.506   5.201  1.00  0.00     0.140 A 
HETATM    3  N   UNL     1      43.542 -12.655   4.159  1.00  0.00    -0.321 N 
HETATM    4  C   UNL     1      42.579 -11.917   3.517  1.00  0.00     0.326 A 
HETATM    5  O   UNL     1      42.822 -11.104   2.644  1.00  0.00    -0.247 OA
HETATM    6  N   UNL     1      41.367 -12.240   4.036  1.00  0.00    -0.259 N 
HETATM    7  C   UNL     1      41.501 -13.194   5.003  1.00  0.00     0.261 A 
HETATM    8  O   UNL     1      40.559 -13.705   5.601  1.00  0.00    -0.270 OA
HETATM    9  H   UNL     1      44.523 -12.532   3.946  1.00  0.00     0.165 HD
ENDROOT
BRANCH   6  10
HETATM   10  C   UNL     1      40.113 -11.662   3.600  1.00  0.00     0.240 C 
BRANCH  10  11
HETATM   11  C   UNL     1      39.450 -12.540   2.538  1.00  0.00     0.240 C 
HETATM   12  N   UNL     1      39.939 -12.324   1.257  1.00  0.00    -0.325 N 
HETATM   13  H   UNL     1      40.753 -11.718   1.188  1.00  0.00     0.169 HD
HETATM   14  O   UNL     1      38.656 -13.419   2.864  1.00  0.00    -0.271 OA
BRANCH  12  15
HETATM   15  C   UNL     1      39.490 -12.926   0.052  1.00  0.00     0.047 A 
HETATM   16  C   UNL     1      38.541 -12.244  -0.774  1.00  0.00     0.019 A 
HETATM   17  C   UNL     1      38.081 -12.870  -1.959  1.00  0.00     0.069 A 
HETATM   18  C   UNL     1      38.019 -10.951  -0.524  1.00  0.00     0.017 A 
HETATM   19  N   UNL     1      37.203 -12.302  -2.807  1.00  0.00    -0.260 NA
HETATM   20  C   UNL     1      38.551 -14.130  -2.288  1.00  0.00     0.032 A 
HETATM   21  C   UNL     1      36.741 -11.071  -2.519  1.00  0.00     0.117 A 
HETATM   22  C   UNL     1      37.114 -10.360  -1.402  1.00  0.00     0.020 A 
HETATM   23  C   UNL     1      39.471 -14.799  -1.486  1.00  0.00     0.005 A 
HETATM   24  C   UNL     1      39.937 -14.198  -0.323  1.00  0.00     0.030 A 
ENDBRANCH  12  15
ENDBRANCH  10  11
ENDBRANCH   6  10
BRANCH   2  25
HETATM   25  C   UNL     1      43.317 -14.983   5.000  1.00  0.00    -0.020 A 
HETATM   26  C   UNL     1      42.992 -15.668   3.813  1.00  0.00     0.022 A 
HETATM   27  C   UNL     1      43.304 -17.029   3.631  1.00  0.00    -0.025 A 
HETATM   28  C   UNL     1      43.951 -17.737   4.666  1.00  0.00    -0.026 A 
HETATM   29  C   UNL     1      42.986 -17.702   2.439  1.00  0.00     0.012 A 
HETATM   30  C   UNL     1      44.259 -17.069   5.857  1.00  0.00     0.013 A 
HETATM   31  C   UNL     1      44.268 -19.092   4.484  1.00  0.00     0.012 A 
HETATM   32  C   UNL     1      43.945 -15.716   6.022  1.00  0.00     0.011 A 
HETATM   33  C   UNL     1      43.949 -19.744   3.292  1.00  0.00     0.001 A 
HETATM   34  C   UNL     1      43.307 -19.050   2.271  1.00  0.00     0.001 A 
ENDBRANCH   2  25
TORSDOF 4
ENDMDL
MODEL 4
REMARK VINA RESULT:      -9.8      2.500      5.887
REMARK  4 active torsions:
REMARK  status: ('A' for Active; 'I' for Inactive)
REMARK    1  A    between atoms: C_2  and  C_3 
REMARK    2  A    between atoms: N_16  and  C_17 
REMARK    3  A    between atoms: C_17  and  C_18 
REMARK       I    between atoms: C_18  and  N_19 
REMARK    4  A    between atoms: N_19  and  C_20 
ROOT
HETATM    1  C   UNL     1      40.163 -15.327   1.286  1.00  0.00     0.054 C 
HETATM    2  C   UNL     1      40.934 -14.964   2.559  1.00  0.00     0.140 A 
HETATM    3  N   UNL     1      40.004 -14.426   3.530  1.00  0.00    -0.321 N 
HETATM    4  C   UNL     1      40.186 -13.085   3.762  1.00  0.00     0.326 A 
HETATM    5  O   UNL     1      39.481 -12.426   4.505  1.00  0.00    -0.247 OA
HETATM    6  N   UNL     1      41.239 -12.655   3.021  1.00  0.00    -0.259 N 
HETATM    7  C   UNL     1      41.776 -13.689   2.310  1.00  0.00     0.261 A 
HETATM    8  O   UNL     1      42.769 -13.592   1.597  1.00  0.00    -0.270 OA
HETATM    9  H   UNL     1      39.240 -14.930   3.958  1.00  0.00     0.165 HD
ENDROOT
BRANCH   6  10
HETATM   10  C   UNL     1      41.729 -11.292   3.013  1.00  0.00     0.240 C 
BRANCH  10  11
HETATM   11  C   UNL     1      42.966 -11.153   3.902  1.00  0.00     0.240 C 
HETATM   12  N   UNL     1      42.669 -11.088   5.257  1.00  0.00    -0.325 N 
HETATM   13  H   UNL     1      41.700 -11.267   5.509  1.00  0.00     0.169 HD
HETATM   14  O   UNL     1      44.092 -11.222   3.417  1.00  0.00    -0.271 OA
BRANCH  12  15
HETATM   15  C   UNL     1      43.579 -10.893   6.328  1.00  0.00     0.047 A 
HETATM   16  C   UNL     1      43.172 -10.156   7.485  1.00  0.00     0.019 A 
HETATM   17  C   UNL     1      44.101  -9.945   8.534  1.00  0.00     0.069 A 
HETATM   18  C   UNL     1      41.878  -9.619   7.698  1.00  0.00     0.017 A 
HETATM   19  N   UNL     1      43.806  -9.280   9.665  1.00  0.00    -0.260 NA
HETATM   20  C   UNL     1      45.385 -10.449   8.414  1.00  0.00     0.032 A 
HETATM   21  C   UNL     1      42.560  -8.792   9.815  1.00  0.00     0.117 A 
HETATM   22  C   UNL     1      41.569  -8.934   8.870  1.00  0.00     0.020 A 
HETATM   23  C   UNL     1      45.788 -11.162   7.290  1.00  0.00     0.005 A 
HETATM   24  C   UNL     1      44.888 -11.383   6.253  1.00  0.00     0.030 A 
ENDBRANCH  12  15
ENDBRANCH  10  11
ENDBRANCH   6  10
BRANCH   2  25
HETATM   25  C   UNL     1      41.776 -16.114   3.099  1.00  0.00    -0.020 A 
HETATM   26  C   UNL     1      42.033 -17.277   2.349  1.00  0.00     0.022 A 
HETATM   27  C   UNL     1      42.829 -18.325   2.851  1.00  0.00    -0.025 A 
HETATM   28  C   UNL     1      43.379 -18.218   4.146  1.00  0.00    -0.026 A 
HETATM   29  C   UNL     1      43.091 -19.479   2.092  1.00  0.00     0.012 A 
HETATM   30  C   UNL     1      43.111 -17.073   4.907  1.00  0.00     0.013 A 
HETATM   31  C   UNL     1      44.177 -19.259   4.647  1.00  0.00     0.012 A 
HETATM   32  C   UNL     1      42.320 -16.041   4.392  1.00  0.00     0.011 A 
HETATM   33  C   UNL     1      44.430 -20.395   3.878  1.00  0.00     0.001 A 
HETATM   34  C   UNL     1      43.886 -20.505   2.601  1.00  0.00     0.001 A 
ENDBRANCH   2  25
TORSDOF 4
ENDMDL
MODEL 5
REMARK VINA RESULT:      -9.7      2.856      5.821
REMARK  4 active torsions:
REMARK  status: ('A' for Active; 'I' for Inactive)
REMARK    1  A    between atoms: C_2  and  C_3 
REMARK    2  A    between atoms: N_16  and  C_17 
REMARK    3  A    between atoms: C_17  and  C_18 
REMARK       I    between atoms: C_18  and  N_19 
REMARK    4  A    between atoms: N_19  and  C_20 
ROOT
HETATM    1  C   UNL     1      43.580 -12.988   3.427  1.00  0.00     0.054 C 
HETATM    2  C   UNL     1      42.469 -13.904   3.949  1.00  0.00     0.140 A 
HETATM    3  N   UNL     1      41.281 -13.702   3.146  1.00  0.00    -0.321 N 
HETATM    4  C   UNL     1      40.266 -13.084   3.834  1.00  0.00     0.326 A 
HETATM    5  O   UNL     1      39.200 -12.777   3.332  1.00  0.00    -0.247 OA
HETATM    6  N   UNL     1      40.672 -12.874   5.112  1.00  0.00    -0.259 N 
HETATM    7  C   UNL     1      41.936 -13.356   5.296  1.00  0.00     0.261 A 
HETATM    8  O   UNL     1      42.527 -13.344   6.371  1.00  0.00    -0.270 OA
HETATM    9  H   UNL     1      41.193 -13.908   2.161  1.00  0.00     0.165 HD
ENDROOT
BRANCH   6  10
HETATM   10  C   UNL     1      39.860 -12.247   6.133  1.00  0.00     0.240 C 
BRANCH  10  11
HETATM   11  C   UNL     1      40.342 -10.823   6.414  1.00  0.00     0.240 C 
HETATM   12  N   UNL     1      41.441 -10.768   7.260  1.00  0.00    -0.325 N 
HETATM   13  H   UNL     1      41.872 -11.660   7.488  1.00  0.00     0.169 HD
HETATM   14  O   UNL     1      39.843  -9.869   5.822  1.00  0.00    -0.271 OA
BRANCH  12  15
HETATM   15  C   UNL     1      42.081  -9.605   7.764  1.00  0.00     0.047 A 
HETATM   16  C   UNL     1      43.509  -9.552   7.836  1.00  0.00     0.019 A 
HETATM   17  C   UNL     1      44.133  -8.396   8.367  1.00  0.00     0.069 A 
HETATM   18  C   UNL     1      44.388 -10.570   7.390  1.00  0.00     0.017 A 
HETATM   19  N   UNL     1      45.466  -8.247   8.460  1.00  0.00    -0.260 NA
HETATM   20  C   UNL     1      43.348  -7.346   8.813  1.00  0.00     0.032 A 
HETATM   21  C   UNL     1      46.254  -9.247   8.019  1.00  0.00     0.117 A 
HETATM   22  C   UNL     1      45.769 -10.417   7.481  1.00  0.00     0.020 A 
HETATM   23  C   UNL     1      41.959  -7.394   8.750  1.00  0.00     0.005 A 
HETATM   24  C   UNL     1      41.330  -8.518   8.227  1.00  0.00     0.030 A 
ENDBRANCH  12  15
ENDBRANCH  10  11
ENDBRANCH   6  10
BRANCH   2  25
HETATM   25  C   UNL     1      42.892 -15.364   4.049  1.00  0.00    -0.020 A 
HETATM   26  C   UNL     1      42.661 -16.289   3.012  1.00  0.00     0.022 A 
HETATM   27  C   UNL     1      43.073 -17.632   3.108  1.00  0.00    -0.025 A 
HETATM   28  C   UNL     1      43.728 -18.074   4.277  1.00  0.00    -0.026 A 
HETATM   29  C   UNL     1      42.848 -18.546   2.064  1.00  0.00     0.012 A 
HETATM   30  C   UNL     1      43.944 -17.166   5.320  1.00  0.00     0.013 A 
HETATM   31  C   UNL     1      44.146 -19.411   4.371  1.00  0.00     0.012 A 
HETATM   32  C   UNL     1      43.530 -15.835   5.209  1.00  0.00     0.011 A 
HETATM   33  C   UNL     1      43.919 -20.304   3.324  1.00  0.00     0.001 A 
HETATM   34  C   UNL     1      43.269 -19.872   2.171  1.00  0.00     0.001 A 
ENDBRANCH   2  25
TORSDOF 4
ENDMDL
MODEL 6
REMARK VINA RESULT:      -9.7      1.817      1.911
REMARK  4 active torsions:
REMARK  status: ('A' for Active; 'I' for Inactive)
REMARK    1  A    between atoms: C_2  and  C_3 
REMARK    2  A    between atoms: N_16  and  C_17 
REMARK    3  A    between atoms: C_17  and  C_18 
REMARK       I    between atoms: C_18  and  N_19 
REMARK    4  A    between atoms: N_19  and  C_20 
ROOT
HETATM    1  C   UNL     1      43.209 -14.353   7.145  1.00  0.00     0.054 C 
HETATM    2  C   UNL     1      42.842 -14.024   5.694  1.00  0.00     0.140 A 
HETATM    3  N   UNL     1      43.626 -12.885   5.261  1.00  0.00    -0.321 N 
HETATM    4  C   UNL     1      42.871 -11.754   5.073  1.00  0.00     0.326 A 
HETATM    5  O   UNL     1      43.339 -10.675   4.757  1.00  0.00    -0.247 OA
HETATM    6  N   UNL     1      41.570 -12.055   5.316  1.00  0.00    -0.259 N 
HETATM    7  C   UNL     1      41.439 -13.372   5.649  1.00  0.00     0.261 A 
HETATM    8  O   UNL     1      40.365 -13.923   5.868  1.00  0.00    -0.270 OA
HETATM    9  H   UNL     1      44.632 -12.862   5.169  1.00  0.00     0.165 HD
ENDROOT
BRANCH   6  10
HETATM   10  C   UNL     1      40.481 -11.107   5.212  1.00  0.00     0.240 C 
BRANCH  10  11
HETATM   11  C   UNL     1      40.160 -10.805   3.747  1.00  0.00     0.240 C 
HETATM   12  N   UNL     1      39.090 -11.538   3.253  1.00  0.00    -0.325 N 
HETATM   13  H   UNL     1      38.570 -12.082   3.936  1.00  0.00     0.169 HD
HETATM   14  O   UNL     1      40.746  -9.903   3.155  1.00  0.00    -0.271 OA
BRANCH  12  15
HETATM   15  C   UNL     1      38.589 -11.539   1.925  1.00  0.00     0.047 A 
HETATM   16  C   UNL     1      39.063 -12.507   0.984  1.00  0.00     0.019 A 
HETATM   17  C   UNL     1      38.575 -12.477  -0.346  1.00  0.00     0.069 A 
HETATM   18  C   UNL     1      39.989 -13.541   1.272  1.00  0.00     0.017 A 
HETATM   19  N   UNL     1      38.949 -13.354  -1.295  1.00  0.00    -0.260 NA
HETATM   20  C   UNL     1      37.656 -11.508  -0.709  1.00  0.00     0.032 A 
HETATM   21  C   UNL     1      39.831 -14.317  -0.965  1.00  0.00     0.117 A 
HETATM   22  C   UNL     1      40.374 -14.453   0.293  1.00  0.00     0.020 A 
HETATM   23  C   UNL     1      37.194 -10.561   0.200  1.00  0.00     0.005 A 
HETATM   24  C   UNL     1      37.658 -10.579   1.511  1.00  0.00     0.030 A 
ENDBRANCH  12  15
ENDBRANCH  10  11
ENDBRANCH   6  10
BRANCH   2  25
HETATM   25  C   UNL     1      42.951 -15.224   4.761  1.00  0.00    -0.020 A 
HETATM   26  C   UNL     1      43.430 -16.475   5.194  1.00  0.00     0.022 A 
HETATM   27  C   UNL     1      43.508 -17.582   4.327  1.00  0.00    -0.025 A 
HETATM   28  C   UNL     1      43.105 -17.439   2.982  1.00  0.00    -0.026 A 
HETATM   29  C   UNL     1      43.978 -18.831   4.770  1.00  0.00     0.012 A 
HETATM   30  C   UNL     1      42.646 -16.193   2.539  1.00  0.00     0.013 A 
HETATM   31  C   UNL     1      43.176 -18.543   2.118  1.00  0.00     0.012 A 
HETATM   32  C   UNL     1      42.574 -15.104   3.413  1.00  0.00     0.011 A 
HETATM   33  C   UNL     1      43.641 -19.777   2.575  1.00  0.00     0.001 A 
HETATM   34  C   UNL     1      44.043 -19.920   3.900  1.00  0.00     0.001 A 
ENDBRANCH   2  25
TORSDOF 4
ENDMDL
MODEL 7
REMARK VINA RESULT:      -9.5      2.260      6.834
REMARK  4 active torsions:
REMARK  status: ('A' for Active; 'I' for Inactive)
REMARK    1  A    between atoms: C_2  and  C_3 
REMARK    2  A    between atoms: N_16  and  C_17 
REMARK    3  A    between atoms: C_17  and  C_18 
REMARK       I    between atoms: C_18  and  N_19 
REMARK    4  A    between atoms: N_19  and  C_20 
ROOT
HETATM    1  C   UNL     1      40.005 -10.097   3.866  1.00  0.00     0.054 C 
HETATM    2  C   UNL     1      41.115 -11.046   3.405  1.00  0.00     0.140 A 
HETATM    3  N   UNL     1      41.459 -10.733   2.033  1.00  0.00    -0.321 N 
HETATM    4  C   UNL     1      41.083 -11.712   1.148  1.00  0.00     0.326 A 
HETATM    5  O   UNL     1      41.234 -11.627  -0.058  1.00  0.00    -0.247 OA
HETATM    6  N   UNL     1      40.520 -12.733   1.843  1.00  0.00    -0.259 N 
HETATM    7  C   UNL     1      40.527 -12.461   3.180  1.00  0.00     0.261 A 
HETATM    8  O   UNL     1      40.126 -13.236   4.043  1.00  0.00    -0.270 OA
HETATM    9  H   UNL     1      41.863  -9.865   1.710  1.00  0.00     0.165 HD
ENDROOT
BRANCH   6  10
HETATM   10  C   UNL     1      40.008 -13.946   1.239  1.00  0.00     0.240 C 
BRANCH  10  11
HETATM   11  C   UNL     1      40.478 -15.179   2.012  1.00  0.00     0.240 C 
HETATM   12  N   UNL     1      41.850 -15.211   2.221  1.00  0.00    -0.325 N 
HETATM   13  H   UNL     1      42.360 -14.371   1.960  1.00  0.00     0.169 HD
HETATM   14  O   UNL     1      39.662 -15.967   2.484  1.00  0.00    -0.271 OA
BRANCH  12  15
HETATM   15  C   UNL     1      42.601 -16.244   2.841  1.00  0.00     0.047 A 
HETATM   16  C   UNL     1      43.130 -16.049   4.156  1.00  0.00     0.019 A 
HETATM   17  C   UNL     1      43.902 -17.077   4.751  1.00  0.00     0.069 A 
HETATM   18  C   UNL     1      42.929 -14.896   4.956  1.00  0.00     0.017 A 
HETATM   19  N   UNL     1      44.426 -16.993   5.987  1.00  0.00    -0.260 NA
HETATM   20  C   UNL     1      44.136 -18.245   4.045  1.00  0.00     0.032 A 
HETATM   21  C   UNL     1      44.202 -15.874   6.703  1.00  0.00     0.117 A 
HETATM   22  C   UNL     1      43.466 -14.808   6.237  1.00  0.00     0.020 A 
HETATM   23  C   UNL     1      43.628 -18.438   2.764  1.00  0.00     0.005 A 
HETATM   24  C   UNL     1      42.864 -17.442   2.167  1.00  0.00     0.030 A 
ENDBRANCH  12  15
ENDBRANCH  10  11
ENDBRANCH   6  10
BRANCH   2  25
HETATM   25  C   UNL     1      42.316 -11.065   4.342  1.00  0.00    -0.020 A 
HETATM   26  C   UNL     1      42.231 -10.656   5.687  1.00  0.00     0.022 A 
HETATM   27  C   UNL     1      43.343 -10.695   6.548  1.00  0.00    -0.025 A 
HETATM   28  C   UNL     1      44.586 -11.146   6.055  1.00  0.00    -0.026 A 
HETATM   29  C   UNL     1      43.247 -10.295   7.893  1.00  0.00     0.012 A 
HETATM   30  C   UNL     1      44.685 -11.535   4.714  1.00  0.00     0.013 A 
HETATM   31  C   UNL     1      45.696 -11.192   6.914  1.00  0.00     0.012 A 
HETATM   32  C   UNL     1      43.569 -11.492   3.872  1.00  0.00     0.011 A 
HETATM   33  C   UNL     1      45.582 -10.795   8.247  1.00  0.00     0.001 A 
HETATM   34  C   UNL     1      44.358 -10.346   8.736  1.00  0.00     0.001 A 
ENDBRANCH   2  25
TORSDOF 4
ENDMDL
MODEL 8
REMARK VINA RESULT:      -9.5      3.357      6.745
REMARK  4 active torsions:
REMARK  status: ('A' for Active; 'I' for Inactive)
REMARK    1  A    between atoms: C_2  and  C_3 
REMARK    2  A    between atoms: N_16  and  C_17 
REMARK    3  A    between atoms: C_17  and  C_18 
REMARK       I    between atoms: C_18  and  N_19 
REMARK    4  A    between atoms: N_19  and  C_20 
ROOT
HETATM    1  C   UNL     1      39.822 -13.775   2.096  1.00  0.00     0.054 C 
HETATM    2  C   UNL     1      40.695 -13.963   3.341  1.00  0.00     0.140 A 
HETATM    3  N   UNL     1      39.849 -13.919   4.516  1.00  0.00    -0.321 N 
HETATM    4  C   UNL     1      40.052 -12.799   5.283  1.00  0.00     0.326 A 
HETATM    5  O   UNL     1      39.411 -12.542   6.286  1.00  0.00    -0.247 OA
HETATM    6  N   UNL     1      41.042 -12.061   4.720  1.00  0.00    -0.259 N 
HETATM    7  C   UNL     1      41.517 -12.676   3.598  1.00  0.00     0.261 A 
HETATM    8  O   UNL     1      42.449 -12.252   2.922  1.00  0.00    -0.270 OA
HETATM    9  H   UNL     1      39.121 -14.582   4.743  1.00  0.00     0.165 HD
ENDROOT
BRANCH   6  10
HETATM   10  C   UNL     1      41.532 -10.809   5.258  1.00  0.00     0.240 C 
BRANCH  10  11
HETATM   11  C   UNL     1      42.502 -11.056   6.414  1.00  0.00     0.240 C 
HETATM   12  N   UNL     1      42.462 -10.069   7.390  1.00  0.00    -0.325 N 
HETATM   13  H   UNL     1      41.720  -9.380   7.295  1.00  0.00     0.169 HD
HETATM   14  O   UNL     1      43.139 -12.104   6.479  1.00  0.00    -0.271 OA
BRANCH  12  15
HETATM   15  C   UNL     1      43.277  -9.970   8.547  1.00  0.00     0.047 A 
HETATM   16  C   UNL     1      42.697  -9.586   9.797  1.00  0.00     0.019 A 
HETATM   17  C   UNL     1      43.529  -9.464  10.938  1.00  0.00     0.069 A 
HETATM   18  C   UNL     1      41.321  -9.330  10.015  1.00  0.00     0.017 A 
HETATM   19  N   UNL     1      43.073  -9.125  12.158  1.00  0.00    -0.260 NA
HETATM   20  C   UNL     1      44.886  -9.712  10.818  1.00  0.00     0.032 A 
HETATM   21  C   UNL     1      41.755  -8.894  12.307  1.00  0.00     0.117 A 
HETATM   22  C   UNL     1      40.846  -8.983  11.277  1.00  0.00     0.020 A 
HETATM   23  C   UNL     1      45.456 -10.081   9.604  1.00  0.00     0.005 A 
HETATM   24  C   UNL     1      44.654 -10.210   8.475  1.00  0.00     0.030 A 
ENDBRANCH  12  15
ENDBRANCH  10  11
ENDBRANCH   6  10
BRANCH   2  25
HETATM   25  C   UNL     1      41.576 -15.205   3.275  1.00  0.00    -0.020 A 
HETATM   26  C   UNL     1      41.977 -15.907   4.427  1.00  0.00     0.022 A 
HETATM   27  C   UNL     1      42.776 -17.064   4.353  1.00  0.00    -0.025 A 
HETATM   28  C   UNL     1      43.198 -17.535   3.091  1.00  0.00    -0.026 A 
HETATM   29  C   UNL     1      43.163 -17.766   5.507  1.00  0.00     0.012 A 
HETATM   30  C   UNL     1      42.820 -16.831   1.941  1.00  0.00     0.013 A 
HETATM   31  C   UNL     1      43.989 -18.692   3.013  1.00  0.00     0.012 A 
HETATM   32  C   UNL     1      42.026 -15.683   2.033  1.00  0.00     0.011 A 
HETATM   33  C   UNL     1      44.361 -19.379   4.170  1.00  0.00     0.001 A 
HETATM   34  C   UNL     1      43.949 -18.916   5.416  1.00  0.00     0.001 A 
ENDBRANCH   2  25
TORSDOF 4
ENDMDL
MODEL 9
REMARK VINA RESULT:      -9.2      2.701      7.226
REMARK  4 active torsions:
REMARK  status: ('A' for Active; 'I' for Inactive)
REMARK    1  A    between atoms: C_2  and  C_3 
REMARK    2  A    between atoms: N_16  and  C_17 
REMARK    3  A    between atoms: C_17  and  C_18 
REMARK       I    between atoms: C_18  and  N_19 
REMARK    4  A    between atoms: N_19  and  C_20 
ROOT
HETATM    1  C   UNL     1      39.448  -9.452   4.727  1.00  0.00     0.054 C 
HETATM    2  C   UNL     1      40.836 -10.099   4.674  1.00  0.00     0.140 A 
HETATM    3  N   UNL     1      41.530  -9.620   3.496  1.00  0.00    -0.321 N 
HETATM    4  C   UNL     1      41.705 -10.592   2.543  1.00  0.00     0.326 A 
HETATM    5  O   UNL     1      42.221 -10.389   1.458  1.00  0.00    -0.247 OA
HETATM    6  N   UNL     1      41.196 -11.759   3.014  1.00  0.00    -0.259 N 
HETATM    7  C   UNL     1      40.698 -11.589   4.273  1.00  0.00     0.261 A 
HETATM    8  O   UNL     1      40.226 -12.493   4.955  1.00  0.00    -0.270 OA
HETATM    9  H   UNL     1      41.806  -8.663   3.323  1.00  0.00     0.165 HD
ENDROOT
BRANCH   6  10
HETATM   10  C   UNL     1      41.207 -13.008   2.281  1.00  0.00     0.240 C 
BRANCH  10  11
HETATM   11  C   UNL     1      42.365 -13.896   2.736  1.00  0.00     0.240 C 
HETATM   12  N   UNL     1      42.027 -14.759   3.770  1.00  0.00    -0.325 N 
HETATM   13  H   UNL     1      41.041 -14.797   4.013  1.00  0.00     0.169 HD
HETATM   14  O   UNL     1      43.432 -13.889   2.127  1.00  0.00    -0.271 OA
BRANCH  12  15
HETATM   15  C   UNL     1      42.886 -15.657   4.455  1.00  0.00     0.047 A 
HETATM   16  C   UNL     1      43.161 -16.947   3.898  1.00  0.00     0.019 A 
HETATM   17  C   UNL     1      43.997 -17.844   4.607  1.00  0.00     0.069 A 
HETATM   18  C   UNL     1      42.678 -17.418   2.652  1.00  0.00     0.017 A 
HETATM   19  N   UNL     1      44.325 -19.068   4.157  1.00  0.00    -0.260 NA
HETATM   20  C   UNL     1      44.525 -17.457   5.828  1.00  0.00     0.032 A 
HETATM   21  C   UNL     1      43.838 -19.464   2.965  1.00  0.00     0.117 A 
HETATM   22  C   UNL     1      43.019 -18.683   2.182  1.00  0.00     0.020 A 
HETATM   23  C   UNL     1      44.258 -16.207   6.377  1.00  0.00     0.005 A 
HETATM   24  C   UNL     1      43.444 -15.312   5.691  1.00  0.00     0.030 A 
ENDBRANCH  12  15
ENDBRANCH  10  11
ENDBRANCH   6  10
BRANCH   2  25
HETATM   25  C   UNL     1      41.631  -9.920   5.961  1.00  0.00    -0.020 A 
HETATM   26  C   UNL     1      42.927 -10.446   6.127  1.00  0.00     0.022 A 
HETATM   27  C   UNL     1      43.660 -10.259   7.314  1.00  0.00    -0.025 A 
HETATM   28  C   UNL     1      43.083  -9.532   8.377  1.00  0.00    -0.026 A 
HETATM   29  C   UNL     1      44.957 -10.777   7.467  1.00  0.00     0.012 A 
HETATM   30  C   UNL     1      41.787  -9.023   8.229  1.00  0.00     0.013 A 
HETATM   31  C   UNL     1      43.814  -9.338   9.559  1.00  0.00     0.012 A 
HETATM   32  C   UNL     1      41.073  -9.217   7.042  1.00  0.00     0.011 A 
HETATM   33  C   UNL     1      45.103  -9.856   9.693  1.00  0.00     0.001 A 
HETATM   34  C   UNL     1      45.673 -10.577   8.648  1.00  0.00     0.001 A 
ENDBRANCH   2  25
TORSDOF 4
ENDMDL
MODEL 10
REMARK VINA RESULT:      -9.0      2.173      5.313
REMARK  4 active torsions:
REMARK  status: ('A' for Active; 'I' for Inactive)
REMARK    1  A    between atoms: C_2  and  C_3 
REMARK    2  A    between atoms: N_16  and  C_17 
REMARK    3  A    between atoms: C_17  and  C_18 
REMARK       I    between atoms: C_18  and  N_19 
REMARK    4  A    between atoms: N_19  and  C_20 
ROOT
HETATM    1  C   UNL     1      39.818 -15.607   0.555  1.00  0.00     0.054 C 
HETATM    2  C   UNL     1      40.355 -14.910   1.808  1.00  0.00     0.140 A 
HETATM    3  N   UNL     1      39.237 -14.407   2.578  1.00  0.00    -0.321 N 
HETATM    4  C   UNL     1      39.161 -13.036   2.584  1.00  0.00     0.326 A 
HETATM    5  O   UNL     1      38.270 -12.411   3.130  1.00  0.00    -0.247 OA
HETATM    6  N   UNL     1      40.210 -12.541   1.879  1.00  0.00    -0.259 N 
HETATM    7  C   UNL     1      40.996 -13.556   1.415  1.00  0.00     0.261 A 
HETATM    8  O   UNL     1      42.039 -13.390   0.792  1.00  0.00    -0.270 OA
HETATM    9  H   UNL     1      38.521 -14.970   3.017  1.00  0.00     0.165 HD
ENDROOT
BRANCH   6  10
HETATM   10  C   UNL     1      40.462 -11.129   1.674  1.00  0.00     0.240 C 
BRANCH  10  11
HETATM   11  C   UNL     1      41.436 -10.592   2.723  1.00  0.00     0.240 C 
HETATM   12  N   UNL     1      40.867 -10.439   3.980  1.00  0.00    -0.325 N 
HETATM   13  H   UNL     1      39.928 -10.813   4.092  1.00  0.00     0.169 HD
HETATM   14  O   UNL     1      42.625 -10.447   2.452  1.00  0.00    -0.271 OA
BRANCH  12  15
HETATM   15  C   UNL     1      41.481  -9.904   5.143  1.00  0.00     0.047 A 
HETATM   16  C   UNL     1      42.370 -10.715   5.916  1.00  0.00     0.019 A 
HETATM   17  C   UNL     1      42.954 -10.178   7.090  1.00  0.00     0.069 A 
HETATM   18  C   UNL     1      42.754 -12.041   5.596  1.00  0.00     0.017 A 
HETATM   19  N   UNL     1      43.813 -10.857   7.871  1.00  0.00    -0.260 NA
HETATM   20  C   UNL     1      42.645  -8.882   7.469  1.00  0.00     0.032 A 
HETATM   21  C   UNL     1      44.143 -12.114   7.518  1.00  0.00     0.117 A 
HETATM   22  C   UNL     1      43.646 -12.745   6.400  1.00  0.00     0.020 A 
HETATM   23  C   UNL     1      41.777  -8.090   6.723  1.00  0.00     0.005 A 
HETATM   24  C   UNL     1      41.200  -8.600   5.566  1.00  0.00     0.030 A 
ENDBRANCH  12  15
ENDBRANCH  10  11
ENDBRANCH   6  10
BRANCH   2  25
HETATM   25  C   UNL     1      41.306 -15.783   2.620  1.00  0.00    -0.020 A 
HETATM   26  C   UNL     1      41.814 -17.002   2.131  1.00  0.00     0.022 A 
HETATM   27  C   UNL     1      42.706 -17.790   2.882  1.00  0.00    -0.025 A 
HETATM   28  C   UNL     1      43.100 -17.359   4.166  1.00  0.00    -0.026 A 
HETATM   29  C   UNL     1      43.218 -19.000   2.382  1.00  0.00     0.012 A 
HETATM   30  C   UNL     1      42.583 -16.158   4.668  1.00  0.00     0.013 A 
HETATM   31  C   UNL     1      43.994 -18.140   4.914  1.00  0.00     0.012 A 
HETATM   32  C   UNL     1      41.699 -15.386   3.909  1.00  0.00     0.011 A 
HETATM   33  C   UNL     1      44.496 -19.337   4.401  1.00  0.00     0.001 A 
HETATM   34  C   UNL     1      44.106 -19.767   3.136  1.00  0.00     0.001 A 
ENDBRANCH   2  25
TORSDOF 4
ENDMDL
