MODEL 1
REMARK VINA RESULT:      -8.3      0.000      0.000
REMARK  6 active torsions:
REMARK  status: ('A' for Active; 'I' for Inactive)
REMARK    1  A    between atoms: C_9  and  C_10 
REMARK    2  A    between atoms: C_12  and  N_13 
REMARK    3  A    between atoms: N_13  and  C_14 
REMARK    4  A    between atoms: C_14  and  C_15 
REMARK    5  A    between atoms: C_15  and  C_16 
REMARK    6  A    between atoms: C_16  and  N_17 
ROOT
HETATM    1  C   UNL     1      42.084 -14.844   2.050  1.00  0.00     0.071 A 
HETATM    2  N   UNL     1      41.089 -15.159   1.179  1.00  0.00    -0.218 NA
HETATM    3  C   UNL     1      40.514 -14.126   0.534  1.00  0.00     0.202 A 
HETATM    4  N   UNL     1      40.866 -12.850   0.674  1.00  0.00    -0.231 NA
HETATM    5  C   UNL     1      41.855 -12.582   1.546  1.00  0.00     0.122 A 
HETATM    6  C   UNL     1      42.501 -13.548   2.274  1.00  0.00     0.052 A 
ENDROOT
BRANCH   1   7
HETATM    7  C   UNL     1      42.676 -15.991   2.746  1.00  0.00    -0.006 A 
HETATM    8  C   UNL     1      43.175 -15.872   4.050  1.00  0.00     0.014 A 
HETATM    9  C   UNL     1      43.689 -16.983   4.723  1.00  0.00     0.013 A 
HETATM   10  C   UNL     1      43.714 -18.244   4.111  1.00  0.00    -0.026 A 
HETATM   11  C   UNL     1      44.218 -19.369   4.782  1.00  0.00     0.012 A 
HETATM   12  C   UNL     1      43.229 -18.382   2.792  1.00  0.00    -0.025 A 
HETATM   13  C   UNL     1      44.238 -20.618   4.160  1.00  0.00     0.001 A 
HETATM   14  C   UNL     1      43.764 -20.756   2.859  1.00  0.00     0.001 A 
HETATM   15  C   UNL     1      43.264 -19.644   2.177  1.00  0.00     0.012 A 
HETATM   16  C   UNL     1      42.724 -17.253   2.126  1.00  0.00     0.026 A 
ENDBRANCH   1   7
BRANCH   3  17
HETATM   17  N   UNL     1      39.491 -14.389  -0.372  1.00  0.00    -0.261 NA
HETATM   18  H   UNL     1      39.753 -15.304  -0.750  1.00  0.00     0.130 HD
BRANCH  17  19
HETATM   19  C   UNL     1      39.347 -13.382  -1.410  1.00  0.00     0.097 C 
BRANCH  19  20
HETATM   20  C   UNL     1      39.538 -14.013  -2.790  1.00  0.00     0.042 C 
BRANCH  20  21
HETATM   21  C   UNL     1      38.367 -14.843  -3.303  1.00  0.00     0.230 C 
BRANCH  21  22
HETATM   22  N   UNL     1      38.272 -16.146  -2.614  1.00  0.00    -0.079 N 
HETATM   23  H   UNL     1      37.749 -16.025  -1.721  1.00  0.00     0.274 HD
HETATM   24  H   UNL     1      37.794 -16.874  -3.154  1.00  0.00     0.274 HD
HETATM   25  H   UNL     1      39.194 -16.505  -2.344  1.00  0.00     0.274 HD
ENDBRANCH  21  22
ENDBRANCH  20  21
ENDBRANCH  19  20
ENDBRANCH  17  19
ENDBRANCH   3  17
TORSDOF 6
ENDMDL
MODEL 2
REMARK VINA RESULT:      -7.8      3.893      6.349
REMARK  6 active torsions:
REMARK  status: ('A' for Active; 'I' for Inactive)
REMARK    1  A    between atoms: C_9  and  C_10 
REMARK    2  A    between atoms: C_12  and  N_13 
REMARK    3  A    between atoms: N_13  and  C_14 
REMARK    4  A    between atoms: C_14  and  C_15 
REMARK    5  A    between atoms: C_15  and  C_16 
REMARK    6  A    between atoms: C_16  and  N_17 
ROOT
HETATM    1  C   UNL     1      43.109 -14.392   3.742  1.00  0.00     0.071 A 
HETATM    2  N   UNL     1      43.114 -14.072   5.063  1.00  0.00    -0.218 NA
HETATM    3  C   UNL     1      43.045 -12.760   5.356  1.00  0.00     0.202 A 
HETATM    4  N   UNL     1      42.950 -11.782   4.459  1.00  0.00    -0.231 NA
HETATM    5  C   UNL     1      42.949 -12.143   3.162  1.00  0.00     0.122 A 
HETATM    6  C   UNL     1      43.034 -13.445   2.742  1.00  0.00     0.052 A 
ENDROOT
BRANCH   1   7
HETATM    7  C   UNL     1      43.201 -15.828   3.458  1.00  0.00    -0.006 A 
HETATM    8  C   UNL     1      43.043 -16.324   2.157  1.00  0.00     0.014 A 
HETATM    9  C   UNL     1      43.185 -17.688   1.890  1.00  0.00     0.013 A 
HETATM   10  C   UNL     1      43.492 -18.592   2.916  1.00  0.00    -0.026 A 
HETATM   11  C   UNL     1      43.647 -19.963   2.657  1.00  0.00     0.012 A 
HETATM   12  C   UNL     1      43.641 -18.114   4.237  1.00  0.00    -0.025 A 
HETATM   13  C   UNL     1      43.952 -20.851   3.689  1.00  0.00     0.001 A 
HETATM   14  C   UNL     1      44.096 -20.383   4.992  1.00  0.00     0.001 A 
HETATM   15  C   UNL     1      43.938 -19.023   5.266  1.00  0.00     0.012 A 
HETATM   16  C   UNL     1      43.486 -16.741   4.490  1.00  0.00     0.026 A 
ENDBRANCH   1   7
BRANCH   3  17
HETATM   17  N   UNL     1      43.043 -12.373   6.694  1.00  0.00    -0.261 NA
HETATM   18  H   UNL     1      42.049 -12.395   6.935  1.00  0.00     0.130 HD
BRANCH  17  19
HETATM   19  C   UNL     1      43.641 -11.070   6.933  1.00  0.00     0.097 C 
BRANCH  19  20
HETATM   20  C   UNL     1      45.166 -11.187   6.974  1.00  0.00     0.042 C 
BRANCH  20  21
HETATM   21  C   UNL     1      45.859 -10.392   8.073  1.00  0.00     0.230 C 
BRANCH  21  22
HETATM   22  N   UNL     1      46.849  -9.443   7.524  1.00  0.00    -0.079 N 
HETATM   23  H   UNL     1      46.349  -8.660   7.052  1.00  0.00     0.274 HD
HETATM   24  H   UNL     1      47.471  -9.030   8.227  1.00  0.00     0.274 HD
HETATM   25  H   UNL     1      47.431  -9.873   6.798  1.00  0.00     0.274 HD
ENDBRANCH  21  22
ENDBRANCH  20  21
ENDBRANCH  19  20
ENDBRANCH  17  19
ENDBRANCH   3  17
TORSDOF 6
ENDMDL
MODEL 3
REMARK VINA RESULT:      -7.6      5.279      7.625
REMARK  6 active torsions:
REMARK  status: ('A' for Active; 'I' for Inactive)
REMARK    1  A    between atoms: C_9  and  C_10 
REMARK    2  A    between atoms: C_12  and  N_13 
REMARK    3  A    between atoms: N_13  and  C_14 
REMARK    4  A    between atoms: C_14  and  C_15 
REMARK    5  A    between atoms: C_15  and  C_16 
REMARK    6  A    between atoms: C_16  and  N_17 
ROOT
HETATM    1  C   UNL     1      43.191 -13.516   6.025  1.00  0.00     0.071 A 
HETATM    2  N   UNL     1      44.146 -12.984   6.833  1.00  0.00    -0.218 NA
HETATM    3  C   UNL     1      43.937 -11.720   7.246  1.00  0.00     0.202 A 
HETATM    4  N   UNL     1      42.871 -10.985   6.942  1.00  0.00    -0.231 NA
HETATM    5  C   UNL     1      41.950 -11.550   6.139  1.00  0.00     0.122 A 
HETATM    6  C   UNL     1      42.063 -12.823   5.641  1.00  0.00     0.052 A 
ENDROOT
BRANCH   1   7
HETATM    7  C   UNL     1      43.458 -14.888   5.581  1.00  0.00    -0.006 A 
HETATM    8  C   UNL     1      44.077 -15.819   6.428  1.00  0.00     0.014 A 
HETATM    9  C   UNL     1      44.280 -17.138   6.013  1.00  0.00     0.013 A 
HETATM   10  C   UNL     1      43.866 -17.563   4.743  1.00  0.00    -0.026 A 
HETATM   11  C   UNL     1      44.055 -18.888   4.321  1.00  0.00     0.012 A 
HETATM   12  C   UNL     1      43.254 -16.636   3.870  1.00  0.00    -0.025 A 
HETATM   13  C   UNL     1      43.639 -19.296   3.053  1.00  0.00     0.001 A 
HETATM   14  C   UNL     1      43.038 -18.385   2.190  1.00  0.00     0.001 A 
HETATM   15  C   UNL     1      42.849 -17.061   2.594  1.00  0.00     0.012 A 
HETATM   16  C   UNL     1      43.066 -15.312   4.298  1.00  0.00     0.026 A 
ENDBRANCH   1   7
BRANCH   3  17
HETATM   17  N   UNL     1      44.882 -11.124   8.078  1.00  0.00    -0.261 NA
HETATM   18  H   UNL     1      44.985 -11.810   8.832  1.00  0.00     0.130 HD
BRANCH  17  19
HETATM   19  C   UNL     1      44.491  -9.814   8.572  1.00  0.00     0.097 C 
BRANCH  19  20
HETATM   20  C   UNL     1      45.090  -9.570   9.957  1.00  0.00     0.042 C 
BRANCH  20  21
HETATM   21  C   UNL     1      44.152  -9.813  11.134  1.00  0.00     0.230 C 
BRANCH  21  22
HETATM   22  N   UNL     1      43.167 -10.874  10.842  1.00  0.00    -0.079 N 
HETATM   23  H   UNL     1      43.236 -11.140   9.837  1.00  0.00     0.274 HD
HETATM   24  H   UNL     1      43.292 -11.728  11.394  1.00  0.00     0.274 HD
HETATM   25  H   UNL     1      42.203 -10.549  10.973  1.00  0.00     0.274 HD
ENDBRANCH  21  22
ENDBRANCH  20  21
ENDBRANCH  19  20
ENDBRANCH  17  19
ENDBRANCH   3  17
TORSDOF 6
ENDMDL
MODEL 4
REMARK VINA RESULT:      -7.5      2.416      3.877
REMARK  6 active torsions:
REMARK  status: ('A' for Active; 'I' for Inactive)
REMARK    1  A    between atoms: C_9  and  C_10 
REMARK    2  A    between atoms: C_12  and  N_13 
REMARK    3  A    between atoms: N_13  and  C_14 
REMARK    4  A    between atoms: C_14  and  C_15 
REMARK    5  A    between atoms: C_15  and  C_16 
REMARK    6  A    between atoms: C_16  and  N_17 
ROOT
HETATM    1  C   UNL     1      43.047 -14.713   4.810  1.00  0.00     0.071 A 
HETATM    2  N   UNL     1      42.439 -13.790   4.019  1.00  0.00    -0.218 NA
HETATM    3  C   UNL     1      42.303 -12.556   4.541  1.00  0.00     0.202 A 
HETATM    4  N   UNL     1      42.736 -12.186   5.743  1.00  0.00    -0.231 NA
HETATM    5  C   UNL     1      43.331 -13.130   6.494  1.00  0.00     0.122 A 
HETATM    6  C   UNL     1      43.509 -14.425   6.077  1.00  0.00     0.052 A 
ENDROOT
BRANCH   1   7
HETATM    7  C   UNL     1      43.164 -16.048   4.216  1.00  0.00    -0.006 A 
HETATM    8  C   UNL     1      43.015 -16.246   2.837  1.00  0.00     0.014 A 
HETATM    9  C   UNL     1      43.180 -17.515   2.275  1.00  0.00     0.013 A 
HETATM   10  C   UNL     1      43.503 -18.618   3.076  1.00  0.00    -0.026 A 
HETATM   11  C   UNL     1      43.682 -19.895   2.520  1.00  0.00     0.012 A 
HETATM   12  C   UNL     1      43.643 -18.443   4.470  1.00  0.00    -0.025 A 
HETATM   13  C   UNL     1      44.001 -20.985   3.330  1.00  0.00     0.001 A 
HETATM   14  C   UNL     1      44.137 -20.814   4.705  1.00  0.00     0.001 A 
HETATM   15  C   UNL     1      43.956 -19.552   5.273  1.00  0.00     0.012 A 
HETATM   16  C   UNL     1      43.464 -17.163   5.021  1.00  0.00     0.026 A 
ENDBRANCH   1   7
BRANCH   3  17
HETATM   17  N   UNL     1      41.690 -11.569   3.773  1.00  0.00    -0.261 NA
HETATM   18  H   UNL     1      40.818 -12.019   3.480  1.00  0.00     0.130 HD
BRANCH  17  19
HETATM   19  C   UNL     1      42.486 -11.118   2.645  1.00  0.00     0.097 C 
BRANCH  19  20
HETATM   20  C   UNL     1      41.601 -10.936   1.411  1.00  0.00     0.042 C 
BRANCH  20  21
HETATM   21  C   UNL     1      40.893 -12.192   0.917  1.00  0.00     0.230 C 
BRANCH  21  22
HETATM   22  N   UNL     1      41.764 -13.382   0.997  1.00  0.00    -0.079 N 
HETATM   23  H   UNL     1      41.910 -13.634   1.998  1.00  0.00     0.274 HD
HETATM   24  H   UNL     1      41.389 -14.211   0.525  1.00  0.00     0.274 HD
HETATM   25  H   UNL     1      42.700 -13.199   0.622  1.00  0.00     0.274 HD
ENDBRANCH  21  22
ENDBRANCH  20  21
ENDBRANCH  19  20
ENDBRANCH  17  19
ENDBRANCH   3  17
TORSDOF 6
ENDMDL
MODEL 5
REMARK VINA RESULT:      -7.4      1.770      2.662
REMARK  6 active torsions:
REMARK  status: ('A' for Active; 'I' for Inactive)
REMARK    1  A    between atoms: C_9  and  C_10 
REMARK    2  A    between atoms: C_12  and  N_13 
REMARK    3  A    between atoms: N_13  and  C_14 
REMARK    4  A    between atoms: C_14  and  C_15 
REMARK    5  A    between atoms: C_15  and  C_16 
REMARK    6  A    between atoms: C_16  and  N_17 
ROOT
HETATM    1  C   UNL     1      42.848 -14.572   4.397  1.00  0.00     0.071 A 
HETATM    2  N   UNL     1      42.588 -14.058   3.165  1.00  0.00    -0.218 NA
HETATM    3  C   UNL     1      42.213 -12.766   3.128  1.00  0.00     0.202 A 
HETATM    4  N   UNL     1      42.107 -11.972   4.190  1.00  0.00    -0.231 NA
HETATM    5  C   UNL     1      42.373 -12.520   5.390  1.00  0.00     0.122 A 
HETATM    6  C   UNL     1      42.745 -13.830   5.555  1.00  0.00     0.052 A 
ENDROOT
BRANCH   1   7
HETATM    7  C   UNL     1      43.238 -15.986   4.401  1.00  0.00    -0.006 A 
HETATM    8  C   UNL     1      43.803 -16.580   5.538  1.00  0.00     0.014 A 
HETATM    9  C   UNL     1      44.123 -17.940   5.548  1.00  0.00     0.013 A 
HETATM   10  C   UNL     1      43.881 -18.743   4.426  1.00  0.00    -0.026 A 
HETATM   11  C   UNL     1      44.188 -20.113   4.430  1.00  0.00     0.012 A 
HETATM   12  C   UNL     1      43.325 -18.160   3.265  1.00  0.00    -0.025 A 
HETATM   13  C   UNL     1      43.944 -20.900   3.303  1.00  0.00     0.001 A 
HETATM   14  C   UNL     1      43.399 -20.327   2.158  1.00  0.00     0.001 A 
HETATM   15  C   UNL     1      43.094 -18.964   2.137  1.00  0.00     0.012 A 
HETATM   16  C   UNL     1      43.019 -16.789   3.267  1.00  0.00     0.026 A 
ENDBRANCH   1   7
BRANCH   3  17
HETATM   17  N   UNL     1      41.937 -12.185   1.893  1.00  0.00    -0.261 NA
HETATM   18  H   UNL     1      42.186 -11.204   2.043  1.00  0.00     0.130 HD
BRANCH  17  19
HETATM   19  C   UNL     1      40.559 -12.346   1.459  1.00  0.00     0.097 C 
BRANCH  19  20
HETATM   20  C   UNL     1      40.513 -12.809   0.003  1.00  0.00     0.042 C 
BRANCH  20  21
HETATM   21  C   UNL     1      40.252 -14.296  -0.209  1.00  0.00     0.230 C 
BRANCH  21  22
HETATM   22  N   UNL     1      40.762 -15.109   0.914  1.00  0.00    -0.079 N 
HETATM   23  H   UNL     1      41.801 -15.162   0.856  1.00  0.00     0.274 HD
HETATM   24  H   UNL     1      40.524 -14.743   1.841  1.00  0.00     0.274 HD
HETATM   25  H   UNL     1      40.436 -16.080   0.862  1.00  0.00     0.274 HD
ENDBRANCH  21  22
ENDBRANCH  20  21
ENDBRANCH  19  20
ENDBRANCH  17  19
ENDBRANCH   3  17
TORSDOF 6
ENDMDL
MODEL 6
REMARK VINA RESULT:      -7.3      2.291      3.934
REMARK  6 active torsions:
REMARK  status: ('A' for Active; 'I' for Inactive)
REMARK    1  A    between atoms: C_9  and  C_10 
REMARK    2  A    between atoms: C_12  and  N_13 
REMARK    3  A    between atoms: N_13  and  C_14 
REMARK    4  A    between atoms: C_14  and  C_15 
REMARK    5  A    between atoms: C_15  and  C_16 
REMARK    6  A    between atoms: C_16  and  N_17 
ROOT
HETATM    1  C   UNL     1      42.276 -14.463   2.186  1.00  0.00     0.071 A 
HETATM    2  N   UNL     1      42.745 -13.296   2.701  1.00  0.00    -0.218 NA
HETATM    3  C   UNL     1      42.296 -12.167   2.121  1.00  0.00     0.202 A 
HETATM    4  N   UNL     1      41.425 -12.121   1.116  1.00  0.00    -0.231 NA
HETATM    5  C   UNL     1      40.986 -13.299   0.636  1.00  0.00     0.122 A 
HETATM    6  C   UNL     1      41.387 -14.513   1.133  1.00  0.00     0.052 A 
ENDROOT
BRANCH   1   7
HETATM    7  C   UNL     1      42.798 -15.672   2.831  1.00  0.00    -0.006 A 
HETATM    8  C   UNL     1      43.289 -15.641   4.144  1.00  0.00     0.014 A 
HETATM    9  C   UNL     1      43.736 -16.809   4.767  1.00  0.00     0.013 A 
HETATM   10  C   UNL     1      43.699 -18.039   4.097  1.00  0.00    -0.026 A 
HETATM   11  C   UNL     1      44.135 -19.221   4.718  1.00  0.00     0.012 A 
HETATM   12  C   UNL     1      43.221 -18.089   2.769  1.00  0.00    -0.025 A 
HETATM   13  C   UNL     1      44.094 -20.438   4.038  1.00  0.00     0.001 A 
HETATM   14  C   UNL     1      43.626 -20.489   2.728  1.00  0.00     0.001 A 
HETATM   15  C   UNL     1      43.194 -19.321   2.095  1.00  0.00     0.012 A 
HETATM   16  C   UNL     1      42.784 -16.904   2.153  1.00  0.00     0.026 A 
ENDBRANCH   1   7
BRANCH   3  17
HETATM   17  N   UNL     1      42.742 -10.942   2.609  1.00  0.00    -0.261 NA
HETATM   18  H   UNL     1      43.742 -10.962   2.393  1.00  0.00     0.130 HD
BRANCH  17  19
HETATM   19  C   UNL     1      42.484 -10.740   4.025  1.00  0.00     0.097 C 
BRANCH  19  20
HETATM   20  C   UNL     1      41.016 -10.377   4.250  1.00  0.00     0.042 C 
BRANCH  20  21
HETATM   21  C   UNL     1      40.537  -9.107   3.557  1.00  0.00     0.230 C 
BRANCH  21  22
HETATM   22  N   UNL     1      40.031  -9.380   2.196  1.00  0.00    -0.079 N 
HETATM   23  H   UNL     1      39.307 -10.128   2.242  1.00  0.00     0.274 HD
HETATM   24  H   UNL     1      39.606  -8.570   1.735  1.00  0.00     0.274 HD
HETATM   25  H   UNL     1      40.765  -9.747   1.581  1.00  0.00     0.274 HD
ENDBRANCH  21  22
ENDBRANCH  20  21
ENDBRANCH  19  20
ENDBRANCH  17  19
ENDBRANCH   3  17
TORSDOF 6
ENDMDL
MODEL 7
REMARK VINA RESULT:      -7.3      1.355      2.326
REMARK  6 active torsions:
REMARK  status: ('A' for Active; 'I' for Inactive)
REMARK    1  A    between atoms: C_9  and  C_10 
REMARK    2  A    between atoms: C_12  and  N_13 
REMARK    3  A    between atoms: N_13  and  C_14 
REMARK    4  A    between atoms: C_14  and  C_15 
REMARK    5  A    between atoms: C_15  and  C_16 
REMARK    6  A    between atoms: C_16  and  N_17 
ROOT
HETATM    1  C   UNL     1      42.663 -13.678   2.564  1.00  0.00     0.071 A 
HETATM    2  N   UNL     1      41.734 -13.384   1.616  1.00  0.00    -0.218 NA
HETATM    3  C   UNL     1      41.453 -12.079   1.444  1.00  0.00     0.202 A 
HETATM    4  N   UNL     1      42.030 -11.082   2.109  1.00  0.00    -0.231 NA
HETATM    5  C   UNL     1      42.944 -11.417   3.039  1.00  0.00     0.122 A 
HETATM    6  C   UNL     1      43.297 -12.713   3.316  1.00  0.00     0.052 A 
ENDROOT
BRANCH   1   7
HETATM    7  C   UNL     1      42.932 -15.110   2.735  1.00  0.00    -0.006 A 
HETATM    8  C   UNL     1      43.095 -15.956   1.630  1.00  0.00     0.014 A 
HETATM    9  C   UNL     1      43.403 -17.308   1.805  1.00  0.00     0.013 A 
HETATM   10  C   UNL     1      43.560 -17.848   3.088  1.00  0.00    -0.026 A 
HETATM   11  C   UNL     1      43.880 -19.203   3.274  1.00  0.00     0.012 A 
HETATM   12  C   UNL     1      43.385 -17.015   4.215  1.00  0.00    -0.025 A 
HETATM   13  C   UNL     1      44.031 -19.727   4.559  1.00  0.00     0.001 A 
HETATM   14  C   UNL     1      43.857 -18.909   5.670  1.00  0.00     0.001 A 
HETATM   15  C   UNL     1      43.532 -17.561   5.501  1.00  0.00     0.012 A 
HETATM   16  C   UNL     1      43.066 -15.661   4.023  1.00  0.00     0.026 A 
ENDBRANCH   1   7
BRANCH   3  17
HETATM   17  N   UNL     1      40.511 -11.718   0.484  1.00  0.00    -0.261 NA
HETATM   18  H   UNL     1      39.662 -12.185   0.814  1.00  0.00     0.130 HD
BRANCH  17  19
HETATM   19  C   UNL     1      40.867 -12.108  -0.870  1.00  0.00     0.097 C 
BRANCH  19  20
HETATM   20  C   UNL     1      39.606 -12.320  -1.708  1.00  0.00     0.042 C 
BRANCH  20  21
HETATM   21  C   UNL     1      38.893 -13.652  -1.503  1.00  0.00     0.230 C 
BRANCH  21  22
HETATM   22  N   UNL     1      39.535 -14.463  -0.448  1.00  0.00    -0.079 N 
HETATM   23  H   UNL     1      38.838 -15.130  -0.055  1.00  0.00     0.274 HD
HETATM   24  H   UNL     1      40.338 -15.012  -0.770  1.00  0.00     0.274 HD
HETATM   25  H   UNL     1      39.840 -13.888   0.344  1.00  0.00     0.274 HD
ENDBRANCH  21  22
ENDBRANCH  20  21
ENDBRANCH  19  20
ENDBRANCH  17  19
ENDBRANCH   3  17
TORSDOF 6
ENDMDL
MODEL 8
REMARK VINA RESULT:      -7.2      3.751      4.741
REMARK  6 active torsions:
REMARK  status: ('A' for Active; 'I' for Inactive)
REMARK    1  A    between atoms: C_9  and  C_10 
REMARK    2  A    between atoms: C_12  and  N_13 
REMARK    3  A    between atoms: N_13  and  C_14 
REMARK    4  A    between atoms: C_14  and  C_15 
REMARK    5  A    between atoms: C_15  and  C_16 
REMARK    6  A    between atoms: C_16  and  N_17 
ROOT
HETATM    1  C   UNL     1      42.895 -14.610   3.647  1.00  0.00     0.071 A 
HETATM    2  N   UNL     1      42.258 -14.293   4.805  1.00  0.00    -0.218 NA
HETATM    3  C   UNL     1      42.102 -12.980   5.057  1.00  0.00     0.202 A 
HETATM    4  N   UNL     1      42.499 -11.997   4.253  1.00  0.00    -0.231 NA
HETATM    5  C   UNL     1      43.126 -12.354   3.117  1.00  0.00     0.122 A 
HETATM    6  C   UNL     1      43.359 -13.659   2.763  1.00  0.00     0.052 A 
ENDROOT
BRANCH   1   7
HETATM    7  C   UNL     1      43.061 -16.048   3.412  1.00  0.00    -0.006 A 
HETATM    8  C   UNL     1      42.947 -16.593   2.126  1.00  0.00     0.014 A 
HETATM    9  C   UNL     1      43.159 -17.956   1.906  1.00  0.00     0.013 A 
HETATM   10  C   UNL     1      43.495 -18.810   2.965  1.00  0.00    -0.026 A 
HETATM   11  C   UNL     1      43.721 -20.180   2.754  1.00  0.00     0.012 A 
HETATM   12  C   UNL     1      43.601 -18.283   4.272  1.00  0.00    -0.025 A 
HETATM   13  C   UNL     1      44.053 -21.018   3.818  1.00  0.00     0.001 A 
HETATM   14  C   UNL     1      44.155 -20.501   5.106  1.00  0.00     0.001 A 
HETATM   15  C   UNL     1      43.928 -19.142   5.333  1.00  0.00     0.012 A 
HETATM   16  C   UNL     1      43.375 -16.912   4.477  1.00  0.00     0.026 A 
ENDBRANCH   1   7
BRANCH   3  17
HETATM   17  N   UNL     1      41.454 -12.596   6.229  1.00  0.00    -0.261 NA
HETATM   18  H   UNL     1      41.803 -13.273   6.912  1.00  0.00     0.130 HD
BRANCH  17  19
HETATM   19  C   UNL     1      40.004 -12.603   6.132  1.00  0.00     0.097 C 
BRANCH  19  20
HETATM   20  C   UNL     1      39.473 -11.171   6.044  1.00  0.00     0.042 C 
BRANCH  20  21
HETATM   21  C   UNL     1      39.075 -10.700   4.650  1.00  0.00     0.230 C 
BRANCH  21  22
HETATM   22  N   UNL     1      40.130  -9.874   4.027  1.00  0.00    -0.079 N 
HETATM   23  H   UNL     1      39.925  -8.867   4.200  1.00  0.00     0.274 HD
HETATM   24  H   UNL     1      41.074 -10.060   4.380  1.00  0.00     0.274 HD
HETATM   25  H   UNL     1      40.146  -9.978   3.007  1.00  0.00     0.274 HD
ENDBRANCH  21  22
ENDBRANCH  20  21
ENDBRANCH  19  20
ENDBRANCH  17  19
ENDBRANCH   3  17
TORSDOF 6
ENDMDL
MODEL 9
REMARK VINA RESULT:      -7.2      1.876      2.183
REMARK  6 active torsions:
REMARK  status: ('A' for Active; 'I' for Inactive)
REMARK    1  A    between atoms: C_9  and  C_10 
REMARK    2  A    between atoms: C_12  and  N_13 
REMARK    3  A    between atoms: N_13  and  C_14 
REMARK    4  A    between atoms: C_14  and  C_15 
REMARK    5  A    between atoms: C_15  and  C_16 
REMARK    6  A    between atoms: C_16  and  N_17 
ROOT
HETATM    1  C   UNL     1      40.769 -14.177   3.241  1.00  0.00     0.071 A 
HETATM    2  N   UNL     1      40.396 -14.129   1.934  1.00  0.00    -0.218 NA
HETATM    3  C   UNL     1      39.526 -13.159   1.600  1.00  0.00     0.202 A 
HETATM    4  N   UNL     1      39.037 -12.251   2.440  1.00  0.00    -0.231 NA
HETATM    5  C   UNL     1      39.431 -12.335   3.725  1.00  0.00     0.122 A 
HETATM    6  C   UNL     1      40.298 -13.291   4.187  1.00  0.00     0.052 A 
ENDROOT
BRANCH   1   7
HETATM    7  C   UNL     1      41.705 -15.256   3.572  1.00  0.00    -0.006 A 
HETATM    8  C   UNL     1      42.450 -15.233   4.759  1.00  0.00     0.014 A 
HETATM    9  C   UNL     1      43.301 -16.291   5.090  1.00  0.00     0.013 A 
HETATM   10  C   UNL     1      43.425 -17.403   4.246  1.00  0.00    -0.026 A 
HETATM   11  C   UNL     1      44.268 -18.476   4.574  1.00  0.00     0.012 A 
HETATM   12  C   UNL     1      42.694 -17.439   3.038  1.00  0.00    -0.025 A 
HETATM   13  C   UNL     1      44.383 -19.576   3.722  1.00  0.00     0.001 A 
HETATM   14  C   UNL     1      43.666 -19.612   2.531  1.00  0.00     0.001 A 
HETATM   15  C   UNL     1      42.828 -18.549   2.188  1.00  0.00     0.012 A 
HETATM   16  C   UNL     1      41.851 -16.362   2.715  1.00  0.00     0.026 A 
ENDBRANCH   1   7
BRANCH   3  17
HETATM   17  N   UNL     1      39.111 -13.060   0.274  1.00  0.00    -0.261 NA
HETATM   18  H   UNL     1      38.340 -13.731   0.227  1.00  0.00     0.130 HD
BRANCH  17  19
HETATM   19  C   UNL     1      40.156 -13.347  -0.695  1.00  0.00     0.097 C 
BRANCH  19  20
HETATM   20  C   UNL     1      40.908 -12.066  -1.058  1.00  0.00     0.042 C 
BRANCH  20  21
HETATM   21  C   UNL     1      41.051 -11.786  -2.549  1.00  0.00     0.230 C 
BRANCH  21  22
HETATM   22  N   UNL     1      41.701 -12.905  -3.260  1.00  0.00    -0.079 N 
HETATM   23  H   UNL     1      42.452 -12.531  -3.877  1.00  0.00     0.274 HD
HETATM   24  H   UNL     1      42.130 -13.603  -2.643  1.00  0.00     0.274 HD
HETATM   25  H   UNL     1      41.050 -13.392  -3.885  1.00  0.00     0.274 HD
ENDBRANCH  21  22
ENDBRANCH  20  21
ENDBRANCH  19  20
ENDBRANCH  17  19
ENDBRANCH   3  17
TORSDOF 6
ENDMDL
MODEL 10
REMARK VINA RESULT:      -6.9      4.121      6.094
REMARK  6 active torsions:
REMARK  status: ('A' for Active; 'I' for Inactive)
REMARK    1  A    between atoms: C_9  and  C_10 
REMARK    2  A    between atoms: C_12  and  N_13 
REMARK    3  A    between atoms: N_13  and  C_14 
REMARK    4  A    between atoms: C_14  and  C_15 
REMARK    5  A    between atoms: C_15  and  C_16 
REMARK    6  A    between atoms: C_16  and  N_17 
ROOT
HETATM    1  C   UNL     1      42.538 -13.455   4.503  1.00  0.00     0.071 A 
HETATM    2  N   UNL     1      41.460 -13.329   5.322  1.00  0.00    -0.218 NA
HETATM    3  C   UNL     1      41.275 -12.118   5.879  1.00  0.00     0.202 A 
HETATM    4  N   UNL     1      42.048 -11.055   5.667  1.00  0.00    -0.231 NA
HETATM    5  C   UNL     1      43.105 -11.223   4.851  1.00  0.00     0.122 A 
HETATM    6  C   UNL     1      43.405 -12.415   4.241  1.00  0.00     0.052 A 
ENDROOT
BRANCH   1   7
HETATM    7  C   UNL     1      42.717 -14.791   3.926  1.00  0.00    -0.006 A 
HETATM    8  C   UNL     1      42.466 -15.036   2.569  1.00  0.00     0.014 A 
HETATM    9  C   UNL     1      42.689 -16.301   2.018  1.00  0.00     0.013 A 
HETATM   10  C   UNL     1      43.175 -17.352   2.808  1.00  0.00    -0.026 A 
HETATM   11  C   UNL     1      43.413 -18.623   2.262  1.00  0.00     0.012 A 
HETATM   12  C   UNL     1      43.421 -17.129   4.181  1.00  0.00    -0.025 A 
HETATM   13  C   UNL     1      43.895 -19.661   3.061  1.00  0.00     0.001 A 
HETATM   14  C   UNL     1      44.136 -19.444   4.414  1.00  0.00     0.001 A 
HETATM   15  C   UNL     1      43.897 -18.186   4.973  1.00  0.00     0.012 A 
HETATM   16  C   UNL     1      43.182 -15.854   4.721  1.00  0.00     0.026 A 
ENDBRANCH   1   7
BRANCH   3  17
HETATM   17  N   UNL     1      40.185 -11.930   6.725  1.00  0.00    -0.261 NA
HETATM   18  H   UNL     1      39.562 -12.699   6.465  1.00  0.00     0.130 HD
BRANCH  17  19
HETATM   19  C   UNL     1      39.548 -10.631   6.588  1.00  0.00     0.097 C 
BRANCH  19  20
HETATM   20  C   UNL     1      39.410  -9.962   7.956  1.00  0.00     0.042 C 
BRANCH  20  21
HETATM   21  C   UNL     1      40.562  -9.052   8.365  1.00  0.00     0.230 C 
BRANCH  21  22
HETATM   22  N   UNL     1      41.804  -9.812   8.612  1.00  0.00    -0.079 N 
HETATM   23  H   UNL     1      42.396  -9.291   9.292  1.00  0.00     0.274 HD
HETATM   24  H   UNL     1      41.653 -10.752   8.992  1.00  0.00     0.274 HD
HETATM   25  H   UNL     1      42.374  -9.900   7.764  1.00  0.00     0.274 HD
ENDBRANCH  21  22
ENDBRANCH  20  21
ENDBRANCH  19  20
ENDBRANCH  17  19
ENDBRANCH   3  17
TORSDOF 6
ENDMDL
