MODEL 1
REMARK VINA RESULT:      -8.4      0.000      0.000
REMARK  3 active torsions:
REMARK  status: ('A' for Active; 'I' for Inactive)
REMARK    1  A    between atoms: C_4  and  C_5 
REMARK    2  A    between atoms: C_9  and  C_10 
REMARK       I    between atoms: C_10  and  N_11 
REMARK    3  A    between atoms: N_11  and  C_12 
ROOT
HETATM    1  C   UNL     1      42.915 -13.090   3.799  1.00  0.00     0.276 C 
HETATM    2  N   UNL     1      42.977 -13.063   5.176  1.00  0.00    -0.317 N 
HETATM    3  O   UNL     1      42.718 -12.121   3.074  1.00  0.00    -0.266 OA
HETATM    4  H   UNL     1      43.136 -13.972   5.617  1.00  0.00     0.169 HD
ENDROOT
BRANCH   1   5
HETATM    5  C   UNL     1      43.103 -14.445   3.255  1.00  0.00     0.147 A 
HETATM    6  N   UNL     1      43.276 -14.669   1.937  1.00  0.00    -0.169 NA
HETATM    7  N   UNL     1      43.410 -16.004   1.851  1.00  0.00    -0.277 N 
HETATM    8  C   UNL     1      43.367 -16.662   3.054  1.00  0.00     0.063 A 
HETATM    9  H   UNL     1      43.526 -16.410   0.930  1.00  0.00     0.189 HD
HETATM   10  C   UNL     1      43.144 -15.661   3.981  1.00  0.00     0.071 A 
BRANCH   8  11
HETATM   11  C   UNL     1      43.518 -18.111   3.209  1.00  0.00    -0.008 A 
HETATM   12  C   UNL     1      43.206 -18.999   2.166  1.00  0.00     0.014 A 
HETATM   13  C   UNL     1      43.365 -20.379   2.328  1.00  0.00     0.001 A 
HETATM   14  C   UNL     1      43.842 -20.892   3.532  1.00  0.00     0.000 A 
HETATM   15  C   UNL     1      44.159 -20.027   4.574  1.00  0.00     0.001 A 
HETATM   16  C   UNL     1      43.998 -18.648   4.413  1.00  0.00     0.014 A 
ENDBRANCH   8  11
ENDBRANCH   1   5
BRANCH   2  17
HETATM   17  C   UNL     1      42.825 -11.995   6.029  1.00  0.00     0.102 A 
HETATM   18  C   UNL     1      44.082 -11.490   6.704  1.00  0.00     0.218 A 
HETATM   19  O   UNL     1      45.161 -12.032   6.464  1.00  0.00    -0.284 OA
HETATM   20  C   UNL     1      43.951 -10.336   7.658  1.00  0.00     0.078 A 
HETATM   21 BR   UNL     1      45.458  -9.692   8.534  1.00  0.00    -0.045 Br
HETATM   22  C   UNL     1      42.725  -9.823   7.834  1.00  0.00     0.111 A 
HETATM   23  N   UNL     1      41.610 -10.298   7.194  1.00  0.00    -0.372 N 
HETATM   24  C   UNL     1      41.681 -11.358   6.325  1.00  0.00     0.121 A 
HETATM   25  H   UNL     1      40.704  -9.872   7.377  1.00  0.00     0.164 HD
ENDBRANCH   2  17
TORSDOF 3
ENDMDL
MODEL 2
REMARK VINA RESULT:      -7.9      5.120      6.463
REMARK  3 active torsions:
REMARK  status: ('A' for Active; 'I' for Inactive)
REMARK    1  A    between atoms: C_4  and  C_5 
REMARK    2  A    between atoms: C_9  and  C_10 
REMARK       I    between atoms: C_10  and  N_11 
REMARK    3  A    between atoms: N_11  and  C_12 
ROOT
HETATM    1  C   UNL     1      40.611 -14.289   0.907  1.00  0.00     0.276 C 
HETATM    2  N   UNL     1      40.665 -14.164  -0.464  1.00  0.00    -0.317 N 
HETATM    3  O   UNL     1      39.804 -13.731   1.644  1.00  0.00    -0.266 OA
HETATM    4  H   UNL     1      41.415 -14.693  -0.915  1.00  0.00     0.169 HD
ENDROOT
BRANCH   1   5
HETATM    5  C   UNL     1      41.660 -15.178   1.433  1.00  0.00     0.147 A 
HETATM    6  N   UNL     1      42.946 -14.789   1.528  1.00  0.00    -0.169 NA
HETATM    7  N   UNL     1      43.571 -15.862   2.043  1.00  0.00    -0.277 N 
HETATM    8  C   UNL     1      42.749 -16.925   2.322  1.00  0.00     0.063 A 
HETATM    9  H   UNL     1      44.573 -15.806   2.180  1.00  0.00     0.189 HD
HETATM   10  C   UNL     1      41.498 -16.504   1.907  1.00  0.00     0.071 A 
BRANCH   8  11
HETATM   11  C   UNL     1      43.201 -18.187   2.912  1.00  0.00    -0.008 A 
HETATM   12  C   UNL     1      43.206 -19.383   2.177  1.00  0.00     0.014 A 
HETATM   13  C   UNL     1      43.651 -20.577   2.754  1.00  0.00     0.001 A 
HETATM   14  C   UNL     1      44.101 -20.593   4.071  1.00  0.00     0.000 A 
HETATM   15  C   UNL     1      44.107 -19.416   4.813  1.00  0.00     0.001 A 
HETATM   16  C   UNL     1      43.661 -18.223   4.237  1.00  0.00     0.014 A 
ENDBRANCH   8  11
ENDBRANCH   1   5
BRANCH   2  17
HETATM   17  C   UNL     1      39.872 -13.409  -1.297  1.00  0.00     0.102 A 
HETATM   18  C   UNL     1      40.297 -11.971  -1.506  1.00  0.00     0.218 A 
HETATM   19  O   UNL     1      41.310 -11.549  -0.949  1.00  0.00    -0.284 OA
HETATM   20  C   UNL     1      39.444 -11.110  -2.395  1.00  0.00     0.078 A 
HETATM   21 BR   UNL     1      39.904  -9.330  -2.668  1.00  0.00    -0.045 Br
HETATM   22  C   UNL     1      38.368 -11.683  -2.953  1.00  0.00     0.111 A 
HETATM   23  N   UNL     1      38.021 -12.993  -2.751  1.00  0.00    -0.372 N 
HETATM   24  C   UNL     1      38.764 -13.812  -1.938  1.00  0.00     0.121 A 
HETATM   25  H   UNL     1      37.186 -13.368  -3.196  1.00  0.00     0.164 HD
ENDBRANCH   2  17
TORSDOF 3
ENDMDL
MODEL 3
REMARK VINA RESULT:      -7.8      5.450      6.940
REMARK  3 active torsions:
REMARK  status: ('A' for Active; 'I' for Inactive)
REMARK    1  A    between atoms: C_4  and  C_5 
REMARK    2  A    between atoms: C_9  and  C_10 
REMARK       I    between atoms: C_10  and  N_11 
REMARK    3  A    between atoms: N_11  and  C_12 
ROOT
HETATM    1  C   UNL     1      40.454 -13.394   0.498  1.00  0.00     0.276 C 
HETATM    2  N   UNL     1      39.230 -13.537  -0.120  1.00  0.00    -0.317 N 
HETATM    3  O   UNL     1      41.234 -12.463   0.329  1.00  0.00    -0.266 OA
HETATM    4  H   UNL     1      38.718 -14.386   0.131  1.00  0.00     0.169 HD
ENDROOT
BRANCH   1   5
HETATM    5  C   UNL     1      40.759 -14.512   1.405  1.00  0.00     0.147 A 
HETATM    6  N   UNL     1      39.841 -15.019   2.251  1.00  0.00    -0.169 NA
HETATM    7  N   UNL     1      40.497 -16.003   2.889  1.00  0.00    -0.277 N 
HETATM    8  C   UNL     1      41.793 -16.188   2.477  1.00  0.00     0.063 A 
HETATM    9  H   UNL     1      39.999 -16.517   3.607  1.00  0.00     0.189 HD
HETATM   10  C   UNL     1      41.989 -15.206   1.523  1.00  0.00     0.071 A 
BRANCH   8  11
HETATM   11  C   UNL     1      42.690 -17.217   3.010  1.00  0.00    -0.008 A 
HETATM   12  C   UNL     1      43.329 -17.065   4.251  1.00  0.00     0.014 A 
HETATM   13  C   UNL     1      44.175 -18.062   4.748  1.00  0.00     0.001 A 
HETATM   14  C   UNL     1      44.391 -19.226   4.015  1.00  0.00     0.000 A 
HETATM   15  C   UNL     1      43.762 -19.395   2.786  1.00  0.00     0.001 A 
HETATM   16  C   UNL     1      42.919 -18.398   2.288  1.00  0.00     0.014 A 
ENDBRANCH   8  11
ENDBRANCH   1   5
BRANCH   2  17
HETATM   17  C   UNL     1      38.623 -12.714  -1.040  1.00  0.00     0.102 A 
HETATM   18  C   UNL     1      37.722 -11.632  -0.484  1.00  0.00     0.218 A 
HETATM   19  O   UNL     1      37.580 -11.526   0.735  1.00  0.00    -0.284 OA
HETATM   20  C   UNL     1      37.027 -10.727  -1.461  1.00  0.00     0.078 A 
HETATM   21 BR   UNL     1      35.891  -9.396  -0.835  1.00  0.00    -0.045 Br
HETATM   22  C   UNL     1      37.265 -10.935  -2.764  1.00  0.00     0.111 A 
HETATM   23  N   UNL     1      38.098 -11.917  -3.232  1.00  0.00    -0.372 N 
HETATM   24  C   UNL     1      38.743 -12.774  -2.376  1.00  0.00     0.121 A 
HETATM   25  H   UNL     1      38.231 -12.030  -4.234  1.00  0.00     0.164 HD
ENDBRANCH   2  17
TORSDOF 3
ENDMDL
MODEL 4
REMARK VINA RESULT:      -7.8      1.468      1.941
REMARK  3 active torsions:
REMARK  status: ('A' for Active; 'I' for Inactive)
REMARK    1  A    between atoms: C_4  and  C_5 
REMARK    2  A    between atoms: C_9  and  C_10 
REMARK       I    between atoms: C_10  and  N_11 
REMARK    3  A    between atoms: N_11  and  C_12 
ROOT
HETATM    1  C   UNL     1      41.987 -12.694   5.549  1.00  0.00     0.276 C 
HETATM    2  N   UNL     1      43.013 -11.826   5.857  1.00  0.00    -0.317 N 
HETATM    3  O   UNL     1      40.831 -12.605   5.949  1.00  0.00    -0.266 OA
HETATM    4  H   UNL     1      43.917 -12.065   5.444  1.00  0.00     0.169 HD
ENDROOT
BRANCH   1   5
HETATM    5  C   UNL     1      42.425 -13.792   4.670  1.00  0.00     0.147 A 
HETATM    6  N   UNL     1      42.805 -13.579   3.395  1.00  0.00    -0.169 NA
HETATM    7  N   UNL     1      43.124 -14.804   2.944  1.00  0.00    -0.277 N 
HETATM    8  C   UNL     1      43.003 -15.806   3.874  1.00  0.00     0.063 A 
HETATM    9  H   UNL     1      43.419 -14.892   1.978  1.00  0.00     0.189 HD
HETATM   10  C   UNL     1      42.525 -15.165   5.002  1.00  0.00     0.071 A 
BRANCH   8  11
HETATM   11  C   UNL     1      43.320 -17.213   3.618  1.00  0.00    -0.008 A 
HETATM   12  C   UNL     1      44.052 -17.982   4.537  1.00  0.00     0.014 A 
HETATM   13  C   UNL     1      44.337 -19.327   4.280  1.00  0.00     0.001 A 
HETATM   14  C   UNL     1      43.893 -19.924   3.104  1.00  0.00     0.000 A 
HETATM   15  C   UNL     1      43.163 -19.179   2.184  1.00  0.00     0.001 A 
HETATM   16  C   UNL     1      42.879 -17.834   2.439  1.00  0.00     0.014 A 
ENDBRANCH   8  11
ENDBRANCH   1   5
BRANCH   2  17
HETATM   17  C   UNL     1      42.991 -10.711   6.661  1.00  0.00     0.102 A 
HETATM   18  C   UNL     1      43.785 -10.794   7.947  1.00  0.00     0.218 A 
HETATM   19  O   UNL     1      44.410 -11.821   8.211  1.00  0.00    -0.284 OA
HETATM   20  C   UNL     1      43.768  -9.600   8.860  1.00  0.00     0.078 A 
HETATM   21 BR   UNL     1      44.705  -9.655  10.464  1.00  0.00    -0.045 Br
HETATM   22  C   UNL     1      43.057  -8.535   8.462  1.00  0.00     0.111 A 
HETATM   23  N   UNL     1      42.360  -8.491   7.284  1.00  0.00    -0.372 N 
HETATM   24  C   UNL     1      42.337  -9.562   6.427  1.00  0.00     0.121 A 
HETATM   25  H   UNL     1      41.830  -7.656   7.042  1.00  0.00     0.164 HD
ENDBRANCH   2  17
TORSDOF 3
ENDMDL
MODEL 5
REMARK VINA RESULT:      -7.5      2.395      3.168
REMARK  3 active torsions:
REMARK  status: ('A' for Active; 'I' for Inactive)
REMARK    1  A    between atoms: C_4  and  C_5 
REMARK    2  A    between atoms: C_9  and  C_10 
REMARK       I    between atoms: C_10  and  N_11 
REMARK    3  A    between atoms: N_11  and  C_12 
ROOT
HETATM    1  C   UNL     1      42.787 -13.101   3.508  1.00  0.00     0.276 C 
HETATM    2  N   UNL     1      41.609 -12.992   4.215  1.00  0.00    -0.317 N 
HETATM    3  O   UNL     1      43.565 -12.183   3.272  1.00  0.00    -0.266 OA
HETATM    4  H   UNL     1      41.078 -13.862   4.303  1.00  0.00     0.169 HD
ENDROOT
BRANCH   1   5
HETATM    5  C   UNL     1      43.031 -14.472   3.031  1.00  0.00     0.147 A 
HETATM    6  N   UNL     1      43.262 -14.747   1.732  1.00  0.00    -0.169 NA
HETATM    7  N   UNL     1      43.434 -16.079   1.709  1.00  0.00    -0.277 N 
HETATM    8  C   UNL     1      43.360 -16.688   2.937  1.00  0.00     0.063 A 
HETATM    9  H   UNL     1      43.598 -16.521   0.811  1.00  0.00     0.189 HD
HETATM   10  C   UNL     1      43.074 -15.654   3.810  1.00  0.00     0.071 A 
BRANCH   8  11
HETATM   11  C   UNL     1      43.542 -18.124   3.159  1.00  0.00    -0.008 A 
HETATM   12  C   UNL     1      44.019 -18.626   4.381  1.00  0.00     0.014 A 
HETATM   13  C   UNL     1      44.177 -20.001   4.579  1.00  0.00     0.001 A 
HETATM   14  C   UNL     1      43.858 -20.896   3.561  1.00  0.00     0.000 A 
HETATM   15  C   UNL     1      43.380 -20.417   2.346  1.00  0.00     0.001 A 
HETATM   16  C   UNL     1      43.224 -19.042   2.147  1.00  0.00     0.014 A 
ENDBRANCH   8  11
ENDBRANCH   1   5
BRANCH   2  17
HETATM   17  C   UNL     1      41.043 -11.877   4.788  1.00  0.00     0.102 A 
HETATM   18  C   UNL     1      40.073 -11.098   3.925  1.00  0.00     0.218 A 
HETATM   19  O   UNL     1      39.828 -11.486   2.783  1.00  0.00    -0.284 OA
HETATM   20  C   UNL     1      39.450  -9.862   4.512  1.00  0.00     0.078 A 
HETATM   21 BR   UNL     1      38.271  -8.853   3.489  1.00  0.00    -0.045 Br
HETATM   22  C   UNL     1      39.788  -9.543   5.769  1.00  0.00     0.111 A 
HETATM   23  N   UNL     1      40.660 -10.281   6.526  1.00  0.00    -0.372 N 
HETATM   24  C   UNL     1      41.262 -11.408   6.026  1.00  0.00     0.121 A 
HETATM   25  H   UNL     1      40.885  -9.981   7.472  1.00  0.00     0.164 HD
ENDBRANCH   2  17
TORSDOF 3
ENDMDL
MODEL 6
REMARK VINA RESULT:      -7.5      3.917      4.900
REMARK  3 active torsions:
REMARK  status: ('A' for Active; 'I' for Inactive)
REMARK    1  A    between atoms: C_4  and  C_5 
REMARK    2  A    between atoms: C_9  and  C_10 
REMARK       I    between atoms: C_10  and  N_11 
REMARK    3  A    between atoms: N_11  and  C_12 
ROOT
HETATM    1  C   UNL     1      41.927 -13.327   3.286  1.00  0.00     0.276 C 
HETATM    2  N   UNL     1      40.553 -13.382   3.195  1.00  0.00    -0.317 N 
HETATM    3  O   UNL     1      42.621 -12.347   3.033  1.00  0.00    -0.266 OA
HETATM    4  H   UNL     1      40.142 -14.288   3.432  1.00  0.00     0.169 HD
ENDROOT
BRANCH   1   5
HETATM    5  C   UNL     1      42.513 -14.605   3.721  1.00  0.00     0.147 A 
HETATM    6  N   UNL     1      43.141 -14.738   4.906  1.00  0.00    -0.169 NA
HETATM    7  N   UNL     1      43.523 -16.027   4.926  1.00  0.00    -0.277 N 
HETATM    8  C   UNL     1      43.146 -16.754   3.825  1.00  0.00     0.063 A 
HETATM    9  H   UNL     1      44.048 -16.353   5.729  1.00  0.00     0.189 HD
HETATM   10  C   UNL     1      42.504 -15.834   3.015  1.00  0.00     0.071 A 
BRANCH   8  11
HETATM   11  C   UNL     1      43.427 -18.179   3.640  1.00  0.00    -0.008 A 
HETATM   12  C   UNL     1      43.919 -18.974   4.687  1.00  0.00     0.014 A 
HETATM   13  C   UNL     1      44.174 -20.336   4.495  1.00  0.00     0.001 A 
HETATM   14  C   UNL     1      43.936 -20.925   3.256  1.00  0.00     0.000 A 
HETATM   15  C   UNL     1      43.445 -20.153   2.208  1.00  0.00     0.001 A 
HETATM   16  C   UNL     1      43.193 -18.791   2.399  1.00  0.00     0.014 A 
ENDBRANCH   8  11
ENDBRANCH   1   5
BRANCH   2  17
HETATM   17  C   UNL     1      39.671 -12.402   2.802  1.00  0.00     0.102 A 
HETATM   18  C   UNL     1      39.223 -12.441   1.357  1.00  0.00     0.218 A 
HETATM   19  O   UNL     1      39.644 -13.327   0.613  1.00  0.00    -0.284 OA
HETATM   20  C   UNL     1      38.274 -11.374   0.888  1.00  0.00     0.078 A 
HETATM   21 BR   UNL     1      37.711 -11.358  -0.883  1.00  0.00    -0.045 Br
HETATM   22  C   UNL     1      37.880 -10.465   1.792  1.00  0.00     0.111 A 
HETATM   23  N   UNL     1      38.296 -10.469   3.096  1.00  0.00    -0.372 N 
HETATM   24  C   UNL     1      39.171 -11.417   3.564  1.00  0.00     0.121 A 
HETATM   25  H   UNL     1      37.967  -9.746   3.732  1.00  0.00     0.164 HD
ENDBRANCH   2  17
TORSDOF 3
ENDMDL
MODEL 7
REMARK VINA RESULT:      -7.2      3.225      3.949
REMARK  3 active torsions:
REMARK  status: ('A' for Active; 'I' for Inactive)
REMARK    1  A    between atoms: C_4  and  C_5 
REMARK    2  A    between atoms: C_9  and  C_10 
REMARK       I    between atoms: C_10  and  N_11 
REMARK    3  A    between atoms: N_11  and  C_12 
ROOT
HETATM    1  C   UNL     1      41.949 -13.631   5.203  1.00  0.00     0.276 C 
HETATM    2  N   UNL     1      42.193 -12.851   4.093  1.00  0.00    -0.317 N 
HETATM    3  O   UNL     1      41.221 -13.328   6.143  1.00  0.00    -0.266 OA
HETATM    4  H   UNL     1      42.839 -13.260   3.414  1.00  0.00     0.169 HD
ENDROOT
BRANCH   1   5
HETATM    5  C   UNL     1      42.681 -14.908   5.164  1.00  0.00     0.147 A 
HETATM    6  N   UNL     1      43.708 -15.170   5.995  1.00  0.00    -0.169 NA
HETATM    7  N   UNL     1      44.095 -16.410   5.650  1.00  0.00    -0.277 N 
HETATM    8  C   UNL     1      43.348 -16.987   4.655  1.00  0.00     0.063 A 
HETATM    9  H   UNL     1      44.889 -16.811   6.137  1.00  0.00     0.189 HD
HETATM   10  C   UNL     1      42.433 -16.010   4.308  1.00  0.00     0.071 A 
BRANCH   8  11
HETATM   11  C   UNL     1      43.568 -18.339   4.135  1.00  0.00    -0.008 A 
HETATM   12  C   UNL     1      43.965 -19.394   4.972  1.00  0.00     0.014 A 
HETATM   13  C   UNL     1      44.161 -20.680   4.461  1.00  0.00     0.001 A 
HETATM   14  C   UNL     1      43.960 -20.933   3.106  1.00  0.00     0.000 A 
HETATM   15  C   UNL     1      43.563 -19.901   2.263  1.00  0.00     0.001 A 
HETATM   16  C   UNL     1      43.368 -18.614   2.774  1.00  0.00     0.014 A 
ENDBRANCH   8  11
ENDBRANCH   1   5
BRANCH   2  17
HETATM   17  C   UNL     1      41.712 -11.598   3.792  1.00  0.00     0.102 A 
HETATM   18  C   UNL     1      40.354 -11.542   3.126  1.00  0.00     0.218 A 
HETATM   19  O   UNL     1      39.745 -12.587   2.896  1.00  0.00    -0.284 OA
HETATM   20  C   UNL     1      39.805 -10.190   2.766  1.00  0.00     0.078 A 
HETATM   21 BR   UNL     1      38.153 -10.062   1.925  1.00  0.00    -0.045 Br
HETATM   22  C   UNL     1      40.556  -9.122   3.073  1.00  0.00     0.111 A 
HETATM   23  N   UNL     1      41.776  -9.211   3.689  1.00  0.00    -0.372 N 
HETATM   24  C   UNL     1      42.321 -10.425   4.024  1.00  0.00     0.121 A 
HETATM   25  H   UNL     1      42.303  -8.363   3.888  1.00  0.00     0.164 HD
ENDBRANCH   2  17
TORSDOF 3
ENDMDL
MODEL 8
REMARK VINA RESULT:      -7.2      2.001      2.324
REMARK  3 active torsions:
REMARK  status: ('A' for Active; 'I' for Inactive)
REMARK    1  A    between atoms: C_4  and  C_5 
REMARK    2  A    between atoms: C_9  and  C_10 
REMARK       I    between atoms: C_10  and  N_11 
REMARK    3  A    between atoms: N_11  and  C_12 
ROOT
HETATM    1  C   UNL     1      42.048 -13.487   5.524  1.00  0.00     0.276 C 
HETATM    2  N   UNL     1      42.802 -12.341   5.383  1.00  0.00    -0.317 N 
HETATM    3  O   UNL     1      41.102 -13.629   6.291  1.00  0.00    -0.266 OA
HETATM    4  H   UNL     1      43.563 -12.409   4.703  1.00  0.00     0.169 HD
ENDROOT
BRANCH   1   5
HETATM    5  C   UNL     1      42.507 -14.574   4.644  1.00  0.00     0.147 A 
HETATM    6  N   UNL     1      43.006 -14.337   3.415  1.00  0.00    -0.169 NA
HETATM    7  N   UNL     1      43.304 -15.561   2.946  1.00  0.00    -0.277 N 
HETATM    8  C   UNL     1      43.056 -16.587   3.823  1.00  0.00     0.063 A 
HETATM    9  H   UNL     1      43.677 -15.630   2.006  1.00  0.00     0.189 HD
HETATM   10  C   UNL     1      42.513 -15.961   4.931  1.00  0.00     0.071 A 
BRANCH   8  11
HETATM   11  C   UNL     1      43.327 -17.998   3.541  1.00  0.00    -0.008 A 
HETATM   12  C   UNL     1      43.057 -18.563   2.285  1.00  0.00     0.014 A 
HETATM   13  C   UNL     1      43.331 -19.911   2.031  1.00  0.00     0.001 A 
HETATM   14  C   UNL     1      43.883 -20.713   3.026  1.00  0.00     0.000 A 
HETATM   15  C   UNL     1      44.162 -20.168   4.275  1.00  0.00     0.001 A 
HETATM   16  C   UNL     1      43.886 -18.822   4.531  1.00  0.00     0.014 A 
ENDBRANCH   8  11
ENDBRANCH   1   5
BRANCH   2  17
HETATM   17  C   UNL     1      42.688 -11.142   6.047  1.00  0.00     0.102 A 
HETATM   18  C   UNL     1      41.814 -10.093   5.394  1.00  0.00     0.218 A 
HETATM   19  O   UNL     1      41.247 -10.349   4.332  1.00  0.00    -0.284 OA
HETATM   20  C   UNL     1      41.682  -8.763   6.083  1.00  0.00     0.078 A 
HETATM   21 BR   UNL     1      40.641  -7.429   5.314  1.00  0.00    -0.045 Br
HETATM   22  C   UNL     1      42.342  -8.604   7.239  1.00  0.00     0.111 A 
HETATM   23  N   UNL     1      43.114  -9.582   7.808  1.00  0.00    -0.372 N 
HETATM   24  C   UNL     1      43.273 -10.806   7.208  1.00  0.00     0.121 A 
HETATM   25  H   UNL     1      43.598  -9.397   8.683  1.00  0.00     0.164 HD
ENDBRANCH   2  17
TORSDOF 3
ENDMDL
MODEL 9
REMARK VINA RESULT:      -7.1      5.557      6.580
REMARK  3 active torsions:
REMARK  status: ('A' for Active; 'I' for Inactive)
REMARK    1  A    between atoms: C_4  and  C_5 
REMARK    2  A    between atoms: C_9  and  C_10 
REMARK       I    between atoms: C_10  and  N_11 
REMARK    3  A    between atoms: N_11  and  C_12 
ROOT
HETATM    1  C   UNL     1      40.429 -13.131   0.678  1.00  0.00     0.276 C 
HETATM    2  N   UNL     1      39.105 -12.782   0.840  1.00  0.00    -0.317 N 
HETATM    3  O   UNL     1      41.275 -12.466   0.089  1.00  0.00    -0.266 OA
HETATM    4  H   UNL     1      38.539 -13.466   1.347  1.00  0.00     0.169 HD
ENDROOT
BRANCH   1   5
HETATM    5  C   UNL     1      40.746 -14.432   1.288  1.00  0.00     0.147 A 
HETATM    6  N   UNL     1      39.848 -15.436   1.338  1.00  0.00    -0.169 NA
HETATM    7  N   UNL     1      40.509 -16.429   1.957  1.00  0.00    -0.277 N 
HETATM    8  C   UNL     1      41.809 -16.136   2.284  1.00  0.00     0.063 A 
HETATM    9  H   UNL     1      40.010 -17.294   2.132  1.00  0.00     0.189 HD
HETATM   10  C   UNL     1      41.974 -14.826   1.874  1.00  0.00     0.071 A 
BRANCH   8  11
HETATM   11  C   UNL     1      42.728 -17.071   2.938  1.00  0.00    -0.008 A 
HETATM   12  C   UNL     1      43.122 -18.269   2.320  1.00  0.00     0.014 A 
HETATM   13  C   UNL     1      44.007 -19.146   2.955  1.00  0.00     0.001 A 
HETATM   14  C   UNL     1      44.515 -18.837   4.214  1.00  0.00     0.000 A 
HETATM   15  C   UNL     1      44.139 -17.652   4.839  1.00  0.00     0.001 A 
HETATM   16  C   UNL     1      43.253 -16.777   4.205  1.00  0.00     0.014 A 
ENDBRANCH   8  11
ENDBRANCH   1   5
BRANCH   2  17
HETATM   17  C   UNL     1      38.443 -11.663   0.390  1.00  0.00     0.102 A 
HETATM   18  C   UNL     1      37.726 -11.795  -0.937  1.00  0.00     0.218 A 
HETATM   19  O   UNL     1      37.753 -12.868  -1.539  1.00  0.00    -0.284 OA
HETATM   20  C   UNL     1      37.008 -10.586  -1.469  1.00  0.00     0.078 A 
HETATM   21 BR   UNL     1      36.132 -10.683  -3.105  1.00  0.00    -0.045 Br
HETATM   22  C   UNL     1      37.043  -9.474  -0.720  1.00  0.00     0.111 A 
HETATM   23  N   UNL     1      37.692  -9.396   0.484  1.00  0.00    -0.372 N 
HETATM   24  C   UNL     1      38.370 -10.470   1.001  1.00  0.00     0.121 A 
HETATM   25  H   UNL     1      37.690  -8.520   1.001  1.00  0.00     0.164 HD
ENDBRANCH   2  17
TORSDOF 3
ENDMDL
MODEL 10
REMARK VINA RESULT:      -7.1      7.522     10.526
REMARK  3 active torsions:
REMARK  status: ('A' for Active; 'I' for Inactive)
REMARK    1  A    between atoms: C_4  and  C_5 
REMARK    2  A    between atoms: C_9  and  C_10 
REMARK       I    between atoms: C_10  and  N_11 
REMARK    3  A    between atoms: N_11  and  C_12 
ROOT
HETATM    1  C   UNL     1      42.799  -8.120  13.487  1.00  0.00     0.276 C 
HETATM    2  N   UNL     1      41.557  -8.354  14.038  1.00  0.00    -0.317 N 
HETATM    3  O   UNL     1      43.576  -7.234  13.829  1.00  0.00    -0.266 OA
HETATM    4  H   UNL     1      41.040  -9.129  13.617  1.00  0.00     0.169 HD
ENDROOT
BRANCH   1   5
HETATM    5  C   UNL     1      43.117  -9.058  12.399  1.00  0.00     0.147 A 
HETATM    6  N   UNL     1      42.616 -10.309  12.362  1.00  0.00    -0.169 NA
HETATM    7  N   UNL     1      43.132 -10.831  11.237  1.00  0.00    -0.277 N 
HETATM    8  C   UNL     1      43.921  -9.971  10.515  1.00  0.00     0.063 A 
HETATM    9  H   UNL     1      42.907 -11.794  11.015  1.00  0.00     0.189 HD
HETATM   10  C   UNL     1      43.941  -8.814  11.272  1.00  0.00     0.071 A 
BRANCH   8  11
HETATM   11  C   UNL     1      44.566 -10.310   9.244  1.00  0.00    -0.008 A 
HETATM   12  C   UNL     1      43.978 -11.205   8.336  1.00  0.00     0.014 A 
HETATM   13  C   UNL     1      44.604 -11.511   7.124  1.00  0.00     0.001 A 
HETATM   14  C   UNL     1      45.824 -10.924   6.798  1.00  0.00     0.000 A 
HETATM   15  C   UNL     1      46.419 -10.032   7.684  1.00  0.00     0.001 A 
HETATM   16  C   UNL     1      45.795  -9.728   8.898  1.00  0.00     0.014 A 
ENDBRANCH   8  11
ENDBRANCH   1   5
BRANCH   2  17
HETATM   17  C   UNL     1      40.915  -7.675  15.047  1.00  0.00     0.102 A 
HETATM   18  C   UNL     1      39.897  -6.640  14.617  1.00  0.00     0.218 A 
HETATM   19  O   UNL     1      39.681  -6.460  13.419  1.00  0.00    -0.284 OA
HETATM   20  C   UNL     1      39.189  -5.864  15.693  1.00  0.00     0.078 A 
HETATM   21 BR   UNL     1      37.947  -4.565  15.223  1.00  0.00    -0.045 Br
HETATM   22  C   UNL     1      39.502  -6.154  16.964  1.00  0.00     0.111 A 
HETATM   23  N   UNL     1      40.421  -7.107  17.316  1.00  0.00    -0.372 N 
HETATM   24  C   UNL     1      41.100  -7.830  16.367  1.00  0.00     0.121 A 
HETATM   25  H   UNL     1      40.622  -7.275  18.299  1.00  0.00     0.164 HD
ENDBRANCH   2  17
TORSDOF 3
ENDMDL
