MODEL 1
REMARK VINA RESULT:      -9.3      0.000      0.000
REMARK  9 active torsions:
REMARK  status: ('A' for Active; 'I' for Inactive)
REMARK    1  A    between atoms: C_2  and  C_3 
REMARK    2  A    between atoms: C_3  and  C_4 
REMARK    3  A    between atoms: C_3  and  C_39 
REMARK    4  A    between atoms: C_6  and  C_7 
REMARK    5  A    between atoms: C_14  and  C_15 
REMARK    6  A    between atoms: C_18  and  C_19 
REMARK    7  A    between atoms: C_19  and  N_20 
REMARK       I    between atoms: N_20  and  C_21 
REMARK       I    between atoms: C_21  and  N_22 
REMARK    8  A    between atoms: N_22  and  C_23 
REMARK    9  A    between atoms: C_26  and  C_27 
ROOT
HETATM    1  C   UNL     1      40.356 -10.275   4.290  1.00  0.00     0.068 C 
HETATM    2  C   UNL     1      39.161 -11.157   3.829  1.00  0.00     0.001 C 
HETATM    3  C   UNL     1      39.662 -12.238   2.842  1.00  0.00     0.040 C 
HETATM    4  C   UNL     1      40.224 -11.586   1.565  1.00  0.00     0.206 C 
HETATM    5  N   UNL     1      40.247 -10.081   1.812  1.00  0.00    -0.065 N 
HETATM    6  H   UNL     1      40.743  -9.643   1.006  1.00  0.00     0.280 HD
HETATM    7  C   UNL     1      41.046  -9.684   3.045  1.00  0.00     0.246 C 
HETATM    8  C   UNL     1      38.160 -10.249   3.079  1.00  0.00     0.033 C 
HETATM    9  C   UNL     1      38.843  -9.545   1.901  1.00  0.00     0.236 C 
ENDROOT
BRANCH   1  10
HETATM   10  C   UNL     1      41.301 -11.030   5.203  1.00  0.00     0.045 A 
HETATM   11  N   UNL     1      42.311 -10.342   5.772  1.00  0.00    -0.233 NA
HETATM   12  C   UNL     1      43.180 -11.044   6.533  1.00  0.00     0.160 A 
HETATM   13  N   UNL     1      43.129 -12.376   6.697  1.00  0.00    -0.233 NA
HETATM   14  C   UNL     1      42.118 -13.049   6.110  1.00  0.00     0.043 A 
HETATM   15  C   UNL     1      41.155 -12.396   5.365  1.00  0.00     0.055 A 
BRANCH  12  16
HETATM   16  C   UNL     1      44.249 -10.305   7.225  1.00  0.00     0.014 A 
HETATM   17  C   UNL     1      43.973  -9.155   7.978  1.00  0.00     0.034 A 
HETATM   18  C   UNL     1      45.009  -8.488   8.613  1.00  0.00     0.117 A 
HETATM   19  N   UNL     1      46.297  -8.882   8.553  1.00  0.00    -0.273 NA
HETATM   20  C   UNL     1      46.562  -9.976   7.815  1.00  0.00     0.117 A 
HETATM   21  C   UNL     1      45.593 -10.707   7.148  1.00  0.00     0.034 A 
ENDBRANCH  12  16
BRANCH  14  22
HETATM   22  C   UNL     1      42.102 -14.553   6.319  1.00  0.00     0.037 C 
BRANCH  22  23
HETATM   23  C   UNL     1      40.677 -15.149   6.401  1.00  0.00     0.006 C 
HETATM   24  C   UNL     1      40.392 -16.193   5.329  1.00  0.00     0.006 C 
ENDBRANCH  22  23
BRANCH  22  25
HETATM   25  C   UNL     1      42.911 -14.952   7.572  1.00  0.00     0.006 C 
HETATM   26  C   UNL     1      43.199 -16.447   7.652  1.00  0.00     0.006 C 
ENDBRANCH  22  25
ENDBRANCH  14  22
ENDBRANCH   1  10
BRANCH   4  27
HETATM   27  C   UNL     1      41.590 -12.169   1.117  1.00  0.00     0.157 C 
BRANCH  27  28
HETATM   28  N   UNL     1      42.260 -13.024   2.101  1.00  0.00    -0.341 N 
HETATM   29  C   UNL     1      42.161 -14.395   2.069  1.00  0.00     0.320 C 
HETATM   30  N   UNL     1      43.000 -15.002   2.964  1.00  0.00    -0.309 N 
HETATM   31  O   UNL     1      41.349 -14.951   1.335  1.00  0.00    -0.247 OA
HETATM   32  H   UNL     1      43.372 -14.422   3.703  1.00  0.00     0.170 HD
HETATM   33  H   UNL     1      43.160 -12.688   2.422  1.00  0.00     0.164 HD
BRANCH  30  34
HETATM   34  C   UNL     1      43.221 -16.391   3.091  1.00  0.00     0.036 A 
HETATM   35  C   UNL     1      42.875 -17.318   2.104  1.00  0.00     0.030 A 
HETATM   36  C   UNL     1      43.117 -18.685   2.288  1.00  0.00     0.017 A 
HETATM   37  C   UNL     1      43.715 -19.142   3.463  1.00  0.00     0.009 A 
HETATM   38  C   UNL     1      44.083 -18.213   4.444  1.00  0.00     0.017 A 
HETATM   39  C   UNL     1      43.844 -16.846   4.256  1.00  0.00     0.030 A 
BRANCH  37  40
HETATM   40  C   UNL     1      43.977 -20.590   3.713  1.00  0.00     0.155 C 
HETATM   41  C   UNL     1      44.178 -21.065   5.128  1.00  0.00     0.096 C 
HETATM   42  O   UNL     1      44.027 -21.369   2.764  1.00  0.00    -0.293 OA
ENDBRANCH  37  40
ENDBRANCH  30  34
ENDBRANCH  27  28
ENDBRANCH   4  27
TORSDOF 9
ENDMDL
MODEL 2
REMARK VINA RESULT:      -9.2      4.201      9.140
REMARK  9 active torsions:
REMARK  status: ('A' for Active; 'I' for Inactive)
REMARK    1  A    between atoms: C_2  and  C_3 
REMARK    2  A    between atoms: C_3  and  C_4 
REMARK    3  A    between atoms: C_3  and  C_39 
REMARK    4  A    between atoms: C_6  and  C_7 
REMARK    5  A    between atoms: C_14  and  C_15 
REMARK    6  A    between atoms: C_18  and  C_19 
REMARK    7  A    between atoms: C_19  and  N_20 
REMARK       I    between atoms: N_20  and  C_21 
REMARK       I    between atoms: C_21  and  N_22 
REMARK    8  A    between atoms: N_22  and  C_23 
REMARK    9  A    between atoms: C_26  and  C_27 
ROOT
HETATM    1  C   UNL     1      39.623 -12.642   4.762  1.00  0.00     0.068 C 
HETATM    2  C   UNL     1      39.558 -11.118   4.458  1.00  0.00     0.001 C 
HETATM    3  C   UNL     1      40.957 -10.487   4.658  1.00  0.00     0.040 C 
HETATM    4  C   UNL     1      41.401 -10.608   6.127  1.00  0.00     0.206 C 
HETATM    5  N   UNL     1      40.363 -11.476   6.831  1.00  0.00    -0.065 N 
HETATM    6  H   UNL     1      40.721 -11.669   7.791  1.00  0.00     0.280 HD
HETATM    7  C   UNL     1      40.180 -12.842   6.185  1.00  0.00     0.246 C 
HETATM    8  C   UNL     1      38.590 -10.471   5.476  1.00  0.00     0.033 C 
HETATM    9  C   UNL     1      39.045 -10.753   6.912  1.00  0.00     0.236 C 
ENDROOT
BRANCH   1  10
HETATM   10  C   UNL     1      40.394 -13.400   3.700  1.00  0.00     0.045 A 
HETATM   11  N   UNL     1      40.082 -13.170   2.409  1.00  0.00    -0.233 NA
HETATM   12  C   UNL     1      40.736 -13.900   1.479  1.00  0.00     0.160 A 
HETATM   13  N   UNL     1      41.616 -14.871   1.769  1.00  0.00    -0.233 NA
HETATM   14  C   UNL     1      41.907 -15.097   3.067  1.00  0.00     0.043 A 
HETATM   15  C   UNL     1      41.326 -14.352   4.075  1.00  0.00     0.055 A 
BRANCH  12  16
HETATM   16  C   UNL     1      40.468 -13.616   0.059  1.00  0.00     0.014 A 
HETATM   17  C   UNL     1      40.904 -12.426  -0.543  1.00  0.00     0.034 A 
HETATM   18  C   UNL     1      40.629 -12.197  -1.882  1.00  0.00     0.117 A 
HETATM   19  N   UNL     1      39.954 -13.063  -2.663  1.00  0.00    -0.273 NA
HETATM   20  C   UNL     1      39.521 -14.195  -2.080  1.00  0.00     0.117 A 
HETATM   21  C   UNL     1      39.750 -14.511  -0.750  1.00  0.00     0.034 A 
ENDBRANCH  12  16
BRANCH  14  22
HETATM   22  C   UNL     1      42.905 -16.206   3.349  1.00  0.00     0.037 C 
BRANCH  22  23
HETATM   23  C   UNL     1      42.808 -17.390   2.359  1.00  0.00     0.006 C 
HETATM   24  C   UNL     1      43.648 -18.594   2.767  1.00  0.00     0.006 C 
ENDBRANCH  22  23
BRANCH  22  25
HETATM   25  C   UNL     1      42.773 -16.721   4.799  1.00  0.00     0.006 C 
HETATM   26  C   UNL     1      43.992 -16.410   5.662  1.00  0.00     0.006 C 
ENDBRANCH  22  25
ENDBRANCH  14  22
ENDBRANCH   1  10
BRANCH   4  27
HETATM   27  C   UNL     1      42.859 -11.110   6.299  1.00  0.00     0.157 C 
BRANCH  27  28
HETATM   28  N   UNL     1      43.343 -11.172   7.681  1.00  0.00    -0.341 N 
HETATM   29  C   UNL     1      42.995 -10.232   8.622  1.00  0.00     0.320 C 
HETATM   30  N   UNL     1      43.410 -10.575   9.880  1.00  0.00    -0.309 N 
HETATM   31  O   UNL     1      42.425  -9.195   8.296  1.00  0.00    -0.247 OA
HETATM   32  H   UNL     1      44.123 -11.287   9.946  1.00  0.00     0.170 HD
HETATM   33  H   UNL     1      43.451 -12.107   8.057  1.00  0.00     0.164 HD
BRANCH  30  34
HETATM   34  C   UNL     1      43.106  -9.885  11.075  1.00  0.00     0.036 A 
HETATM   35  C   UNL     1      43.847  -8.796  11.543  1.00  0.00     0.030 A 
HETATM   36  C   UNL     1      43.500  -8.152  12.738  1.00  0.00     0.017 A 
HETATM   37  C   UNL     1      42.400  -8.590  13.479  1.00  0.00     0.009 A 
HETATM   38  C   UNL     1      41.644  -9.667  13.000  1.00  0.00     0.017 A 
HETATM   39  C   UNL     1      41.991 -10.305  11.803  1.00  0.00     0.030 A 
BRANCH  37  40
HETATM   40  C   UNL     1      42.001  -7.949  14.766  1.00  0.00     0.155 C 
HETATM   41  C   UNL     1      42.706  -6.694  15.208  1.00  0.00     0.096 C 
HETATM   42  O   UNL     1      41.109  -8.454  15.443  1.00  0.00    -0.293 OA
ENDBRANCH  37  40
ENDBRANCH  30  34
ENDBRANCH  27  28
ENDBRANCH   4  27
TORSDOF 9
ENDMDL
MODEL 3
REMARK VINA RESULT:      -8.9      2.999      4.192
REMARK  9 active torsions:
REMARK  status: ('A' for Active; 'I' for Inactive)
REMARK    1  A    between atoms: C_2  and  C_3 
REMARK    2  A    between atoms: C_3  and  C_4 
REMARK    3  A    between atoms: C_3  and  C_39 
REMARK    4  A    between atoms: C_6  and  C_7 
REMARK    5  A    between atoms: C_14  and  C_15 
REMARK    6  A    between atoms: C_18  and  C_19 
REMARK    7  A    between atoms: C_19  and  N_20 
REMARK       I    between atoms: N_20  and  C_21 
REMARK       I    between atoms: C_21  and  N_22 
REMARK    8  A    between atoms: N_22  and  C_23 
REMARK    9  A    between atoms: C_26  and  C_27 
ROOT
HETATM    1  C   UNL     1      40.864  -8.037   6.910  1.00  0.00     0.068 C 
HETATM    2  C   UNL     1      39.436  -8.630   6.742  1.00  0.00     0.001 C 
HETATM    3  C   UNL     1      39.514  -9.961   5.957  1.00  0.00     0.040 C 
HETATM    4  C   UNL     1      40.042  -9.719   4.531  1.00  0.00     0.206 C 
HETATM    5  N   UNL     1      40.472  -8.257   4.463  1.00  0.00    -0.065 N 
HETATM    6  H   UNL     1      40.948  -8.117   3.546  1.00  0.00     0.280 HD
HETATM    7  C   UNL     1      41.505  -7.881   5.517  1.00  0.00     0.246 C 
HETATM    8  C   UNL     1      38.601  -7.630   5.910  1.00  0.00     0.033 C 
HETATM    9  C   UNL     1      39.272  -7.354   4.559  1.00  0.00     0.236 C 
ENDROOT
BRANCH   1  10
HETATM   10  C   UNL     1      41.706  -8.848   7.875  1.00  0.00     0.045 A 
HETATM   11  N   UNL     1      41.493  -8.677   9.195  1.00  0.00    -0.233 NA
HETATM   12  C   UNL     1      42.295  -9.361  10.040  1.00  0.00     0.160 A 
HETATM   13  N   UNL     1      43.316 -10.138   9.643  1.00  0.00    -0.233 NA
HETATM   14  C   UNL     1      43.522 -10.288   8.319  1.00  0.00     0.043 A 
HETATM   15  C   UNL     1      42.708  -9.669   7.389  1.00  0.00     0.055 A 
BRANCH  12  16
HETATM   16  C   UNL     1      42.036  -9.250  11.486  1.00  0.00     0.014 A 
HETATM   17  C   UNL     1      40.875  -9.785  12.063  1.00  0.00     0.034 A 
HETATM   18  C   UNL     1      40.669  -9.656  13.428  1.00  0.00     0.117 A 
HETATM   19  N   UNL     1      41.532  -9.036  14.257  1.00  0.00    -0.273 NA
HETATM   20  C   UNL     1      42.636  -8.507  13.698  1.00  0.00     0.117 A 
HETATM   21  C   UNL     1      42.927  -8.588  12.346  1.00  0.00     0.034 A 
ENDBRANCH  12  16
BRANCH  14  22
HETATM   22  C   UNL     1      44.689 -11.172   7.916  1.00  0.00     0.037 C 
BRANCH  22  23
HETATM   23  C   UNL     1      46.052 -10.443   7.938  1.00  0.00     0.006 C 
HETATM   24  C   UNL     1      45.944  -8.963   8.284  1.00  0.00     0.006 C 
ENDBRANCH  22  23
BRANCH  22  25
HETATM   25  C   UNL     1      44.455 -11.808   6.528  1.00  0.00     0.006 C 
HETATM   26  C   UNL     1      43.935 -13.239   6.601  1.00  0.00     0.006 C 
ENDBRANCH  22  25
ENDBRANCH  14  22
ENDBRANCH   1  10
BRANCH   4  27
HETATM   27  C   UNL     1      41.147 -10.718   4.098  1.00  0.00     0.157 C 
BRANCH  27  28
HETATM   28  N   UNL     1      40.772 -12.134   4.160  1.00  0.00    -0.341 N 
HETATM   29  C   UNL     1      41.597 -13.132   3.697  1.00  0.00     0.320 C 
HETATM   30  N   UNL     1      41.133 -14.381   4.010  1.00  0.00    -0.309 N 
HETATM   31  O   UNL     1      42.595 -12.867   3.033  1.00  0.00    -0.247 OA
HETATM   32  H   UNL     1      40.162 -14.451   4.279  1.00  0.00     0.170 HD
HETATM   33  H   UNL     1      40.226 -12.399   4.972  1.00  0.00     0.164 HD
BRANCH  30  34
HETATM   34  C   UNL     1      41.807 -15.602   3.783  1.00  0.00     0.036 A 
HETATM   35  C   UNL     1      41.778 -16.280   2.561  1.00  0.00     0.030 A 
HETATM   36  C   UNL     1      42.463 -17.490   2.396  1.00  0.00     0.017 A 
HETATM   37  C   UNL     1      43.193 -18.035   3.455  1.00  0.00     0.009 A 
HETATM   38  C   UNL     1      43.242 -17.346   4.673  1.00  0.00     0.017 A 
HETATM   39  C   UNL     1      42.559 -16.134   4.833  1.00  0.00     0.030 A 
BRANCH  37  40
HETATM   40  C   UNL     1      43.926 -19.330   3.334  1.00  0.00     0.155 C 
HETATM   41  C   UNL     1      43.722 -20.174   2.104  1.00  0.00     0.096 C 
HETATM   42  O   UNL     1      44.680 -19.686   4.236  1.00  0.00    -0.293 OA
ENDBRANCH  37  40
ENDBRANCH  30  34
ENDBRANCH  27  28
ENDBRANCH   4  27
TORSDOF 9
ENDMDL
MODEL 4
REMARK VINA RESULT:      -8.7      2.769      7.695
REMARK  9 active torsions:
REMARK  status: ('A' for Active; 'I' for Inactive)
REMARK    1  A    between atoms: C_2  and  C_3 
REMARK    2  A    between atoms: C_3  and  C_4 
REMARK    3  A    between atoms: C_3  and  C_39 
REMARK    4  A    between atoms: C_6  and  C_7 
REMARK    5  A    between atoms: C_14  and  C_15 
REMARK    6  A    between atoms: C_18  and  C_19 
REMARK    7  A    between atoms: C_19  and  N_20 
REMARK       I    between atoms: N_20  and  C_21 
REMARK       I    between atoms: C_21  and  N_22 
REMARK    8  A    between atoms: N_22  and  C_23 
REMARK    9  A    between atoms: C_26  and  C_27 
ROOT
HETATM    1  C   UNL     1      42.754 -14.932   2.021  1.00  0.00     0.068 C 
HETATM    2  C   UNL     1      42.132 -16.314   1.674  1.00  0.00     0.001 C 
HETATM    3  C   UNL     1      40.918 -16.584   2.595  1.00  0.00     0.040 C 
HETATM    4  C   UNL     1      41.363 -16.677   4.066  1.00  0.00     0.206 C 
HETATM    5  N   UNL     1      42.838 -16.288   4.104  1.00  0.00    -0.065 N 
HETATM    6  H   UNL     1      43.114 -16.224   5.108  1.00  0.00     0.280 HD
HETATM    7  C   UNL     1      43.114 -14.910   3.519  1.00  0.00     0.246 C 
HETATM    8  C   UNL     1      43.197 -17.399   1.954  1.00  0.00     0.033 C 
HETATM    9  C   UNL     1      43.672 -17.330   3.410  1.00  0.00     0.236 C 
ENDROOT
BRANCH   1  10
HETATM   10  C   UNL     1      41.859 -13.784   1.598  1.00  0.00     0.045 A 
HETATM   11  N   UNL     1      41.529 -12.866   2.529  1.00  0.00    -0.233 NA
HETATM   12  C   UNL     1      40.681 -11.885   2.151  1.00  0.00     0.160 A 
HETATM   13  N   UNL     1      40.108 -11.813   0.938  1.00  0.00    -0.233 NA
HETATM   14  C   UNL     1      40.440 -12.747   0.024  1.00  0.00     0.043 A 
HETATM   15  C   UNL     1      41.346 -13.749   0.314  1.00  0.00     0.055 A 
BRANCH  12  16
HETATM   16  C   UNL     1      40.363 -10.828   3.126  1.00  0.00     0.014 A 
HETATM   17  C   UNL     1      39.220 -10.901   3.935  1.00  0.00     0.034 A 
HETATM   18  C   UNL     1      38.956  -9.884   4.839  1.00  0.00     0.117 A 
HETATM   19  N   UNL     1      39.745  -8.803   4.996  1.00  0.00    -0.273 NA
HETATM   20  C   UNL     1      40.831  -8.725   4.205  1.00  0.00     0.117 A 
HETATM   21  C   UNL     1      41.176  -9.694   3.276  1.00  0.00     0.034 A 
ENDBRANCH  12  16
BRANCH  14  22
HETATM   22  C   UNL     1      39.766 -12.629  -1.333  1.00  0.00     0.037 C 
BRANCH  22  23
HETATM   23  C   UNL     1      38.231 -12.469  -1.246  1.00  0.00     0.006 C 
HETATM   24  C   UNL     1      37.671 -11.438  -2.220  1.00  0.00     0.006 C 
ENDBRANCH  22  23
BRANCH  22  25
HETATM   25  C   UNL     1      40.120 -13.828  -2.238  1.00  0.00     0.006 C 
HETATM   26  C   UNL     1      39.020 -14.882  -2.299  1.00  0.00     0.006 C 
ENDBRANCH  22  25
ENDBRANCH  14  22
ENDBRANCH   1  10
BRANCH   4  27
HETATM   27  C   UNL     1      40.473 -15.861   5.039  1.00  0.00     0.157 C 
BRANCH  27  28
HETATM   28  N   UNL     1      40.754 -14.423   5.090  1.00  0.00    -0.341 N 
HETATM   29  C   UNL     1      41.590 -13.872   6.033  1.00  0.00     0.320 C 
HETATM   30  N   UNL     1      41.850 -12.551   5.793  1.00  0.00    -0.309 N 
HETATM   31  O   UNL     1      41.981 -14.533   6.991  1.00  0.00    -0.247 OA
HETATM   32  H   UNL     1      41.225 -12.072   5.160  1.00  0.00     0.170 HD
HETATM   33  H   UNL     1      40.792 -13.960   4.190  1.00  0.00     0.164 HD
BRANCH  30  34
HETATM   34  C   UNL     1      42.761 -11.737   6.503  1.00  0.00     0.036 A 
HETATM   35  C   UNL     1      44.108 -12.065   6.680  1.00  0.00     0.030 A 
HETATM   36  C   UNL     1      44.964 -11.219   7.397  1.00  0.00     0.017 A 
HETATM   37  C   UNL     1      44.480 -10.029   7.944  1.00  0.00     0.009 A 
HETATM   38  C   UNL     1      43.136  -9.688   7.749  1.00  0.00     0.017 A 
HETATM   39  C   UNL     1      42.284 -10.533   7.027  1.00  0.00     0.030 A 
BRANCH  37  40
HETATM   40  C   UNL     1      45.348  -9.103   8.730  1.00  0.00     0.155 C 
HETATM   41  C   UNL     1      45.556  -9.365  10.198  1.00  0.00     0.096 C 
HETATM   42  O   UNL     1      45.876  -8.146   8.170  1.00  0.00    -0.293 OA
ENDBRANCH  37  40
ENDBRANCH  30  34
ENDBRANCH  27  28
ENDBRANCH   4  27
TORSDOF 9
ENDMDL
MODEL 5
REMARK VINA RESULT:      -8.6      2.528      6.661
REMARK  9 active torsions:
REMARK  status: ('A' for Active; 'I' for Inactive)
REMARK    1  A    between atoms: C_2  and  C_3 
REMARK    2  A    between atoms: C_3  and  C_4 
REMARK    3  A    between atoms: C_3  and  C_39 
REMARK    4  A    between atoms: C_6  and  C_7 
REMARK    5  A    between atoms: C_14  and  C_15 
REMARK    6  A    between atoms: C_18  and  C_19 
REMARK    7  A    between atoms: C_19  and  N_20 
REMARK       I    between atoms: N_20  and  C_21 
REMARK       I    between atoms: C_21  and  N_22 
REMARK    8  A    between atoms: N_22  and  C_23 
REMARK    9  A    between atoms: C_26  and  C_27 
ROOT
HETATM    1  C   UNL     1      43.089 -14.935   6.796  1.00  0.00     0.068 C 
HETATM    2  C   UNL     1      44.075 -15.574   5.777  1.00  0.00     0.001 C 
HETATM    3  C   UNL     1      43.368 -15.755   4.413  1.00  0.00     0.040 C 
HETATM    4  C   UNL     1      42.191 -16.740   4.539  1.00  0.00     0.206 C 
HETATM    5  N   UNL     1      42.034 -17.051   6.024  1.00  0.00    -0.065 N 
HETATM    6  H   UNL     1      41.163 -17.614   6.131  1.00  0.00     0.280 HD
HETATM    7  C   UNL     1      41.824 -15.811   6.882  1.00  0.00     0.246 C 
HETATM    8  C   UNL     1      44.464 -16.974   6.306  1.00  0.00     0.033 C 
HETATM    9  C   UNL     1      43.217 -17.839   6.520  1.00  0.00     0.236 C 
ENDROOT
BRANCH   1  10
HETATM   10  C   UNL     1      42.798 -13.484   6.471  1.00  0.00     0.045 A 
HETATM   11  N   UNL     1      43.539 -12.539   7.082  1.00  0.00    -0.233 NA
HETATM   12  C   UNL     1      43.224 -11.250   6.828  1.00  0.00     0.160 A 
HETATM   13  N   UNL     1      42.189 -10.867   6.063  1.00  0.00    -0.233 NA
HETATM   14  C   UNL     1      41.450 -11.826   5.469  1.00  0.00     0.043 A 
HETATM   15  C   UNL     1      41.745 -13.166   5.631  1.00  0.00     0.055 A 
BRANCH  12  16
HETATM   16  C   UNL     1      44.065 -10.199   7.425  1.00  0.00     0.014 A 
HETATM   17  C   UNL     1      45.464 -10.306   7.446  1.00  0.00     0.034 A 
HETATM   18  C   UNL     1      46.218  -9.295   8.019  1.00  0.00     0.117 A 
HETATM   19  N   UNL     1      45.684  -8.187   8.571  1.00  0.00    -0.273 NA
HETATM   20  C   UNL     1      44.342  -8.095   8.566  1.00  0.00     0.117 A 
HETATM   21  C   UNL     1      43.507  -9.054   8.015  1.00  0.00     0.034 A 
ENDBRANCH  12  16
BRANCH  14  22
HETATM   22  C   UNL     1      40.288 -11.348   4.616  1.00  0.00     0.037 C 
BRANCH  22  23
HETATM   23  C   UNL     1      40.595 -11.345   3.101  1.00  0.00     0.006 C 
HETATM   24  C   UNL     1      41.957 -10.752   2.758  1.00  0.00     0.006 C 
ENDBRANCH  22  23
BRANCH  22  25
HETATM   25  C   UNL     1      39.809  -9.949   5.059  1.00  0.00     0.006 C 
HETATM   26  C   UNL     1      38.333  -9.911   5.443  1.00  0.00     0.006 C 
ENDBRANCH  22  25
ENDBRANCH  14  22
ENDBRANCH   1  10
BRANCH   4  27
HETATM   27  C   UNL     1      40.887 -16.243   3.861  1.00  0.00     0.157 C 
BRANCH  27  28
HETATM   28  N   UNL     1      40.969 -16.047   2.411  1.00  0.00    -0.341 N 
HETATM   29  C   UNL     1      40.283 -15.044   1.767  1.00  0.00     0.320 C 
HETATM   30  N   UNL     1      40.636 -14.931   0.450  1.00  0.00    -0.309 N 
HETATM   31  O   UNL     1      39.421 -14.395   2.352  1.00  0.00    -0.247 OA
HETATM   32  H   UNL     1      41.118 -15.718   0.039  1.00  0.00     0.170 HD
HETATM   33  H   UNL     1      41.870 -16.254   1.999  1.00  0.00     0.164 HD
BRANCH  30  34
HETATM   34  C   UNL     1      40.205 -13.928  -0.446  1.00  0.00     0.036 A 
HETATM   35  C   UNL     1      39.219 -14.134  -1.415  1.00  0.00     0.030 A 
HETATM   36  C   UNL     1      38.834 -13.101  -2.279  1.00  0.00     0.017 A 
HETATM   37  C   UNL     1      39.431 -11.843  -2.181  1.00  0.00     0.009 A 
HETATM   38  C   UNL     1      40.404 -11.628  -1.196  1.00  0.00     0.017 A 
HETATM   39  C   UNL     1      40.783 -12.661  -0.331  1.00  0.00     0.030 A 
BRANCH  37  40
HETATM   40  C   UNL     1      39.068 -10.716  -3.089  1.00  0.00     0.155 C 
HETATM   41  C   UNL     1      40.166  -9.898  -3.716  1.00  0.00     0.096 C 
HETATM   42  O   UNL     1      37.884 -10.474  -3.310  1.00  0.00    -0.293 OA
ENDBRANCH  37  40
ENDBRANCH  30  34
ENDBRANCH  27  28
ENDBRANCH   4  27
TORSDOF 9
ENDMDL
MODEL 6
REMARK VINA RESULT:      -8.6     16.374     19.996
REMARK  9 active torsions:
REMARK  status: ('A' for Active; 'I' for Inactive)
REMARK    1  A    between atoms: C_2  and  C_3 
REMARK    2  A    between atoms: C_3  and  C_4 
REMARK    3  A    between atoms: C_3  and  C_39 
REMARK    4  A    between atoms: C_6  and  C_7 
REMARK    5  A    between atoms: C_14  and  C_15 
REMARK    6  A    between atoms: C_18  and  C_19 
REMARK    7  A    between atoms: C_19  and  N_20 
REMARK       I    between atoms: N_20  and  C_21 
REMARK       I    between atoms: C_21  and  N_22 
REMARK    8  A    between atoms: N_22  and  C_23 
REMARK    9  A    between atoms: C_26  and  C_27 
ROOT
HETATM    1  C   UNL     1      51.622 -31.130  -0.800  1.00  0.00     0.068 C 
HETATM    2  C   UNL     1      51.383 -31.245  -2.333  1.00  0.00     0.001 C 
HETATM    3  C   UNL     1      50.382 -32.390  -2.618  1.00  0.00     0.040 C 
HETATM    4  C   UNL     1      50.966 -33.744  -2.179  1.00  0.00     0.206 C 
HETATM    5  N   UNL     1      52.270 -33.444  -1.446  1.00  0.00    -0.065 N 
HETATM    6  H   UNL     1      52.607 -34.341  -1.034  1.00  0.00     0.280 HD
HETATM    7  C   UNL     1      52.096 -32.497  -0.267  1.00  0.00     0.246 C 
HETATM    8  C   UNL     1      52.730 -31.609  -2.999  1.00  0.00     0.033 C 
HETATM    9  C   UNL     1      53.296 -32.905  -2.406  1.00  0.00     0.236 C 
ENDROOT
BRANCH   1  10
HETATM   10  C   UNL     1      50.408 -30.587  -0.075  1.00  0.00     0.045 A 
HETATM   11  N   UNL     1      49.411 -30.064  -0.817  1.00  0.00    -0.233 NA
HETATM   12  C   UNL     1      48.365 -29.529  -0.151  1.00  0.00     0.160 A 
HETATM   13  N   UNL     1      48.295 -29.434   1.187  1.00  0.00    -0.233 NA
HETATM   14  C   UNL     1      49.307 -29.951   1.913  1.00  0.00     0.043 A 
HETATM   15  C   UNL     1      50.385 -30.569   1.309  1.00  0.00     0.055 A 
BRANCH  12  16
HETATM   16  C   UNL     1      47.229 -29.018  -0.938  1.00  0.00     0.014 A 
HETATM   17  C   UNL     1      46.225 -28.237  -0.347  1.00  0.00     0.034 A 
HETATM   18  C   UNL     1      45.173 -27.777  -1.123  1.00  0.00     0.117 A 
HETATM   19  N   UNL     1      45.047 -28.037  -2.440  1.00  0.00    -0.273 NA
HETATM   20  C   UNL     1      46.002 -28.802  -3.000  1.00  0.00     0.117 A 
HETATM   21  C   UNL     1      47.091 -29.304  -2.305  1.00  0.00     0.034 A 
ENDBRANCH  12  16
BRANCH  14  22
HETATM   22  C   UNL     1      49.188 -29.818   3.421  1.00  0.00     0.037 C 
BRANCH  22  23
HETATM   23  C   UNL     1      49.757 -31.031   4.194  1.00  0.00     0.006 C 
HETATM   24  C   UNL     1      51.073 -30.737   4.904  1.00  0.00     0.006 C 
ENDBRANCH  22  23
BRANCH  22  25
HETATM   25  C   UNL     1      47.727 -29.562   3.846  1.00  0.00     0.006 C 
HETATM   26  C   UNL     1      47.201 -30.588   4.846  1.00  0.00     0.006 C 
ENDBRANCH  22  25
ENDBRANCH  14  22
ENDBRANCH   1  10
BRANCH   4  27
HETATM   27  C   UNL     1      49.975 -34.616  -1.363  1.00  0.00     0.157 C 
BRANCH  27  28
HETATM   28  N   UNL     1      48.559 -34.275  -1.527  1.00  0.00    -0.341 N 
HETATM   29  C   UNL     1      47.862 -33.562  -0.581  1.00  0.00     0.320 C 
HETATM   30  N   UNL     1      46.613 -33.205  -1.010  1.00  0.00    -0.309 N 
HETATM   31  O   UNL     1      48.343 -33.349   0.528  1.00  0.00    -0.247 OA
HETATM   32  H   UNL     1      46.245 -33.706  -1.807  1.00  0.00     0.170 HD
HETATM   33  H   UNL     1      48.271 -34.082  -2.479  1.00  0.00     0.164 HD
BRANCH  30  34
HETATM   34  C   UNL     1      45.702 -32.370  -0.325  1.00  0.00     0.036 A 
HETATM   35  C   UNL     1      45.854 -32.003   1.015  1.00  0.00     0.030 A 
HETATM   36  C   UNL     1      44.915 -31.174   1.642  1.00  0.00     0.017 A 
HETATM   37  C   UNL     1      43.812 -30.697   0.932  1.00  0.00     0.009 A 
HETATM   38  C   UNL     1      43.670 -31.046  -0.417  1.00  0.00     0.017 A 
HETATM   39  C   UNL     1      44.612 -31.871  -1.043  1.00  0.00     0.030 A 
BRANCH  37  40
HETATM   40  C   UNL     1      42.776 -29.826   1.561  1.00  0.00     0.155 C 
HETATM   41  C   UNL     1      42.413 -30.046   3.005  1.00  0.00     0.096 C 
HETATM   42  O   UNL     1      42.237 -28.947   0.892  1.00  0.00    -0.293 OA
ENDBRANCH  37  40
ENDBRANCH  30  34
ENDBRANCH  27  28
ENDBRANCH   4  27
TORSDOF 9
ENDMDL
MODEL 7
REMARK VINA RESULT:      -8.6      1.033      3.911
REMARK  9 active torsions:
REMARK  status: ('A' for Active; 'I' for Inactive)
REMARK    1  A    between atoms: C_2  and  C_3 
REMARK    2  A    between atoms: C_3  and  C_4 
REMARK    3  A    between atoms: C_3  and  C_39 
REMARK    4  A    between atoms: C_6  and  C_7 
REMARK    5  A    between atoms: C_14  and  C_15 
REMARK    6  A    between atoms: C_18  and  C_19 
REMARK    7  A    between atoms: C_19  and  N_20 
REMARK       I    between atoms: N_20  and  C_21 
REMARK       I    between atoms: C_21  and  N_22 
REMARK    8  A    between atoms: N_22  and  C_23 
REMARK    9  A    between atoms: C_26  and  C_27 
ROOT
HETATM    1  C   UNL     1      40.374  -9.787   4.070  1.00  0.00     0.068 C 
HETATM    2  C   UNL     1      39.108 -10.624   3.733  1.00  0.00     0.001 C 
HETATM    3  C   UNL     1      39.495 -11.808   2.814  1.00  0.00     0.040 C 
HETATM    4  C   UNL     1      40.034 -11.294   1.467  1.00  0.00     0.206 C 
HETATM    5  N   UNL     1      40.160  -9.779   1.591  1.00  0.00    -0.065 N 
HETATM    6  H   UNL     1      40.643  -9.438   0.732  1.00  0.00     0.280 HD
HETATM    7  C   UNL     1      41.040  -9.339   2.753  1.00  0.00     0.246 C 
HETATM    8  C   UNL     1      38.129  -9.714   2.955  1.00  0.00     0.033 C 
HETATM    9  C   UNL     1      38.797  -9.149   1.696  1.00  0.00     0.236 C 
ENDROOT
BRANCH   1  10
HETATM   10  C   UNL     1      41.314 -10.528   4.999  1.00  0.00     0.045 A 
HETATM   11  N   UNL     1      41.093 -11.842   5.204  1.00  0.00    -0.233 NA
HETATM   12  C   UNL     1      41.902 -12.472   6.083  1.00  0.00     0.160 A 
HETATM   13  N   UNL     1      42.857 -11.855   6.800  1.00  0.00    -0.233 NA
HETATM   14  C   UNL     1      43.056 -10.538   6.591  1.00  0.00     0.043 A 
HETATM   15  C   UNL     1      42.310  -9.835   5.665  1.00  0.00     0.055 A 
BRANCH  12  16
HETATM   16  C   UNL     1      41.730 -13.922   6.270  1.00  0.00     0.014 A 
HETATM   17  C   UNL     1      40.657 -14.611   5.685  1.00  0.00     0.034 A 
HETATM   18  C   UNL     1      40.531 -15.976   5.887  1.00  0.00     0.117 A 
HETATM   19  N   UNL     1      41.391 -16.704   6.627  1.00  0.00    -0.273 NA
HETATM   20  C   UNL     1      42.409 -16.038   7.203  1.00  0.00     0.117 A 
HETATM   21  C   UNL     1      42.617 -14.676   7.055  1.00  0.00     0.034 A 
ENDBRANCH  12  16
BRANCH  14  22
HETATM   22  C   UNL     1      44.143  -9.882   7.425  1.00  0.00     0.037 C 
BRANCH  22  23
HETATM   23  C   UNL     1      45.165 -10.886   8.005  1.00  0.00     0.006 C 
HETATM   24  C   UNL     1      46.600 -10.615   7.568  1.00  0.00     0.006 C 
ENDBRANCH  22  23
BRANCH  22  25
HETATM   25  C   UNL     1      43.538  -9.031   8.562  1.00  0.00     0.006 C 
HETATM   26  C   UNL     1      43.294  -9.823   9.843  1.00  0.00     0.006 C 
ENDBRANCH  22  25
ENDBRANCH  14  22
ENDBRANCH   1  10
BRANCH   4  27
HETATM   27  C   UNL     1      41.340 -11.996   1.010  1.00  0.00     0.157 C 
BRANCH  27  28
HETATM   28  N   UNL     1      42.002 -12.816   2.029  1.00  0.00    -0.341 N 
HETATM   29  C   UNL     1      41.974 -14.190   1.996  1.00  0.00     0.320 C 
HETATM   30  N   UNL     1      42.796 -14.753   2.934  1.00  0.00    -0.309 N 
HETATM   31  O   UNL     1      41.230 -14.787   1.223  1.00  0.00    -0.247 OA
HETATM   32  H   UNL     1      43.100 -14.155   3.689  1.00  0.00     0.170 HD
HETATM   33  H   UNL     1      42.866 -12.434   2.394  1.00  0.00     0.164 HD
BRANCH  30  34
HETATM   34  C   UNL     1      43.081 -16.129   3.076  1.00  0.00     0.036 A 
HETATM   35  C   UNL     1      43.862 -16.650   4.112  1.00  0.00     0.030 A 
HETATM   36  C   UNL     1      44.113 -18.025   4.200  1.00  0.00     0.017 A 
HETATM   37  C   UNL     1      43.581 -18.899   3.250  1.00  0.00     0.009 A 
HETATM   38  C   UNL     1      42.780 -18.382   2.224  1.00  0.00     0.017 A 
HETATM   39  C   UNL     1      42.526 -17.007   2.142  1.00  0.00     0.030 A 
BRANCH  37  40
HETATM   40  C   UNL     1      43.834 -20.369   3.291  1.00  0.00     0.155 C 
HETATM   41  C   UNL     1      43.957 -21.055   4.626  1.00  0.00     0.096 C 
HETATM   42  O   UNL     1      43.940 -20.995   2.239  1.00  0.00    -0.293 OA
ENDBRANCH  37  40
ENDBRANCH  30  34
ENDBRANCH  27  28
ENDBRANCH   4  27
TORSDOF 9
ENDMDL
MODEL 8
REMARK VINA RESULT:      -8.5     16.401     19.424
REMARK  9 active torsions:
REMARK  status: ('A' for Active; 'I' for Inactive)
REMARK    1  A    between atoms: C_2  and  C_3 
REMARK    2  A    between atoms: C_3  and  C_4 
REMARK    3  A    between atoms: C_3  and  C_39 
REMARK    4  A    between atoms: C_6  and  C_7 
REMARK    5  A    between atoms: C_14  and  C_15 
REMARK    6  A    between atoms: C_18  and  C_19 
REMARK    7  A    between atoms: C_19  and  N_20 
REMARK       I    between atoms: N_20  and  C_21 
REMARK       I    between atoms: C_21  and  N_22 
REMARK    8  A    between atoms: N_22  and  C_23 
REMARK    9  A    between atoms: C_26  and  C_27 
ROOT
HETATM    1  C   UNL     1      47.591 -29.953  -1.518  1.00  0.00     0.068 C 
HETATM    2  C   UNL     1      47.309 -28.427  -1.621  1.00  0.00     0.001 C 
HETATM    3  C   UNL     1      46.964 -27.866  -0.221  1.00  0.00     0.040 C 
HETATM    4  C   UNL     1      45.667 -28.501   0.313  1.00  0.00     0.206 C 
HETATM    5  N   UNL     1      45.279 -29.601  -0.670  1.00  0.00    -0.065 N 
HETATM    6  H   UNL     1      44.476 -30.120  -0.251  1.00  0.00     0.280 HD
HETATM    7  C   UNL     1      46.371 -30.642  -0.873  1.00  0.00     0.246 C 
HETATM    8  C   UNL     1      46.076 -28.231  -2.534  1.00  0.00     0.033 C 
HETATM    9  C   UNL     1      44.869 -29.004  -1.989  1.00  0.00     0.236 C 
ENDROOT
BRANCH   1  10
HETATM   10  C   UNL     1      48.895 -30.243  -0.804  1.00  0.00     0.045 A 
HETATM   11  N   UNL     1      49.868 -30.869  -1.496  1.00  0.00    -0.233 NA
HETATM   12  C   UNL     1      51.000 -31.175  -0.825  1.00  0.00     0.160 A 
HETATM   13  N   UNL     1      51.180 -30.950   0.487  1.00  0.00    -0.233 NA
HETATM   14  C   UNL     1      50.191 -30.334   1.166  1.00  0.00     0.043 A 
HETATM   15  C   UNL     1      49.027 -29.935   0.539  1.00  0.00     0.055 A 
BRANCH  12  16
HETATM   16  C   UNL     1      52.107 -31.792  -1.576  1.00  0.00     0.014 A 
HETATM   17  C   UNL     1      53.079 -32.572  -0.933  1.00  0.00     0.034 A 
HETATM   18  C   UNL     1      54.105 -33.134  -1.677  1.00  0.00     0.117 A 
HETATM   19  N   UNL     1      54.233 -32.976  -3.009  1.00  0.00    -0.273 NA
HETATM   20  C   UNL     1      53.309 -32.213  -3.621  1.00  0.00     0.117 A 
HETATM   21  C   UNL     1      52.248 -31.614  -2.961  1.00  0.00     0.034 A 
ENDBRANCH  12  16
BRANCH  14  22
HETATM   22  C   UNL     1      50.436 -30.103   2.647  1.00  0.00     0.037 C 
BRANCH  22  23
HETATM   23  C   UNL     1      51.217 -31.250   3.329  1.00  0.00     0.006 C 
HETATM   24  C   UNL     1      51.300 -31.113   4.845  1.00  0.00     0.006 C 
ENDBRANCH  22  23
BRANCH  22  25
HETATM   25  C   UNL     1      49.112 -29.848   3.399  1.00  0.00     0.006 C 
HETATM   26  C   UNL     1      48.898 -28.383   3.762  1.00  0.00     0.006 C 
ENDBRANCH  22  25
ENDBRANCH  14  22
ENDBRANCH   1  10
BRANCH   4  27
HETATM   27  C   UNL     1      45.768 -28.981   1.785  1.00  0.00     0.157 C 
BRANCH  27  28
HETATM   28  N   UNL     1      44.522 -28.911   2.554  1.00  0.00    -0.341 N 
HETATM   29  C   UNL     1      43.599 -29.930   2.549  1.00  0.00     0.320 C 
HETATM   30  N   UNL     1      42.602 -29.737   3.466  1.00  0.00    -0.309 N 
HETATM   31  O   UNL     1      43.687 -30.855   1.747  1.00  0.00    -0.247 OA
HETATM   32  H   UNL     1      42.493 -28.801   3.829  1.00  0.00     0.170 HD
HETATM   33  H   UNL     1      44.592 -28.427   3.442  1.00  0.00     0.164 HD
BRANCH  30  34
HETATM   34  C   UNL     1      41.577 -30.654   3.789  1.00  0.00     0.036 A 
HETATM   35  C   UNL     1      40.865 -31.380   2.830  1.00  0.00     0.030 A 
HETATM   36  C   UNL     1      39.856 -32.274   3.210  1.00  0.00     0.017 A 
HETATM   37  C   UNL     1      39.549 -32.455   4.560  1.00  0.00     0.009 A 
HETATM   38  C   UNL     1      40.276 -31.744   5.523  1.00  0.00     0.017 A 
HETATM   39  C   UNL     1      41.287 -30.855   5.141  1.00  0.00     0.030 A 
BRANCH  37  40
HETATM   40  C   UNL     1      38.471 -33.382   5.014  1.00  0.00     0.155 C 
HETATM   41  C   UNL     1      38.675 -34.867   4.874  1.00  0.00     0.096 C 
HETATM   42  O   UNL     1      37.437 -32.921   5.493  1.00  0.00    -0.293 OA
ENDBRANCH  37  40
ENDBRANCH  30  34
ENDBRANCH  27  28
ENDBRANCH   4  27
TORSDOF 9
ENDMDL
MODEL 9
REMARK VINA RESULT:      -8.5      2.957      4.502
REMARK  9 active torsions:
REMARK  status: ('A' for Active; 'I' for Inactive)
REMARK    1  A    between atoms: C_2  and  C_3 
REMARK    2  A    between atoms: C_3  and  C_4 
REMARK    3  A    between atoms: C_3  and  C_39 
REMARK    4  A    between atoms: C_6  and  C_7 
REMARK    5  A    between atoms: C_14  and  C_15 
REMARK    6  A    between atoms: C_18  and  C_19 
REMARK    7  A    between atoms: C_19  and  N_20 
REMARK       I    between atoms: N_20  and  C_21 
REMARK       I    between atoms: C_21  and  N_22 
REMARK    8  A    between atoms: N_22  and  C_23 
REMARK    9  A    between atoms: C_26  and  C_27 
ROOT
HETATM    1  C   UNL     1      41.228  -8.634   5.264  1.00  0.00     0.068 C 
HETATM    2  C   UNL     1      39.687  -8.840   5.275  1.00  0.00     0.001 C 
HETATM    3  C   UNL     1      39.349 -10.206   5.919  1.00  0.00     0.040 C 
HETATM    4  C   UNL     1      39.924 -11.359   5.078  1.00  0.00     0.206 C 
HETATM    5  N   UNL     1      40.784 -10.724   3.990  1.00  0.00    -0.065 N 
HETATM    6  H   UNL     1      41.279 -11.498   3.496  1.00  0.00     0.280 HD
HETATM    7  C   UNL     1      41.884  -9.825   4.537  1.00  0.00     0.246 C 
HETATM    8  C   UNL     1      39.199  -8.868   3.808  1.00  0.00     0.033 C 
HETATM    9  C   UNL     1      39.921  -9.966   3.018  1.00  0.00     0.236 C 
ENDROOT
BRANCH   1  10
HETATM   10  C   UNL     1      41.780  -8.398   6.656  1.00  0.00     0.045 A 
HETATM   11  N   UNL     1      41.378  -7.292   7.315  1.00  0.00    -0.233 NA
HETATM   12  C   UNL     1      41.927  -7.066   8.528  1.00  0.00     0.160 A 
HETATM   13  N   UNL     1      42.883  -7.835   9.075  1.00  0.00    -0.233 NA
HETATM   14  C   UNL     1      43.282  -8.930   8.396  1.00  0.00     0.043 A 
HETATM   15  C   UNL     1      42.726  -9.263   7.176  1.00  0.00     0.055 A 
BRANCH  12  16
HETATM   16  C   UNL     1      41.451  -5.906   9.300  1.00  0.00     0.014 A 
HETATM   17  C   UNL     1      42.347  -5.049   9.957  1.00  0.00     0.034 A 
HETATM   18  C   UNL     1      41.857  -3.969  10.674  1.00  0.00     0.117 A 
HETATM   19  N   UNL     1      40.545  -3.681  10.786  1.00  0.00    -0.273 NA
HETATM   20  C   UNL     1      39.687  -4.515  10.170  1.00  0.00     0.117 A 
HETATM   21  C   UNL     1      40.083  -5.617   9.429  1.00  0.00     0.034 A 
ENDBRANCH  12  16
BRANCH  14  22
HETATM   22  C   UNL     1      44.367  -9.768   9.050  1.00  0.00     0.037 C 
BRANCH  22  23
HETATM   23  C   UNL     1      44.467  -9.563  10.579  1.00  0.00     0.006 C 
HETATM   24  C   UNL     1      43.707 -10.610  11.384  1.00  0.00     0.006 C 
ENDBRANCH  22  23
BRANCH  22  25
HETATM   25  C   UNL     1      45.741  -9.514   8.394  1.00  0.00     0.006 C 
HETATM   26  C   UNL     1      46.216 -10.671   7.522  1.00  0.00     0.006 C 
ENDBRANCH  22  25
ENDBRANCH  14  22
ENDBRANCH   1  10
BRANCH   4  27
HETATM   27  C   UNL     1      40.666 -12.433   5.916  1.00  0.00     0.157 C 
BRANCH  27  28
HETATM   28  N   UNL     1      41.750 -13.133   5.222  1.00  0.00    -0.341 N 
HETATM   29  C   UNL     1      41.761 -14.500   5.068  1.00  0.00     0.320 C 
HETATM   30  N   UNL     1      42.766 -14.925   4.243  1.00  0.00    -0.309 N 
HETATM   31  O   UNL     1      40.964 -15.208   5.676  1.00  0.00    -0.247 OA
HETATM   32  H   UNL     1      43.518 -14.274   4.069  1.00  0.00     0.170 HD
HETATM   33  H   UNL     1      42.155 -12.631   4.441  1.00  0.00     0.164 HD
BRANCH  30  34
HETATM   34  C   UNL     1      42.970 -16.248   3.791  1.00  0.00     0.036 A 
HETATM   35  C   UNL     1      42.400 -16.757   2.621  1.00  0.00     0.030 A 
HETATM   36  C   UNL     1      42.637 -18.080   2.224  1.00  0.00     0.017 A 
HETATM   37  C   UNL     1      43.454 -18.909   2.994  1.00  0.00     0.009 A 
HETATM   38  C   UNL     1      44.044 -18.394   4.155  1.00  0.00     0.017 A 
HETATM   39  C   UNL     1      43.809 -17.070   4.547  1.00  0.00     0.030 A 
BRANCH  37  40
HETATM   40  C   UNL     1      43.723 -20.329   2.622  1.00  0.00     0.155 C 
HETATM   41  C   UNL     1      44.057 -21.320   3.706  1.00  0.00     0.096 C 
HETATM   42  O   UNL     1      43.668 -20.668   1.442  1.00  0.00    -0.293 OA
ENDBRANCH  37  40
ENDBRANCH  30  34
ENDBRANCH  27  28
ENDBRANCH   4  27
TORSDOF 9
ENDMDL
MODEL 10
REMARK VINA RESULT:      -8.4     16.495     18.632
REMARK  9 active torsions:
REMARK  status: ('A' for Active; 'I' for Inactive)
REMARK    1  A    between atoms: C_2  and  C_3 
REMARK    2  A    between atoms: C_3  and  C_4 
REMARK    3  A    between atoms: C_3  and  C_39 
REMARK    4  A    between atoms: C_6  and  C_7 
REMARK    5  A    between atoms: C_14  and  C_15 
REMARK    6  A    between atoms: C_18  and  C_19 
REMARK    7  A    between atoms: C_19  and  N_20 
REMARK       I    between atoms: N_20  and  C_21 
REMARK       I    between atoms: C_21  and  N_22 
REMARK    8  A    between atoms: N_22  and  C_23 
REMARK    9  A    between atoms: C_26  and  C_27 
ROOT
HETATM    1  C   UNL     1      44.292 -28.824  -1.310  1.00  0.00     0.068 C 
HETATM    2  C   UNL     1      44.339 -29.916  -2.417  1.00  0.00     0.001 C 
HETATM    3  C   UNL     1      45.771 -30.492  -2.520  1.00  0.00     0.040 C 
HETATM    4  C   UNL     1      46.764 -29.401  -2.960  1.00  0.00     0.206 C 
HETATM    5  N   UNL     1      45.996 -28.083  -2.965  1.00  0.00    -0.065 N 
HETATM    6  H   UNL     1      46.688 -27.322  -3.136  1.00  0.00     0.280 HD
HETATM    7  C   UNL     1      45.355 -27.752  -1.624  1.00  0.00     0.246 C 
HETATM    8  C   UNL     1      43.995 -29.242  -3.765  1.00  0.00     0.033 C 
HETATM    9  C   UNL     1      44.959 -28.086  -4.055  1.00  0.00     0.236 C 
ENDROOT
BRANCH   1  10
HETATM   10  C   UNL     1      44.425 -29.417   0.079  1.00  0.00     0.045 A 
HETATM   11  N   UNL     1      43.301 -29.831   0.697  1.00  0.00    -0.233 NA
HETATM   12  C   UNL     1      43.430 -30.299   1.958  1.00  0.00     0.160 A 
HETATM   13  N   UNL     1      44.588 -30.312   2.639  1.00  0.00    -0.233 NA
HETATM   14  C   UNL     1      45.700 -29.882   2.009  1.00  0.00     0.043 A 
HETATM   15  C   UNL     1      45.661 -29.445   0.699  1.00  0.00     0.055 A 
BRANCH  12  16
HETATM   16  C   UNL     1      42.230 -30.826   2.629  1.00  0.00     0.014 A 
HETATM   17  C   UNL     1      41.321 -31.655   1.955  1.00  0.00     0.034 A 
HETATM   18  C   UNL     1      40.204 -32.129   2.624  1.00  0.00     0.117 A 
HETATM   19  N   UNL     1      39.925 -31.838   3.910  1.00  0.00    -0.273 NA
HETATM   20  C   UNL     1      40.788 -31.028   4.549  1.00  0.00     0.117 A 
HETATM   21  C   UNL     1      41.932 -30.509   3.964  1.00  0.00     0.034 A 
ENDBRANCH  12  16
BRANCH  14  22
HETATM   22  C   UNL     1      46.985 -29.912   2.818  1.00  0.00     0.037 C 
BRANCH  22  23
HETATM   23  C   UNL     1      46.765 -30.240   4.313  1.00  0.00     0.006 C 
HETATM   24  C   UNL     1      47.342 -31.587   4.731  1.00  0.00     0.006 C 
ENDBRANCH  22  23
BRANCH  22  25
HETATM   25  C   UNL     1      47.763 -28.586   2.679  1.00  0.00     0.006 C 
HETATM   26  C   UNL     1      48.823 -28.394   3.758  1.00  0.00     0.006 C 
ENDBRANCH  22  25
ENDBRANCH  14  22
ENDBRANCH   1  10
BRANCH   4  27
HETATM   27  C   UNL     1      48.065 -29.365  -2.116  1.00  0.00     0.157 C 
BRANCH  27  28
HETATM   28  N   UNL     1      48.311 -30.551  -1.291  1.00  0.00    -0.341 N 
HETATM   29  C   UNL     1      49.175 -30.534  -0.221  1.00  0.00     0.320 C 
HETATM   30  N   UNL     1      49.122 -31.688   0.512  1.00  0.00    -0.309 N 
HETATM   31  O   UNL     1      49.924 -29.580  -0.032  1.00  0.00    -0.247 OA
HETATM   32  H   UNL     1      48.697 -32.490   0.069  1.00  0.00     0.170 HD
HETATM   33  H   UNL     1      47.510 -31.156  -1.159  1.00  0.00     0.164 HD
BRANCH  30  34
HETATM   34  C   UNL     1      49.792 -31.933   1.732  1.00  0.00     0.036 A 
HETATM   35  C   UNL     1      50.562 -30.972   2.393  1.00  0.00     0.030 A 
HETATM   36  C   UNL     1      51.206 -31.274   3.599  1.00  0.00     0.017 A 
HETATM   37  C   UNL     1      51.083 -32.546   4.162  1.00  0.00     0.009 A 
HETATM   38  C   UNL     1      50.295 -33.503   3.513  1.00  0.00     0.017 A 
HETATM   39  C   UNL     1      49.648 -33.197   2.309  1.00  0.00     0.030 A 
BRANCH  37  40
HETATM   40  C   UNL     1      51.765 -32.921   5.436  1.00  0.00     0.155 C 
HETATM   41  C   UNL     1      52.163 -31.837   6.401  1.00  0.00     0.096 C 
HETATM   42  O   UNL     1      51.991 -34.105   5.676  1.00  0.00    -0.293 OA
ENDBRANCH  37  40
ENDBRANCH  30  34
ENDBRANCH  27  28
ENDBRANCH   4  27
TORSDOF 9
ENDMDL
