MODEL 1
REMARK VINA RESULT:      -8.1      0.000      0.000
REMARK  9 active torsions:
REMARK  status: ('A' for Active; 'I' for Inactive)
REMARK    1  A    between atoms: C_5  and  C_6 
REMARK    2  A    between atoms: C_8  and  C_9 
REMARK    3  A    between atoms: C_9  and  C_10 
REMARK       I    between atoms: C_10  and  N_11 
REMARK    4  A    between atoms: N_11  and  C_12 
REMARK    5  A    between atoms: C_12  and  C_13 
REMARK    6  A    between atoms: C_13  and  N_14 
REMARK    7  A    between atoms: C_28  and  C_29 
REMARK    8  A    between atoms: C_29  and  O_30 
REMARK    9  A    between atoms: O_30  and  C_31 
ROOT
HETATM    1  C   UNL     1      40.015 -12.905   2.052  1.00  0.00     0.166 C 
HETATM    2  N   UNL     1      40.410 -11.724   2.841  1.00  0.00    -0.319 N 
HETATM    3  C   UNL     1      41.453 -11.145   3.336  1.00  0.00     0.011 C 
HETATM    4  C   UNL     1      39.136 -10.876   3.103  1.00  0.00     0.170 C 
HETATM    5  S   UNL     1      39.327  -9.880   4.497  1.00  0.00    -0.086 SA
HETATM    6  C   UNL     1      41.141 -10.093   4.395  1.00  0.00     0.135 C 
HETATM    7  N   UNL     1      38.137 -10.843   2.287  1.00  0.00    -0.229 NA
HETATM    8  C   UNL     1      38.319 -11.461   1.047  1.00  0.00     0.048 C 
HETATM    9  C   UNL     1      37.478 -10.854  -0.053  1.00  0.00     0.071 C 
HETATM   10  C   UNL     1      39.266 -12.416   0.857  1.00  0.00     0.069 C 
ENDROOT
BRANCH   3  11
HETATM   11  C   UNL     1      42.850 -11.478   2.887  1.00  0.00     0.156 C 
BRANCH  11  12
HETATM   12  C   UNL     1      43.815 -11.709   4.047  1.00  0.00     0.223 C 
HETATM   13  N   UNL     1      43.311 -12.433   5.095  1.00  0.00    -0.359 N 
HETATM   14  H   UNL     1      42.327 -12.694   5.058  1.00  0.00     0.162 HD
HETATM   15  O   UNL     1      44.967 -11.284   4.042  1.00  0.00    -0.273 OA
BRANCH  13  16
HETATM   16  C   UNL     1      43.928 -12.559   6.423  1.00  0.00     0.150 C 
BRANCH  16  17
HETATM   17  C   UNL     1      43.521 -13.755   7.320  1.00  0.00     0.254 C 
BRANCH  17  18
HETATM   18  N   UNL     1      43.374 -15.069   6.571  1.00  0.00    -0.070 N 
HETATM   19  H   UNL     1      43.103 -14.803   5.603  1.00  0.00     0.279 HD
HETATM   20  C   UNL     1      44.646 -15.880   6.479  1.00  0.00     0.235 C 
HETATM   21  C   UNL     1      44.416 -17.090   5.583  1.00  0.00     0.028 C 
HETATM   22  C   UNL     1      43.262 -17.949   6.082  1.00  0.00     0.003 C 
HETATM   23  C   UNL     1      41.998 -17.117   6.257  1.00  0.00     0.028 C 
HETATM   24  C   UNL     1      42.238 -15.898   7.138  1.00  0.00     0.235 C 
ENDBRANCH  17  18
ENDBRANCH  16  17
ENDBRANCH  13  16
ENDBRANCH  11  12
ENDBRANCH   3  11
BRANCH   1  25
HETATM   25  C   UNL     1      40.934 -14.111   2.161  1.00  0.00    -0.030 A 
HETATM   26  C   UNL     1      40.488 -15.192   2.962  1.00  0.00     0.010 A 
HETATM   27  C   UNL     1      41.190 -16.398   3.034  1.00  0.00     0.007 A 
HETATM   28  C   UNL     1      42.369 -16.566   2.315  1.00  0.00    -0.062 A 
HETATM   29  C   UNL     1      43.062 -17.898   2.282  1.00  0.00     0.048 C 
HETATM   30  C   UNL     1      42.844 -15.498   1.548  1.00  0.00     0.007 A 
HETATM   31  C   UNL     1      42.145 -14.283   1.484  1.00  0.00     0.010 A 
ENDBRANCH   1  25
BRANCH  10  32
HETATM   32  C   UNL     1      39.705 -12.762  -0.489  1.00  0.00     0.294 C 
HETATM   33  O   UNL     1      40.565 -12.094  -1.043  1.00  0.00    -0.259 OA
BRANCH  32  34
HETATM   34  O   UNL     1      39.052 -13.846  -0.938  1.00  0.00    -0.313 OA
BRANCH  34  35
HETATM   35  C   UNL     1      38.656 -13.933  -2.330  1.00  0.00     0.124 C 
HETATM   36  C   UNL     1      38.638 -15.367  -2.851  1.00  0.00     0.040 C 
HETATM   37  C   UNL     1      37.343 -13.198  -2.579  1.00  0.00     0.040 C 
ENDBRANCH  34  35
ENDBRANCH  32  34
ENDBRANCH  10  32
TORSDOF 9
ENDMDL
MODEL 2
REMARK VINA RESULT:      -8.0      2.395      6.456
REMARK  9 active torsions:
REMARK  status: ('A' for Active; 'I' for Inactive)
REMARK    1  A    between atoms: C_5  and  C_6 
REMARK    2  A    between atoms: C_8  and  C_9 
REMARK    3  A    between atoms: C_9  and  C_10 
REMARK       I    between atoms: C_10  and  N_11 
REMARK    4  A    between atoms: N_11  and  C_12 
REMARK    5  A    between atoms: C_12  and  C_13 
REMARK    6  A    between atoms: C_13  and  N_14 
REMARK    7  A    between atoms: C_28  and  C_29 
REMARK    8  A    between atoms: C_29  and  O_30 
REMARK    9  A    between atoms: O_30  and  C_31 
ROOT
HETATM    1  C   UNL     1      42.240 -12.709   6.654  1.00  0.00     0.166 C 
HETATM    2  N   UNL     1      41.256 -11.856   5.963  1.00  0.00    -0.319 N 
HETATM    3  C   UNL     1      41.182 -10.818   5.198  1.00  0.00     0.011 C 
HETATM    4  C   UNL     1      39.846 -12.461   6.203  1.00  0.00     0.170 C 
HETATM    5  S   UNL     1      38.617 -11.266   6.027  1.00  0.00    -0.086 SA
HETATM    6  C   UNL     1      39.791 -10.200   5.114  1.00  0.00     0.135 C 
HETATM    7  N   UNL     1      39.647 -13.725   6.374  1.00  0.00    -0.229 NA
HETATM    8  C   UNL     1      40.738 -14.568   6.146  1.00  0.00     0.048 C 
HETATM    9  C   UNL     1      40.338 -15.957   5.701  1.00  0.00     0.071 C 
HETATM   10  C   UNL     1      42.017 -14.113   6.197  1.00  0.00     0.069 C 
ENDROOT
BRANCH   3  11
HETATM   11  C   UNL     1      42.372 -10.284   4.447  1.00  0.00     0.156 C 
BRANCH  11  12
HETATM   12  C   UNL     1      42.399 -10.711   2.982  1.00  0.00     0.223 C 
HETATM   13  N   UNL     1      41.727  -9.888   2.118  1.00  0.00    -0.359 N 
HETATM   14  H   UNL     1      41.205  -9.110   2.517  1.00  0.00     0.162 HD
HETATM   15  O   UNL     1      42.990 -11.717   2.599  1.00  0.00    -0.273 OA
BRANCH  13  16
HETATM   16  C   UNL     1      41.375 -10.212   0.728  1.00  0.00     0.150 C 
BRANCH  16  17
HETATM   17  C   UNL     1      40.155 -11.132   0.467  1.00  0.00     0.254 C 
BRANCH  17  18
HETATM   18  N   UNL     1      40.339 -12.560   0.954  1.00  0.00    -0.070 N 
HETATM   19  H   UNL     1      41.355 -12.651   1.153  1.00  0.00     0.279 HD
HETATM   20  C   UNL     1      39.597 -12.884   2.229  1.00  0.00     0.235 C 
HETATM   21  C   UNL     1      39.977 -14.282   2.700  1.00  0.00     0.028 C 
HETATM   22  C   UNL     1      39.699 -15.330   1.631  1.00  0.00     0.003 C 
HETATM   23  C   UNL     1      40.377 -14.964   0.318  1.00  0.00     0.028 C 
HETATM   24  C   UNL     1      40.009 -13.558  -0.138  1.00  0.00     0.235 C 
ENDBRANCH  17  18
ENDBRANCH  16  17
ENDBRANCH  13  16
ENDBRANCH  11  12
ENDBRANCH   3  11
BRANCH   1  25
HETATM   25  C   UNL     1      43.551 -12.037   7.029  1.00  0.00    -0.030 A 
HETATM   26  C   UNL     1      44.581 -12.042   6.054  1.00  0.00     0.010 A 
HETATM   27  C   UNL     1      45.779 -11.349   6.241  1.00  0.00     0.007 A 
HETATM   28  C   UNL     1      45.998 -10.632   7.412  1.00  0.00    -0.062 A 
HETATM   29  C   UNL     1      47.224  -9.779   7.570  1.00  0.00     0.048 C 
HETATM   30  C   UNL     1      45.009 -10.644   8.401  1.00  0.00     0.007 A 
HETATM   31  C   UNL     1      43.810 -11.350   8.219  1.00  0.00     0.010 A 
ENDBRANCH   1  25
BRANCH  10  32
HETATM   32  C   UNL     1      43.098 -14.878   5.589  1.00  0.00     0.294 C 
HETATM   33  O   UNL     1      43.843 -15.547   6.289  1.00  0.00    -0.259 OA
BRANCH  32  34
HETATM   34  O   UNL     1      43.099 -14.722   4.255  1.00  0.00    -0.313 OA
BRANCH  34  35
HETATM   35  C   UNL     1      43.444 -15.834   3.392  1.00  0.00     0.124 C 
HETATM   36  C   UNL     1      42.538 -17.045   3.598  1.00  0.00     0.040 C 
HETATM   37  C   UNL     1      43.526 -15.400   1.933  1.00  0.00     0.040 C 
ENDBRANCH  34  35
ENDBRANCH  32  34
ENDBRANCH  10  32
TORSDOF 9
ENDMDL
MODEL 3
REMARK VINA RESULT:      -7.9      4.418      7.049
REMARK  9 active torsions:
REMARK  status: ('A' for Active; 'I' for Inactive)
REMARK    1  A    between atoms: C_5  and  C_6 
REMARK    2  A    between atoms: C_8  and  C_9 
REMARK    3  A    between atoms: C_9  and  C_10 
REMARK       I    between atoms: C_10  and  N_11 
REMARK    4  A    between atoms: N_11  and  C_12 
REMARK    5  A    between atoms: C_12  and  C_13 
REMARK    6  A    between atoms: C_13  and  N_14 
REMARK    7  A    between atoms: C_28  and  C_29 
REMARK    8  A    between atoms: C_29  and  O_30 
REMARK    9  A    between atoms: O_30  and  C_31 
ROOT
HETATM    1  C   UNL     1      41.938 -12.866   5.246  1.00  0.00     0.166 C 
HETATM    2  N   UNL     1      42.205 -11.739   6.159  1.00  0.00    -0.319 N 
HETATM    3  C   UNL     1      41.709 -10.607   6.535  1.00  0.00     0.011 C 
HETATM    4  C   UNL     1      43.485 -12.074   6.971  1.00  0.00     0.170 C 
HETATM    5  S   UNL     1      44.243 -10.642   7.556  1.00  0.00    -0.086 SA
HETATM    6  C   UNL     1      42.690  -9.715   7.288  1.00  0.00     0.135 C 
HETATM    7  N   UNL     1      43.830 -13.283   7.266  1.00  0.00    -0.229 NA
HETATM    8  C   UNL     1      42.901 -14.287   6.986  1.00  0.00     0.048 C 
HETATM    9  C   UNL     1      43.020 -15.485   7.900  1.00  0.00     0.071 C 
HETATM   10  C   UNL     1      41.915 -14.113   6.067  1.00  0.00     0.069 C 
ENDROOT
BRANCH   3  11
HETATM   11  C   UNL     1      40.281 -10.222   6.261  1.00  0.00     0.156 C 
BRANCH  11  12
HETATM   12  C   UNL     1      39.403 -10.241   7.510  1.00  0.00     0.223 C 
HETATM   13  N   UNL     1      39.523  -9.150   8.329  1.00  0.00    -0.359 N 
HETATM   14  H   UNL     1      40.229  -8.456   8.089  1.00  0.00     0.162 HD
HETATM   15  O   UNL     1      38.635 -11.165   7.763  1.00  0.00    -0.273 OA
BRANCH  13  16
HETATM   16  C   UNL     1      39.007  -9.050   9.702  1.00  0.00     0.150 C 
BRANCH  16  17
HETATM   17  C   UNL     1      39.818  -9.704  10.848  1.00  0.00     0.254 C 
BRANCH  17  18
HETATM   18  N   UNL     1      41.031  -8.900  11.288  1.00  0.00    -0.070 N 
HETATM   19  H   UNL     1      41.065  -8.084  10.644  1.00  0.00     0.279 HD
HETATM   20  C   UNL     1      40.945  -8.361  12.697  1.00  0.00     0.235 C 
HETATM   21  C   UNL     1      42.135  -7.452  12.969  1.00  0.00     0.028 C 
HETATM   22  C   UNL     1      43.457  -8.173  12.746  1.00  0.00     0.003 C 
HETATM   23  C   UNL     1      43.514  -8.789  11.354  1.00  0.00     0.028 C 
HETATM   24  C   UNL     1      42.312  -9.683  11.080  1.00  0.00     0.235 C 
ENDBRANCH  17  18
ENDBRANCH  16  17
ENDBRANCH  13  16
ENDBRANCH  11  12
ENDBRANCH   3  11
BRANCH   1  25
HETATM   25  C   UNL     1      41.118 -12.537   4.010  1.00  0.00    -0.030 A 
HETATM   26  C   UNL     1      41.831 -12.283   2.811  1.00  0.00     0.010 A 
HETATM   27  C   UNL     1      41.180 -12.093   1.589  1.00  0.00     0.007 A 
HETATM   28  C   UNL     1      39.791 -12.140   1.521  1.00  0.00    -0.062 A 
HETATM   29  C   UNL     1      39.088 -12.067   0.196  1.00  0.00     0.048 C 
HETATM   30  C   UNL     1      39.069 -12.353   2.699  1.00  0.00     0.007 A 
HETATM   31  C   UNL     1      39.722 -12.532   3.928  1.00  0.00     0.010 A 
ENDBRANCH   1  25
BRANCH  10  32
HETATM   32  C   UNL     1      40.746 -14.984   6.064  1.00  0.00     0.294 C 
HETATM   33  O   UNL     1      39.732 -14.650   6.656  1.00  0.00    -0.259 OA
BRANCH  32  34
HETATM   34  O   UNL     1      40.985 -16.096   5.350  1.00  0.00    -0.313 OA
BRANCH  34  35
HETATM   35  C   UNL     1      41.598 -16.002   4.039  1.00  0.00     0.124 C 
HETATM   36  C   UNL     1      42.707 -17.029   3.830  1.00  0.00     0.040 C 
HETATM   37  C   UNL     1      40.549 -16.034   2.933  1.00  0.00     0.040 C 
ENDBRANCH  34  35
ENDBRANCH  32  34
ENDBRANCH  10  32
TORSDOF 9
ENDMDL
MODEL 4
REMARK VINA RESULT:      -7.8      2.769      4.126
REMARK  9 active torsions:
REMARK  status: ('A' for Active; 'I' for Inactive)
REMARK    1  A    between atoms: C_5  and  C_6 
REMARK    2  A    between atoms: C_8  and  C_9 
REMARK    3  A    between atoms: C_9  and  C_10 
REMARK       I    between atoms: C_10  and  N_11 
REMARK    4  A    between atoms: N_11  and  C_12 
REMARK    5  A    between atoms: C_12  and  C_13 
REMARK    6  A    between atoms: C_13  and  N_14 
REMARK    7  A    between atoms: C_28  and  C_29 
REMARK    8  A    between atoms: C_29  and  O_30 
REMARK    9  A    between atoms: O_30  and  C_31 
ROOT
HETATM    1  C   UNL     1      40.482 -12.787   3.193  1.00  0.00     0.166 C 
HETATM    2  N   UNL     1      40.790 -11.964   4.377  1.00  0.00    -0.319 N 
HETATM    3  C   UNL     1      41.764 -11.665   5.171  1.00  0.00     0.011 C 
HETATM    4  C   UNL     1      39.519 -11.147   4.735  1.00  0.00     0.170 C 
HETATM    5  S   UNL     1      39.528 -10.679   6.394  1.00  0.00    -0.086 SA
HETATM    6  C   UNL     1      41.328 -10.994   6.469  1.00  0.00     0.135 C 
HETATM    7  N   UNL     1      38.658 -10.769   3.852  1.00  0.00    -0.229 NA
HETATM    8  C   UNL     1      39.007 -10.961   2.512  1.00  0.00     0.048 C 
HETATM    9  C   UNL     1      38.364  -9.963   1.577  1.00  0.00     0.071 C 
HETATM   10  C   UNL     1      39.940 -11.876   2.141  1.00  0.00     0.069 C 
ENDROOT
BRANCH   3  11
HETATM   11  C   UNL     1      43.201 -11.946   4.827  1.00  0.00     0.156 C 
BRANCH  11  12
HETATM   12  C   UNL     1      44.102 -12.063   6.054  1.00  0.00     0.223 C 
HETATM   13  N   UNL     1      44.781 -10.924   6.394  1.00  0.00    -0.359 N 
HETATM   14  H   UNL     1      44.697 -10.121   5.773  1.00  0.00     0.162 HD
HETATM   15  O   UNL     1      44.206 -13.102   6.699  1.00  0.00    -0.273 OA
BRANCH  13  16
HETATM   16  C   UNL     1      45.899 -10.846   7.346  1.00  0.00     0.150 C 
BRANCH  16  17
HETATM   17  C   UNL     1      46.312  -9.456   7.894  1.00  0.00     0.254 C 
BRANCH  17  18
HETATM   18  N   UNL     1      45.409  -8.933   8.999  1.00  0.00    -0.070 N 
HETATM   19  H   UNL     1      46.004  -8.284   9.552  1.00  0.00     0.279 HD
HETATM   20  C   UNL     1      44.215  -8.147   8.509  1.00  0.00     0.235 C 
HETATM   21  C   UNL     1      43.476  -7.548   9.698  1.00  0.00     0.028 C 
HETATM   22  C   UNL     1      43.048  -8.618  10.693  1.00  0.00     0.003 C 
HETATM   23  C   UNL     1      44.236  -9.467  11.126  1.00  0.00     0.028 C 
HETATM   24  C   UNL     1      44.983 -10.048   9.933  1.00  0.00     0.235 C 
ENDBRANCH  17  18
ENDBRANCH  16  17
ENDBRANCH  13  16
ENDBRANCH  11  12
ENDBRANCH   3  11
BRANCH   1  25
HETATM   25  C   UNL     1      41.334 -14.032   3.013  1.00  0.00    -0.030 A 
HETATM   26  C   UNL     1      40.840 -15.239   3.570  1.00  0.00     0.010 A 
HETATM   27  C   UNL     1      41.475 -16.465   3.360  1.00  0.00     0.007 A 
HETATM   28  C   UNL     1      42.633 -16.532   2.593  1.00  0.00    -0.062 A 
HETATM   29  C   UNL     1      43.251 -17.858   2.253  1.00  0.00     0.048 C 
HETATM   30  C   UNL     1      43.156 -15.348   2.065  1.00  0.00     0.007 A 
HETATM   31  C   UNL     1      42.526 -14.114   2.285  1.00  0.00     0.010 A 
ENDBRANCH   1  25
BRANCH  10  32
HETATM   32  C   UNL     1      40.569 -11.798   0.828  1.00  0.00     0.294 C 
HETATM   33  O   UNL     1      41.620 -11.193   0.688  1.00  0.00    -0.259 OA
BRANCH  32  34
HETATM   34  O   UNL     1      39.842 -12.462  -0.086  1.00  0.00    -0.313 OA
BRANCH  34  35
HETATM   35  C   UNL     1      40.377 -13.652  -0.716  1.00  0.00     0.124 C 
HETATM   36  C   UNL     1      39.843 -14.941  -0.096  1.00  0.00     0.040 C 
HETATM   37  C   UNL     1      40.196 -13.607  -2.230  1.00  0.00     0.040 C 
ENDBRANCH  34  35
ENDBRANCH  32  34
ENDBRANCH  10  32
TORSDOF 9
ENDMDL
MODEL 5
REMARK VINA RESULT:      -7.8      1.652      3.335
REMARK  9 active torsions:
REMARK  status: ('A' for Active; 'I' for Inactive)
REMARK    1  A    between atoms: C_5  and  C_6 
REMARK    2  A    between atoms: C_8  and  C_9 
REMARK    3  A    between atoms: C_9  and  C_10 
REMARK       I    between atoms: C_10  and  N_11 
REMARK    4  A    between atoms: N_11  and  C_12 
REMARK    5  A    between atoms: C_12  and  C_13 
REMARK    6  A    between atoms: C_13  and  N_14 
REMARK    7  A    between atoms: C_28  and  C_29 
REMARK    8  A    between atoms: C_29  and  O_30 
REMARK    9  A    between atoms: O_30  and  C_31 
ROOT
HETATM    1  C   UNL     1      39.767 -12.979   2.089  1.00  0.00     0.166 C 
HETATM    2  N   UNL     1      40.248 -11.886   2.953  1.00  0.00    -0.319 N 
HETATM    3  C   UNL     1      41.323 -11.448   3.520  1.00  0.00     0.011 C 
HETATM    4  C   UNL     1      39.062 -10.916   3.203  1.00  0.00     0.170 C 
HETATM    5  S   UNL     1      39.292 -10.012   4.651  1.00  0.00    -0.086 SA
HETATM    6  C   UNL     1      41.076 -10.417   4.616  1.00  0.00     0.135 C 
HETATM    7  N   UNL     1      38.112 -10.737   2.347  1.00  0.00    -0.229 NA
HETATM    8  C   UNL     1      38.286 -11.314   1.086  1.00  0.00     0.048 C 
HETATM    9  C   UNL     1      37.569 -10.570  -0.016  1.00  0.00     0.071 C 
HETATM   10  C   UNL     1      39.133 -12.358   0.889  1.00  0.00     0.069 C 
ENDROOT
BRANCH   3  11
HETATM   11  C   UNL     1      42.696 -11.912   3.115  1.00  0.00     0.156 C 
BRANCH  11  12
HETATM   12  C   UNL     1      43.678 -11.976   4.282  1.00  0.00     0.223 C 
HETATM   13  N   UNL     1      43.505 -13.032   5.137  1.00  0.00    -0.359 N 
HETATM   14  H   UNL     1      42.704 -13.641   4.978  1.00  0.00     0.162 HD
HETATM   15  O   UNL     1      44.568 -11.146   4.443  1.00  0.00    -0.273 OA
BRANCH  13  16
HETATM   16  C   UNL     1      44.126 -13.170   6.462  1.00  0.00     0.150 C 
BRANCH  16  17
HETATM   17  C   UNL     1      43.585 -12.305   7.629  1.00  0.00     0.254 C 
BRANCH  17  18
HETATM   18  N   UNL     1      44.104 -10.876   7.633  1.00  0.00    -0.070 N 
HETATM   19  H   UNL     1      44.170 -10.607   6.631  1.00  0.00     0.279 HD
HETATM   20  C   UNL     1      43.190  -9.883   8.311  1.00  0.00     0.235 C 
HETATM   21  C   UNL     1      43.735  -8.474   8.120  1.00  0.00     0.028 C 
HETATM   22  C   UNL     1      45.158  -8.345   8.646  1.00  0.00     0.003 C 
HETATM   23  C   UNL     1      46.066  -9.400   8.027  1.00  0.00     0.028 C 
HETATM   24  C   UNL     1      45.507 -10.805   8.204  1.00  0.00     0.235 C 
ENDBRANCH  17  18
ENDBRANCH  16  17
ENDBRANCH  13  16
ENDBRANCH  11  12
ENDBRANCH   3  11
BRANCH   1  25
HETATM   25  C   UNL     1      40.545 -14.282   2.176  1.00  0.00    -0.030 A 
HETATM   26  C   UNL     1      41.615 -14.458   1.263  1.00  0.00     0.010 A 
HETATM   27  C   UNL     1      42.475 -15.557   1.333  1.00  0.00     0.007 A 
HETATM   28  C   UNL     1      42.291 -16.528   2.312  1.00  0.00    -0.062 A 
HETATM   29  C   UNL     1      43.283 -17.644   2.478  1.00  0.00     0.048 C 
HETATM   30  C   UNL     1      41.219 -16.392   3.198  1.00  0.00     0.007 A 
HETATM   31  C   UNL     1      40.348 -15.294   3.121  1.00  0.00     0.010 A 
ENDBRANCH   1  25
BRANCH  10  32
HETATM   32  C   UNL     1      39.596 -12.689  -0.453  1.00  0.00     0.294 C 
HETATM   33  O   UNL     1      40.522 -12.066  -0.951  1.00  0.00    -0.259 OA
BRANCH  32  34
HETATM   34  O   UNL     1      38.885 -13.706  -0.964  1.00  0.00    -0.313 OA
BRANCH  34  35
HETATM   35  C   UNL     1      38.556 -13.728  -2.375  1.00  0.00     0.124 C 
HETATM   36  C   UNL     1      38.718 -15.112  -2.998  1.00  0.00     0.040 C 
HETATM   37  C   UNL     1      37.181 -13.122  -2.634  1.00  0.00     0.040 C 
ENDBRANCH  34  35
ENDBRANCH  32  34
ENDBRANCH  10  32
TORSDOF 9
ENDMDL
MODEL 6
REMARK VINA RESULT:      -7.6      2.306      3.746
REMARK  9 active torsions:
REMARK  status: ('A' for Active; 'I' for Inactive)
REMARK    1  A    between atoms: C_5  and  C_6 
REMARK    2  A    between atoms: C_8  and  C_9 
REMARK    3  A    between atoms: C_9  and  C_10 
REMARK       I    between atoms: C_10  and  N_11 
REMARK    4  A    between atoms: N_11  and  C_12 
REMARK    5  A    between atoms: C_12  and  C_13 
REMARK    6  A    between atoms: C_13  and  N_14 
REMARK    7  A    between atoms: C_28  and  C_29 
REMARK    8  A    between atoms: C_29  and  O_30 
REMARK    9  A    between atoms: O_30  and  C_31 
ROOT
HETATM    1  C   UNL     1      40.126 -13.245   2.135  1.00  0.00     0.166 C 
HETATM    2  N   UNL     1      40.315 -12.055   2.985  1.00  0.00    -0.319 N 
HETATM    3  C   UNL     1      41.230 -11.414   3.634  1.00  0.00     0.011 C 
HETATM    4  C   UNL     1      38.959 -11.304   3.065  1.00  0.00     0.170 C 
HETATM    5  S   UNL     1      38.871 -10.326   4.480  1.00  0.00    -0.086 SA
HETATM    6  C   UNL     1      40.691 -10.408   4.644  1.00  0.00     0.135 C 
HETATM    7  N   UNL     1      38.090 -11.325   2.110  1.00  0.00    -0.229 NA
HETATM    8  C   UNL     1      38.496 -11.903   0.904  1.00  0.00     0.048 C 
HETATM    9  C   UNL     1      37.783 -11.336  -0.301  1.00  0.00     0.071 C 
HETATM   10  C   UNL     1      39.527 -12.786   0.847  1.00  0.00     0.069 C 
ENDROOT
BRANCH   3  11
HETATM   11  C   UNL     1      42.698 -11.640   3.392  1.00  0.00     0.156 C 
BRANCH  11  12
HETATM   12  C   UNL     1      43.422 -12.231   4.599  1.00  0.00     0.223 C 
HETATM   13  N   UNL     1      44.175 -11.345   5.323  1.00  0.00    -0.359 N 
HETATM   14  H   UNL     1      44.256 -10.394   4.968  1.00  0.00     0.162 HD
HETATM   15  O   UNL     1      43.331 -13.416   4.908  1.00  0.00    -0.273 OA
BRANCH  13  16
HETATM   16  C   UNL     1      45.168 -11.704   6.346  1.00  0.00     0.150 C 
BRANCH  16  17
HETATM   17  C   UNL     1      45.642 -10.609   7.335  1.00  0.00     0.254 C 
BRANCH  17  18
HETATM   18  N   UNL     1      44.670 -10.338   8.472  1.00  0.00    -0.070 N 
HETATM   19  H   UNL     1      44.118 -11.213   8.574  1.00  0.00     0.279 HD
HETATM   20  C   UNL     1      45.329 -10.060   9.803  1.00  0.00     0.235 C 
HETATM   21  C   UNL     1      44.265  -9.957  10.888  1.00  0.00     0.028 C 
HETATM   22  C   UNL     1      43.232  -8.887  10.563  1.00  0.00     0.003 C 
HETATM   23  C   UNL     1      42.624  -9.116   9.185  1.00  0.00     0.028 C 
HETATM   24  C   UNL     1      43.693  -9.238   8.107  1.00  0.00     0.235 C 
ENDBRANCH  17  18
ENDBRANCH  16  17
ENDBRANCH  13  16
ENDBRANCH  11  12
ENDBRANCH   3  11
BRANCH   1  25
HETATM   25  C   UNL     1      41.104 -14.385   2.366  1.00  0.00    -0.030 A 
HETATM   26  C   UNL     1      40.740 -15.364   3.325  1.00  0.00     0.010 A 
HETATM   27  C   UNL     1      41.500 -16.518   3.530  1.00  0.00     0.007 A 
HETATM   28  C   UNL     1      42.658 -16.734   2.790  1.00  0.00    -0.062 A 
HETATM   29  C   UNL     1      43.411 -18.028   2.908  1.00  0.00     0.048 C 
HETATM   30  C   UNL     1      43.053 -15.763   1.865  1.00  0.00     0.007 A 
HETATM   31  C   UNL     1      42.297 -14.598   1.667  1.00  0.00     0.010 A 
ENDBRANCH   1  25
BRANCH  10  32
HETATM   32  C   UNL     1      40.182 -13.074  -0.423  1.00  0.00     0.294 C 
HETATM   33  O   UNL     1      39.819 -14.025  -1.097  1.00  0.00    -0.259 OA
BRANCH  32  34
HETATM   34  O   UNL     1      41.148 -12.175  -0.673  1.00  0.00    -0.313 OA
BRANCH  34  35
HETATM   35  C   UNL     1      40.971 -11.189  -1.721  1.00  0.00     0.124 C 
HETATM   36  C   UNL     1      41.754  -9.905  -1.462  1.00  0.00     0.040 C 
HETATM   37  C   UNL     1      41.253 -11.784  -3.096  1.00  0.00     0.040 C 
ENDBRANCH  34  35
ENDBRANCH  32  34
ENDBRANCH  10  32
TORSDOF 9
ENDMDL
MODEL 7
REMARK VINA RESULT:      -7.6      4.630      8.968
REMARK  9 active torsions:
REMARK  status: ('A' for Active; 'I' for Inactive)
REMARK    1  A    between atoms: C_5  and  C_6 
REMARK    2  A    between atoms: C_8  and  C_9 
REMARK    3  A    between atoms: C_9  and  C_10 
REMARK       I    between atoms: C_10  and  N_11 
REMARK    4  A    between atoms: N_11  and  C_12 
REMARK    5  A    between atoms: C_12  and  C_13 
REMARK    6  A    between atoms: C_13  and  N_14 
REMARK    7  A    between atoms: C_28  and  C_29 
REMARK    8  A    between atoms: C_29  and  O_30 
REMARK    9  A    between atoms: O_30  and  C_31 
ROOT
HETATM    1  C   UNL     1      42.122  -7.950   9.159  1.00  0.00     0.166 C 
HETATM    2  N   UNL     1      41.016  -8.869   9.487  1.00  0.00    -0.319 N 
HETATM    3  C   UNL     1      39.954  -9.394   8.971  1.00  0.00     0.011 C 
HETATM    4  C   UNL     1      41.264  -9.425  10.915  1.00  0.00     0.170 C 
HETATM    5  S   UNL     1      39.794  -9.956  11.640  1.00  0.00    -0.086 SA
HETATM    6  C   UNL     1      39.007 -10.018   9.990  1.00  0.00     0.135 C 
HETATM    7  N   UNL     1      42.446  -9.581  11.409  1.00  0.00    -0.229 NA
HETATM    8  C   UNL     1      43.521  -9.407  10.534  1.00  0.00     0.048 C 
HETATM    9  C   UNL     1      44.742 -10.211  10.917  1.00  0.00     0.071 C 
HETATM   10  C   UNL     1      43.400  -8.685   9.389  1.00  0.00     0.069 C 
ENDROOT
BRANCH   3  11
HETATM   11  C   UNL     1      39.694  -9.396   7.489  1.00  0.00     0.156 C 
BRANCH  11  12
HETATM   12  C   UNL     1      39.302 -10.770   6.950  1.00  0.00     0.223 C 
HETATM   13  N   UNL     1      40.344 -11.626   6.713  1.00  0.00    -0.359 N 
HETATM   14  H   UNL     1      41.288 -11.266   6.838  1.00  0.00     0.162 HD
HETATM   15  O   UNL     1      38.134 -11.091   6.750  1.00  0.00    -0.273 OA
BRANCH  13  16
HETATM   16  C   UNL     1      40.263 -12.881   5.950  1.00  0.00     0.150 C 
BRANCH  16  17
HETATM   17  C   UNL     1      41.209 -13.074   4.738  1.00  0.00     0.254 C 
BRANCH  17  18
HETATM   18  N   UNL     1      41.229 -14.491   4.188  1.00  0.00    -0.070 N 
HETATM   19  H   UNL     1      40.546 -15.019   4.767  1.00  0.00     0.279 HD
HETATM   20  C   UNL     1      40.785 -14.607   2.748  1.00  0.00     0.235 C 
HETATM   21  C   UNL     1      40.699 -16.076   2.356  1.00  0.00     0.028 C 
HETATM   22  C   UNL     1      42.024 -16.795   2.573  1.00  0.00     0.003 C 
HETATM   23  C   UNL     1      42.517 -16.610   4.002  1.00  0.00     0.028 C 
HETATM   24  C   UNL     1      42.583 -15.141   4.395  1.00  0.00     0.235 C 
ENDBRANCH  17  18
ENDBRANCH  16  17
ENDBRANCH  13  16
ENDBRANCH  11  12
ENDBRANCH   3  11
BRANCH   1  25
HETATM   25  C   UNL     1      41.816  -6.897   8.106  1.00  0.00    -0.030 A 
HETATM   26  C   UNL     1      41.402  -5.623   8.568  1.00  0.00     0.010 A 
HETATM   27  C   UNL     1      41.215  -4.545   7.700  1.00  0.00     0.007 A 
HETATM   28  C   UNL     1      41.427  -4.702   6.334  1.00  0.00    -0.062 A 
HETATM   29  C   UNL     1      41.356  -3.522   5.408  1.00  0.00     0.048 C 
HETATM   30  C   UNL     1      41.801  -5.961   5.854  1.00  0.00     0.007 A 
HETATM   31  C   UNL     1      41.977  -7.046   6.725  1.00  0.00     0.010 A 
ENDBRANCH   1  25
BRANCH  10  32
HETATM   32  C   UNL     1      44.378  -8.832   8.318  1.00  0.00     0.294 C 
HETATM   33  O   UNL     1      45.358  -8.104   8.280  1.00  0.00    -0.259 OA
BRANCH  32  34
HETATM   34  O   UNL     1      44.024  -9.822   7.484  1.00  0.00    -0.313 OA
BRANCH  34  35
HETATM   35  C   UNL     1      44.750 -11.077   7.494  1.00  0.00     0.124 C 
HETATM   36  C   UNL     1      43.831 -12.292   7.387  1.00  0.00     0.040 C 
HETATM   37  C   UNL     1      45.861 -11.084   6.451  1.00  0.00     0.040 C 
ENDBRANCH  34  35
ENDBRANCH  32  34
ENDBRANCH  10  32
TORSDOF 9
ENDMDL
MODEL 8
REMARK VINA RESULT:      -7.6      2.493      7.488
REMARK  9 active torsions:
REMARK  status: ('A' for Active; 'I' for Inactive)
REMARK    1  A    between atoms: C_5  and  C_6 
REMARK    2  A    between atoms: C_8  and  C_9 
REMARK    3  A    between atoms: C_9  and  C_10 
REMARK       I    between atoms: C_10  and  N_11 
REMARK    4  A    between atoms: N_11  and  C_12 
REMARK    5  A    between atoms: C_12  and  C_13 
REMARK    6  A    between atoms: C_13  and  N_14 
REMARK    7  A    between atoms: C_28  and  C_29 
REMARK    8  A    between atoms: C_29  and  O_30 
REMARK    9  A    between atoms: O_30  and  C_31 
ROOT
HETATM    1  C   UNL     1      42.256 -13.131   3.451  1.00  0.00     0.166 C 
HETATM    2  N   UNL     1      41.447 -12.283   2.556  1.00  0.00    -0.319 N 
HETATM    3  C   UNL     1      40.447 -12.344   1.740  1.00  0.00     0.011 C 
HETATM    4  C   UNL     1      41.944 -10.820   2.705  1.00  0.00     0.170 C 
HETATM    5  S   UNL     1      41.561  -9.887   1.308  1.00  0.00    -0.086 SA
HETATM    6  C   UNL     1      40.315 -11.135   0.822  1.00  0.00     0.135 C 
HETATM    7  N   UNL     1      42.450 -10.361   3.801  1.00  0.00    -0.229 NA
HETATM    8  C   UNL     1      42.364 -11.185   4.926  1.00  0.00     0.048 C 
HETATM    9  C   UNL     1      42.326 -10.419   6.228  1.00  0.00     0.071 C 
HETATM   10  C   UNL     1      42.196 -12.529   4.816  1.00  0.00     0.069 C 
ENDROOT
BRANCH   3  11
HETATM   11  C   UNL     1      39.494 -13.508   1.719  1.00  0.00     0.156 C 
BRANCH  11  12
HETATM   12  C   UNL     1      39.673 -14.410   0.500  1.00  0.00     0.223 C 
HETATM   13  N   UNL     1      39.140 -13.931  -0.667  1.00  0.00    -0.359 N 
HETATM   14  H   UNL     1      38.609 -13.063  -0.622  1.00  0.00     0.162 HD
HETATM   15  O   UNL     1      40.260 -15.486   0.556  1.00  0.00    -0.273 OA
BRANCH  13  16
HETATM   16  C   UNL     1      38.938 -14.710  -1.898  1.00  0.00     0.150 C 
BRANCH  16  17
HETATM   17  C   UNL     1      38.380 -13.986  -3.150  1.00  0.00     0.254 C 
BRANCH  17  18
HETATM   18  N   UNL     1      38.958 -12.598  -3.372  1.00  0.00    -0.070 N 
HETATM   19  H   UNL     1      38.897 -12.438  -4.397  1.00  0.00     0.279 HD
HETATM   20  C   UNL     1      38.189 -11.488  -2.694  1.00  0.00     0.235 C 
HETATM   21  C   UNL     1      38.765 -10.140  -3.110  1.00  0.00     0.028 C 
HETATM   22  C   UNL     1      40.251 -10.041  -2.793  1.00  0.00     0.003 C 
HETATM   23  C   UNL     1      41.018 -11.206  -3.405  1.00  0.00     0.028 C 
HETATM   24  C   UNL     1      40.427 -12.550  -3.002  1.00  0.00     0.235 C 
ENDBRANCH  17  18
ENDBRANCH  16  17
ENDBRANCH  13  16
ENDBRANCH  11  12
ENDBRANCH   3  11
BRANCH   1  25
HETATM   25  C   UNL     1      42.341 -14.600   3.072  1.00  0.00    -0.030 A 
HETATM   26  C   UNL     1      43.317 -14.964   2.110  1.00  0.00     0.010 A 
HETATM   27  C   UNL     1      43.569 -16.297   1.778  1.00  0.00     0.007 A 
HETATM   28  C   UNL     1      42.848 -17.319   2.388  1.00  0.00    -0.062 A 
HETATM   29  C   UNL     1      43.197 -18.757   2.137  1.00  0.00     0.048 C 
HETATM   30  C   UNL     1      41.856 -16.979   3.313  1.00  0.00     0.007 A 
HETATM   31  C   UNL     1      41.595 -15.639   3.638  1.00  0.00     0.010 A 
ENDBRANCH   1  25
BRANCH  10  32
HETATM   32  C   UNL     1      41.724 -13.309   5.953  1.00  0.00     0.294 C 
HETATM   33  O   UNL     1      40.529 -13.375   6.196  1.00  0.00    -0.259 OA
BRANCH  32  34
HETATM   34  O   UNL     1      42.754 -13.882   6.596  1.00  0.00    -0.313 OA
BRANCH  34  35
HETATM   35  C   UNL     1      43.022 -15.296   6.429  1.00  0.00     0.124 C 
HETATM   36  C   UNL     1      44.513 -15.622   6.449  1.00  0.00     0.040 C 
HETATM   37  C   UNL     1      42.222 -16.133   7.422  1.00  0.00     0.040 C 
ENDBRANCH  34  35
ENDBRANCH  32  34
ENDBRANCH  10  32
TORSDOF 9
ENDMDL
MODEL 9
REMARK VINA RESULT:      -7.5      2.515      7.161
REMARK  9 active torsions:
REMARK  status: ('A' for Active; 'I' for Inactive)
REMARK    1  A    between atoms: C_5  and  C_6 
REMARK    2  A    between atoms: C_8  and  C_9 
REMARK    3  A    between atoms: C_9  and  C_10 
REMARK       I    between atoms: C_10  and  N_11 
REMARK    4  A    between atoms: N_11  and  C_12 
REMARK    5  A    between atoms: C_12  and  C_13 
REMARK    6  A    between atoms: C_13  and  N_14 
REMARK    7  A    between atoms: C_28  and  C_29 
REMARK    8  A    between atoms: C_29  and  O_30 
REMARK    9  A    between atoms: O_30  and  C_31 
ROOT
HETATM    1  C   UNL     1      42.036 -13.752   4.822  1.00  0.00     0.166 C 
HETATM    2  N   UNL     1      41.885 -12.455   5.507  1.00  0.00    -0.319 N 
HETATM    3  C   UNL     1      41.096 -11.434   5.571  1.00  0.00     0.011 C 
HETATM    4  C   UNL     1      43.044 -12.317   6.531  1.00  0.00     0.170 C 
HETATM    5  S   UNL     1      43.356 -10.663   6.900  1.00  0.00    -0.086 SA
HETATM    6  C   UNL     1      41.709 -10.211   6.243  1.00  0.00     0.135 C 
HETATM    7  N   UNL     1      43.587 -13.333   7.113  1.00  0.00    -0.229 NA
HETATM    8  C   UNL     1      42.963 -14.570   6.930  1.00  0.00     0.048 C 
HETATM    9  C   UNL     1      43.178 -15.526   8.081  1.00  0.00     0.071 C 
HETATM   10  C   UNL     1      42.141 -14.805   5.874  1.00  0.00     0.069 C 
ENDROOT
BRANCH   3  11
HETATM   11  C   UNL     1      39.689 -11.467   5.039  1.00  0.00     0.156 C 
BRANCH  11  12
HETATM   12  C   UNL     1      39.537 -10.758   3.696  1.00  0.00     0.223 C 
HETATM   13  N   UNL     1      38.249 -10.499   3.311  1.00  0.00    -0.359 N 
HETATM   14  H   UNL     1      37.499 -10.859   3.900  1.00  0.00     0.162 HD
HETATM   15  O   UNL     1      40.501 -10.433   3.009  1.00  0.00    -0.273 OA
BRANCH  13  16
HETATM   16  C   UNL     1      37.824 -10.085   1.966  1.00  0.00     0.150 C 
BRANCH  16  17
HETATM   17  C   UNL     1      37.280 -11.162   0.995  1.00  0.00     0.254 C 
BRANCH  17  18
HETATM   18  N   UNL     1      38.175 -11.422  -0.207  1.00  0.00    -0.070 N 
HETATM   19  H   UNL     1      38.577 -12.367  -0.048  1.00  0.00     0.279 HD
HETATM   20  C   UNL     1      37.446 -11.455  -1.530  1.00  0.00     0.235 C 
HETATM   21  C   UNL     1      38.411 -11.872  -2.633  1.00  0.00     0.028 C 
HETATM   22  C   UNL     1      39.618 -10.948  -2.704  1.00  0.00     0.003 C 
HETATM   23  C   UNL     1      40.307 -10.845  -1.349  1.00  0.00     0.028 C 
HETATM   24  C   UNL     1      39.335 -10.447  -0.247  1.00  0.00     0.235 C 
ENDBRANCH  17  18
ENDBRANCH  16  17
ENDBRANCH  13  16
ENDBRANCH  11  12
ENDBRANCH   3  11
BRANCH   1  25
HETATM   25  C   UNL     1      41.394 -13.853   3.448  1.00  0.00    -0.030 A 
HETATM   26  C   UNL     1      42.153 -13.384   2.345  1.00  0.00     0.010 A 
HETATM   27  C   UNL     1      41.717 -13.541   1.027  1.00  0.00     0.007 A 
HETATM   28  C   UNL     1      40.502 -14.164   0.761  1.00  0.00    -0.062 A 
HETATM   29  C   UNL     1      40.084 -14.454  -0.652  1.00  0.00     0.048 C 
HETATM   30  C   UNL     1      39.722 -14.600   1.836  1.00  0.00     0.007 A 
HETATM   31  C   UNL     1      40.154 -14.432   3.161  1.00  0.00     0.010 A 
ENDBRANCH   1  25
BRANCH  10  32
HETATM   32  C   UNL     1      41.210 -15.927   5.900  1.00  0.00     0.294 C 
HETATM   33  O   UNL     1      40.081 -15.775   6.340  1.00  0.00    -0.259 OA
BRANCH  32  34
HETATM   34  O   UNL     1      41.781 -17.030   5.389  1.00  0.00    -0.313 OA
BRANCH  34  35
HETATM   35  C   UNL     1      42.927 -16.915   4.509  1.00  0.00     0.124 C 
HETATM   36  C   UNL     1      44.136 -17.702   5.007  1.00  0.00     0.040 C 
HETATM   37  C   UNL     1      42.556 -17.252   3.069  1.00  0.00     0.040 C 
ENDBRANCH  34  35
ENDBRANCH  32  34
ENDBRANCH  10  32
TORSDOF 9
ENDMDL
MODEL 10
REMARK VINA RESULT:      -7.5      3.100      5.674
REMARK  9 active torsions:
REMARK  status: ('A' for Active; 'I' for Inactive)
REMARK    1  A    between atoms: C_5  and  C_6 
REMARK    2  A    between atoms: C_8  and  C_9 
REMARK    3  A    between atoms: C_9  and  C_10 
REMARK       I    between atoms: C_10  and  N_11 
REMARK    4  A    between atoms: N_11  and  C_12 
REMARK    5  A    between atoms: C_12  and  C_13 
REMARK    6  A    between atoms: C_13  and  N_14 
REMARK    7  A    between atoms: C_28  and  C_29 
REMARK    8  A    between atoms: C_29  and  O_30 
REMARK    9  A    between atoms: O_30  and  C_31 
ROOT
HETATM    1  C   UNL     1      41.780 -13.815   3.183  1.00  0.00     0.166 C 
HETATM    2  N   UNL     1      41.917 -14.142   4.614  1.00  0.00    -0.319 N 
HETATM    3  C   UNL     1      41.361 -13.914   5.758  1.00  0.00     0.011 C 
HETATM    4  C   UNL     1      43.095 -15.142   4.766  1.00  0.00     0.170 C 
HETATM    5  S   UNL     1      43.754 -15.090   6.357  1.00  0.00    -0.086 SA
HETATM    6  C   UNL     1      42.229 -14.277   6.958  1.00  0.00     0.135 C 
HETATM    7  N   UNL     1      43.421 -15.984   3.844  1.00  0.00    -0.229 NA
HETATM    8  C   UNL     1      42.548 -16.096   2.759  1.00  0.00     0.048 C 
HETATM    9  C   UNL     1      42.575 -17.460   2.107  1.00  0.00     0.071 C 
HETATM   10  C   UNL     1      41.678 -15.104   2.436  1.00  0.00     0.069 C 
ENDROOT
BRANCH   3  11
HETATM   11  C   UNL     1      39.971 -13.354   5.882  1.00  0.00     0.156 C 
BRANCH  11  12
HETATM   12  C   UNL     1      39.948 -11.890   6.315  1.00  0.00     0.223 C 
HETATM   13  N   UNL     1      41.107 -11.195   6.093  1.00  0.00    -0.359 N 
HETATM   14  H   UNL     1      41.907 -11.714   5.734  1.00  0.00     0.162 HD
HETATM   15  O   UNL     1      38.959 -11.366   6.819  1.00  0.00    -0.273 OA
BRANCH  13  16
HETATM   16  C   UNL     1      41.435  -9.877   6.656  1.00  0.00     0.150 C 
BRANCH  16  17
HETATM   17  C   UNL     1      41.410  -9.701   8.195  1.00  0.00     0.254 C 
BRANCH  17  18
HETATM   18  N   UNL     1      42.721 -10.048   8.881  1.00  0.00    -0.070 N 
HETATM   19  H   UNL     1      42.643 -11.055   9.126  1.00  0.00     0.279 HD
HETATM   20  C   UNL     1      43.943  -9.886   8.007  1.00  0.00     0.235 C 
HETATM   21  C   UNL     1      45.171 -10.405   8.745  1.00  0.00     0.028 C 
HETATM   22  C   UNL     1      45.364  -9.700  10.080  1.00  0.00     0.003 C 
HETATM   23  C   UNL     1      44.104  -9.788  10.931  1.00  0.00     0.028 C 
HETATM   24  C   UNL     1      42.877  -9.286  10.183  1.00  0.00     0.235 C 
ENDBRANCH  17  18
ENDBRANCH  16  17
ENDBRANCH  13  16
ENDBRANCH  11  12
ENDBRANCH   3  11
BRANCH   1  25
HETATM   25  C   UNL     1      41.110 -12.488   2.869  1.00  0.00    -0.030 A 
HETATM   26  C   UNL     1      41.957 -11.391   2.570  1.00  0.00     0.010 A 
HETATM   27  C   UNL     1      41.453 -10.160   2.146  1.00  0.00     0.007 A 
HETATM   28  C   UNL     1      40.080  -9.974   2.012  1.00  0.00    -0.062 A 
HETATM   29  C   UNL     1      39.533  -8.700   1.435  1.00  0.00     0.048 C 
HETATM   30  C   UNL     1      39.226 -11.032   2.337  1.00  0.00     0.007 A 
HETATM   31  C   UNL     1      39.732 -12.266   2.774  1.00  0.00     0.010 A 
ENDBRANCH   1  25
BRANCH  10  32
HETATM   32  C   UNL     1      40.532 -15.377   1.577  1.00  0.00     0.294 C 
HETATM   33  O   UNL     1      39.515 -15.861   2.049  1.00  0.00    -0.259 OA
BRANCH  32  34
HETATM   34  O   UNL     1      40.793 -15.019   0.310  1.00  0.00    -0.313 OA
BRANCH  34  35
HETATM   35  C   UNL     1      39.926 -14.081  -0.375  1.00  0.00     0.124 C 
HETATM   36  C   UNL     1      40.639 -12.785  -0.753  1.00  0.00     0.040 C 
HETATM   37  C   UNL     1      39.225 -14.736  -1.560  1.00  0.00     0.040 C 
ENDBRANCH  34  35
ENDBRANCH  32  34
ENDBRANCH  10  32
TORSDOF 9
ENDMDL
