MODEL 1
REMARK VINA RESULT:      -7.6      0.000      0.000
REMARK  11 active torsions:
REMARK  status: ('A' for Active; 'I' for Inactive)
REMARK    1  A    between atoms: O_2  and  C_3 
REMARK    2  A    between atoms: C_6  and  C_7 
REMARK    3  A    between atoms: C_7  and  C_8 
REMARK       I    between atoms: C_8  and  N_9 
REMARK    4  A    between atoms: N_9  and  C_10 
REMARK    5  A    between atoms: C_10  and  N_11 
REMARK    6  A    between atoms: N_11  and  C_12 
REMARK    7  A    between atoms: C_13  and  C_14 
REMARK       I    between atoms: C_14  and  N_15 
REMARK    8  A    between atoms: N_15  and  C_16 
REMARK    9  A    between atoms: C_16  and  C_17 
REMARK   10  A    between atoms: C_17  and  C_18 
REMARK   11  A    between atoms: C_18  and  O_19 
ROOT
HETATM    1  N   UNL     1      40.691 -13.180   4.910  1.00  0.00    -0.332 N 
HETATM    2  H   UNL     1      39.971 -12.610   5.361  1.00  0.00     0.168 HD
ENDROOT
BRANCH   1   3
HETATM    3  C   UNL     1      40.369 -13.451   3.591  1.00  0.00     0.178 C 
HETATM    4  S   UNL     1      39.348 -12.628   2.559  1.00  0.00    -0.040 SA
BRANCH   3   5
HETATM    5  N   UNL     1      41.050 -14.529   3.041  1.00  0.00    -0.303 N 
HETATM    6  C   UNL     1      42.316 -14.531   2.470  1.00  0.00     0.228 C 
HETATM    7  O   UNL     1      43.119 -13.611   2.621  1.00  0.00    -0.273 OA
HETATM    8  H   UNL     1      40.439 -15.304   2.809  1.00  0.00     0.171 HD
BRANCH   6   9
HETATM    9  C   UNL     1      42.665 -15.784   1.688  1.00  0.00     0.141 C 
BRANCH   9  10
HETATM   10  C   UNL     1      43.156 -16.961   2.504  1.00  0.00    -0.049 A 
HETATM   11  C   UNL     1      43.290 -18.252   1.971  1.00  0.00     0.010 A 
HETATM   12  C   UNL     1      43.767 -19.309   2.758  1.00  0.00     0.037 A 
HETATM   13  C   UNL     1      44.152 -19.085   4.078  1.00  0.00     0.068 A 
HETATM   14  C   UNL     1      44.063 -17.794   4.601  1.00  0.00     0.037 A 
HETATM   15  C   UNL     1      43.571 -16.742   3.825  1.00  0.00     0.010 A 
BRANCH  13  16
HETATM   16  O   UNL     1      44.639 -20.021   4.946  1.00  0.00    -0.356 OA
HETATM   17  C   UNL     1      43.755 -21.068   5.327  1.00  0.00     0.210 C 
ENDBRANCH  13  16
ENDBRANCH   9  10
ENDBRANCH   6   9
ENDBRANCH   3   5
ENDBRANCH   1   3
BRANCH   1  18
HETATM   18  C   UNL     1      41.431 -13.988   5.811  1.00  0.00     0.050 A 
HETATM   19  C   UNL     1      42.726 -13.737   6.298  1.00  0.00     0.058 A 
HETATM   20  C   UNL     1      43.355 -14.695   7.115  1.00  0.00     0.019 A 
HETATM   21  C   UNL     1      42.693 -15.862   7.496  1.00  0.00     0.001 A 
HETATM   22  C   UNL     1      41.386 -16.075   7.080  1.00  0.00     0.002 A 
HETATM   23  C   UNL     1      40.758 -15.141   6.253  1.00  0.00     0.030 A 
BRANCH  19  24
HETATM   24  C   UNL     1      43.461 -12.448   6.171  1.00  0.00     0.253 C 
HETATM   25  N   UNL     1      44.637 -12.346   6.886  1.00  0.00    -0.357 N 
HETATM   26  H   UNL     1      44.917 -13.117   7.479  1.00  0.00     0.162 HD
HETATM   27  O   UNL     1      43.076 -11.591   5.384  1.00  0.00    -0.268 OA
BRANCH  25  28
HETATM   28  C   UNL     1      45.492 -11.183   6.785  1.00  0.00     0.125 C 
BRANCH  28  29
HETATM   29  C   UNL     1      45.538 -10.358   8.068  1.00  0.00     0.046 C 
BRANCH  29  30
HETATM   30  C   UNL     1      44.171 -10.132   8.701  1.00  0.00     0.165 C 
BRANCH  30  31
HETATM   31  O   UNL     1      43.845 -11.250   9.526  1.00  0.00    -0.401 OA
HETATM   32  H   UNL     1      43.628 -10.901  10.407  1.00  0.00     0.209 HD
ENDBRANCH  30  31
ENDBRANCH  29  30
ENDBRANCH  28  29
ENDBRANCH  25  28
ENDBRANCH  19  24
ENDBRANCH   1  18
TORSDOF 11
ENDMDL
MODEL 2
REMARK VINA RESULT:      -7.0      2.555      4.558
REMARK  11 active torsions:
REMARK  status: ('A' for Active; 'I' for Inactive)
REMARK    1  A    between atoms: O_2  and  C_3 
REMARK    2  A    between atoms: C_6  and  C_7 
REMARK    3  A    between atoms: C_7  and  C_8 
REMARK       I    between atoms: C_8  and  N_9 
REMARK    4  A    between atoms: N_9  and  C_10 
REMARK    5  A    between atoms: C_10  and  N_11 
REMARK    6  A    between atoms: N_11  and  C_12 
REMARK    7  A    between atoms: C_13  and  C_14 
REMARK       I    between atoms: C_14  and  N_15 
REMARK    8  A    between atoms: N_15  and  C_16 
REMARK    9  A    between atoms: C_16  and  C_17 
REMARK   10  A    between atoms: C_17  and  C_18 
REMARK   11  A    between atoms: C_18  and  O_19 
ROOT
HETATM    1  N   UNL     1      42.853 -11.457   7.489  1.00  0.00    -0.332 N 
HETATM    2  H   UNL     1      42.547 -12.051   8.264  1.00  0.00     0.168 HD
ENDROOT
BRANCH   1   3
HETATM    3  C   UNL     1      42.410 -11.945   6.271  1.00  0.00     0.178 C 
HETATM    4  S   UNL     1      42.462 -11.236   4.761  1.00  0.00    -0.040 SA
BRANCH   3   5
HETATM    5  N   UNL     1      41.909 -13.240   6.317  1.00  0.00    -0.303 N 
HETATM    6  C   UNL     1      42.625 -14.424   6.434  1.00  0.00     0.228 C 
HETATM    7  O   UNL     1      43.804 -14.460   6.784  1.00  0.00    -0.273 OA
HETATM    8  H   UNL     1      40.961 -13.308   5.963  1.00  0.00     0.171 HD
BRANCH   6   9
HETATM    9  C   UNL     1      41.830 -15.685   6.153  1.00  0.00     0.141 C 
BRANCH   9  10
HETATM   10  C   UNL     1      42.434 -16.641   5.145  1.00  0.00    -0.049 A 
HETATM   11  C   UNL     1      42.203 -16.535   3.765  1.00  0.00     0.010 A 
HETATM   12  C   UNL     1      42.799 -17.430   2.866  1.00  0.00     0.037 A 
HETATM   13  C   UNL     1      43.662 -18.422   3.329  1.00  0.00     0.068 A 
HETATM   14  C   UNL     1      43.929 -18.504   4.696  1.00  0.00     0.037 A 
HETATM   15  C   UNL     1      43.324 -17.625   5.596  1.00  0.00     0.010 A 
BRANCH  13  16
HETATM   16  O   UNL     1      44.311 -19.349   2.562  1.00  0.00    -0.356 OA
HETATM   17  C   UNL     1      43.508 -20.338   1.930  1.00  0.00     0.210 C 
ENDBRANCH  13  16
ENDBRANCH   9  10
ENDBRANCH   6   9
ENDBRANCH   3   5
ENDBRANCH   1   3
BRANCH   1  18
HETATM   18  C   UNL     1      44.041 -10.730   7.756  1.00  0.00     0.050 A 
HETATM   19  C   UNL     1      44.167  -9.595   8.577  1.00  0.00     0.058 A 
HETATM   20  C   UNL     1      45.408  -8.936   8.659  1.00  0.00     0.019 A 
HETATM   21  C   UNL     1      46.528  -9.423   7.984  1.00  0.00     0.001 A 
HETATM   22  C   UNL     1      46.424 -10.588   7.236  1.00  0.00     0.002 A 
HETATM   23  C   UNL     1      45.193 -11.240   7.131  1.00  0.00     0.030 A 
BRANCH  19  24
HETATM   24  C   UNL     1      43.135  -9.098   9.528  1.00  0.00     0.253 C 
HETATM   25  N   UNL     1      43.604  -8.422  10.636  1.00  0.00    -0.357 N 
HETATM   26  H   UNL     1      44.603  -8.332  10.766  1.00  0.00     0.162 HD
HETATM   27  O   UNL     1      41.944  -9.204   9.259  1.00  0.00    -0.268 OA
BRANCH  25  28
HETATM   28  C   UNL     1      42.706  -7.813  11.594  1.00  0.00     0.125 C 
BRANCH  28  29
HETATM   29  C   UNL     1      42.918  -8.317  13.019  1.00  0.00     0.046 C 
BRANCH  29  30
HETATM   30  C   UNL     1      42.024  -9.492  13.392  1.00  0.00     0.165 C 
BRANCH  30  31
HETATM   31  O   UNL     1      41.719 -10.242  12.218  1.00  0.00    -0.401 OA
HETATM   32  H   UNL     1      41.179  -9.671  11.646  1.00  0.00     0.209 HD
ENDBRANCH  30  31
ENDBRANCH  29  30
ENDBRANCH  28  29
ENDBRANCH  25  28
ENDBRANCH  19  24
ENDBRANCH   1  18
TORSDOF 11
ENDMDL
MODEL 3
REMARK VINA RESULT:      -7.0      1.937      2.298
REMARK  11 active torsions:
REMARK  status: ('A' for Active; 'I' for Inactive)
REMARK    1  A    between atoms: O_2  and  C_3 
REMARK    2  A    between atoms: C_6  and  C_7 
REMARK    3  A    between atoms: C_7  and  C_8 
REMARK       I    between atoms: C_8  and  N_9 
REMARK    4  A    between atoms: N_9  and  C_10 
REMARK    5  A    between atoms: C_10  and  N_11 
REMARK    6  A    between atoms: N_11  and  C_12 
REMARK    7  A    between atoms: C_13  and  C_14 
REMARK       I    between atoms: C_14  and  N_15 
REMARK    8  A    between atoms: N_15  and  C_16 
REMARK    9  A    between atoms: C_16  and  C_17 
REMARK   10  A    between atoms: C_17  and  C_18 
REMARK   11  A    between atoms: C_18  and  O_19 
ROOT
HETATM    1  N   UNL     1      39.807 -13.889   3.974  1.00  0.00    -0.332 N 
HETATM    2  H   UNL     1      38.875 -14.313   3.974  1.00  0.00     0.168 HD
ENDROOT
BRANCH   1   3
HETATM    3  C   UNL     1      40.170 -13.464   2.708  1.00  0.00     0.178 C 
HETATM    4  S   UNL     1      39.515 -12.250   1.769  1.00  0.00    -0.040 SA
BRANCH   3   5
HETATM    5  N   UNL     1      41.282 -14.107   2.180  1.00  0.00    -0.303 N 
HETATM    6  C   UNL     1      41.389 -15.435   1.787  1.00  0.00     0.228 C 
HETATM    7  O   UNL     1      40.410 -16.159   1.606  1.00  0.00    -0.273 OA
HETATM    8  H   UNL     1      42.147 -13.610   2.363  1.00  0.00     0.171 HD
BRANCH   6   9
HETATM    9  C   UNL     1      42.805 -15.918   1.537  1.00  0.00     0.141 C 
BRANCH   9  10
HETATM   10  C   UNL     1      43.277 -17.068   2.402  1.00  0.00    -0.049 A 
HETATM   11  C   UNL     1      43.783 -16.887   3.697  1.00  0.00     0.010 A 
HETATM   12  C   UNL     1      44.190 -17.983   4.470  1.00  0.00     0.037 A 
HETATM   13  C   UNL     1      44.065 -19.279   3.974  1.00  0.00     0.068 A 
HETATM   14  C   UNL     1      43.522 -19.469   2.702  1.00  0.00     0.037 A 
HETATM   15  C   UNL     1      43.132 -18.377   1.923  1.00  0.00     0.010 A 
BRANCH  13  16
HETATM   16  O   UNL     1      44.415 -20.429   4.624  1.00  0.00    -0.356 OA
HETATM   17  C   UNL     1      43.846 -20.641   5.909  1.00  0.00     0.210 C 
ENDBRANCH  13  16
ENDBRANCH   9  10
ENDBRANCH   6   9
ENDBRANCH   3   5
ENDBRANCH   1   3
BRANCH   1  18
HETATM   18  C   UNL     1      40.652 -14.361   5.011  1.00  0.00     0.050 A 
HETATM   19  C   UNL     1      41.618 -13.619   5.714  1.00  0.00     0.058 A 
HETATM   20  C   UNL     1      42.440 -14.270   6.653  1.00  0.00     0.019 A 
HETATM   21  C   UNL     1      42.273 -15.624   6.940  1.00  0.00     0.001 A 
HETATM   22  C   UNL     1      41.267 -16.340   6.305  1.00  0.00     0.002 A 
HETATM   23  C   UNL     1      40.458 -15.711   5.356  1.00  0.00     0.030 A 
BRANCH  19  24
HETATM   24  C   UNL     1      41.757 -12.137   5.686  1.00  0.00     0.253 C 
HETATM   25  N   UNL     1      41.842 -11.511   6.913  1.00  0.00    -0.357 N 
HETATM   26  H   UNL     1      41.769 -12.071   7.752  1.00  0.00     0.162 HD
HETATM   27  O   UNL     1      41.894 -11.548   4.619  1.00  0.00    -0.268 OA
BRANCH  25  28
HETATM   28  C   UNL     1      42.064 -10.086   7.028  1.00  0.00     0.125 C 
BRANCH  28  29
HETATM   29  C   UNL     1      40.982  -9.372   7.833  1.00  0.00     0.046 C 
BRANCH  29  30
HETATM   30  C   UNL     1      39.564  -9.751   7.424  1.00  0.00     0.165 C 
BRANCH  30  31
HETATM   31  O   UNL     1      39.192 -10.959   8.085  1.00  0.00    -0.401 OA
HETATM   32  H   UNL     1      38.716 -10.707   8.894  1.00  0.00     0.209 HD
ENDBRANCH  30  31
ENDBRANCH  29  30
ENDBRANCH  28  29
ENDBRANCH  25  28
ENDBRANCH  19  24
ENDBRANCH   1  18
TORSDOF 11
ENDMDL
MODEL 4
REMARK VINA RESULT:      -7.0      1.744      2.467
REMARK  11 active torsions:
REMARK  status: ('A' for Active; 'I' for Inactive)
REMARK    1  A    between atoms: O_2  and  C_3 
REMARK    2  A    between atoms: C_6  and  C_7 
REMARK    3  A    between atoms: C_7  and  C_8 
REMARK       I    between atoms: C_8  and  N_9 
REMARK    4  A    between atoms: N_9  and  C_10 
REMARK    5  A    between atoms: C_10  and  N_11 
REMARK    6  A    between atoms: N_11  and  C_12 
REMARK    7  A    between atoms: C_13  and  C_14 
REMARK       I    between atoms: C_14  and  N_15 
REMARK    8  A    between atoms: N_15  and  C_16 
REMARK    9  A    between atoms: C_16  and  C_17 
REMARK   10  A    between atoms: C_17  and  C_18 
REMARK   11  A    between atoms: C_18  and  O_19 
ROOT
HETATM    1  N   UNL     1      40.311 -12.696   6.218  1.00  0.00    -0.332 N 
HETATM    2  H   UNL     1      39.579 -12.825   6.922  1.00  0.00     0.168 HD
ENDROOT
BRANCH   1   3
HETATM    3  C   UNL     1      39.914 -11.808   5.233  1.00  0.00     0.178 C 
HETATM    4  S   UNL     1      38.972 -10.436   5.359  1.00  0.00    -0.040 SA
BRANCH   3   5
HETATM    5  N   UNL     1      40.437 -12.072   3.973  1.00  0.00    -0.303 N 
HETATM    6  C   UNL     1      39.810 -12.710   2.911  1.00  0.00     0.228 C 
HETATM    7  O   UNL     1      38.593 -12.890   2.863  1.00  0.00    -0.273 OA
HETATM    8  H   UNL     1      41.450 -12.025   3.950  1.00  0.00     0.171 HD
BRANCH   6   9
HETATM    9  C   UNL     1      40.729 -13.120   1.776  1.00  0.00     0.141 C 
BRANCH   9  10
HETATM   10  C   UNL     1      41.468 -14.430   1.959  1.00  0.00    -0.049 A 
HETATM   11  C   UNL     1      40.812 -15.641   2.226  1.00  0.00     0.010 A 
HETATM   12  C   UNL     1      41.534 -16.833   2.369  1.00  0.00     0.037 A 
HETATM   13  C   UNL     1      42.919 -16.840   2.212  1.00  0.00     0.068 A 
HETATM   14  C   UNL     1      43.572 -15.647   1.903  1.00  0.00     0.037 A 
HETATM   15  C   UNL     1      42.857 -14.453   1.777  1.00  0.00     0.010 A 
BRANCH  13  16
HETATM   16  O   UNL     1      43.737 -17.930   2.316  1.00  0.00    -0.356 OA
HETATM   17  C   UNL     1      43.115 -19.208   2.279  1.00  0.00     0.210 C 
ENDBRANCH  13  16
ENDBRANCH   9  10
ENDBRANCH   6   9
ENDBRANCH   3   5
ENDBRANCH   1   3
BRANCH   1  18
HETATM   18  C   UNL     1      41.188 -13.803   6.092  1.00  0.00     0.050 A 
HETATM   19  C   UNL     1      42.565 -13.759   5.810  1.00  0.00     0.058 A 
HETATM   20  C   UNL     1      43.272 -14.963   5.625  1.00  0.00     0.019 A 
HETATM   21  C   UNL     1      42.641 -16.198   5.773  1.00  0.00     0.001 A 
HETATM   22  C   UNL     1      41.299 -16.244   6.129  1.00  0.00     0.002 A 
HETATM   23  C   UNL     1      40.583 -15.057   6.296  1.00  0.00     0.030 A 
BRANCH  19  24
HETATM   24  C   UNL     1      43.416 -12.538   5.850  1.00  0.00     0.253 C 
HETATM   25  N   UNL     1      44.471 -12.561   6.739  1.00  0.00    -0.357 N 
HETATM   26  H   UNL     1      44.591 -13.371   7.334  1.00  0.00     0.162 HD
HETATM   27  O   UNL     1      43.229 -11.627   5.051  1.00  0.00    -0.268 OA
BRANCH  25  28
HETATM   28  C   UNL     1      45.425 -11.476   6.819  1.00  0.00     0.125 C 
BRANCH  28  29
HETATM   29  C   UNL     1      45.414 -10.765   8.169  1.00  0.00     0.046 C 
BRANCH  29  30
HETATM   30  C   UNL     1      44.259  -9.786   8.336  1.00  0.00     0.165 C 
BRANCH  30  31
HETATM   31  O   UNL     1      43.062 -10.514   8.605  1.00  0.00    -0.401 OA
HETATM   32  H   UNL     1      43.231 -11.441   8.366  1.00  0.00     0.209 HD
ENDBRANCH  30  31
ENDBRANCH  29  30
ENDBRANCH  28  29
ENDBRANCH  25  28
ENDBRANCH  19  24
ENDBRANCH   1  18
TORSDOF 11
ENDMDL
MODEL 5
REMARK VINA RESULT:      -6.9      2.072      3.519
REMARK  11 active torsions:
REMARK  status: ('A' for Active; 'I' for Inactive)
REMARK    1  A    between atoms: O_2  and  C_3 
REMARK    2  A    between atoms: C_6  and  C_7 
REMARK    3  A    between atoms: C_7  and  C_8 
REMARK       I    between atoms: C_8  and  N_9 
REMARK    4  A    between atoms: N_9  and  C_10 
REMARK    5  A    between atoms: C_10  and  N_11 
REMARK    6  A    between atoms: N_11  and  C_12 
REMARK    7  A    between atoms: C_13  and  C_14 
REMARK       I    between atoms: C_14  and  N_15 
REMARK    8  A    between atoms: N_15  and  C_16 
REMARK    9  A    between atoms: C_16  and  C_17 
REMARK   10  A    between atoms: C_17  and  C_18 
REMARK   11  A    between atoms: C_18  and  O_19 
ROOT
HETATM    1  N   UNL     1      39.254 -13.480   1.793  1.00  0.00    -0.332 N 
HETATM    2  H   UNL     1      39.130 -14.395   2.234  1.00  0.00     0.168 HD
ENDROOT
BRANCH   1   3
HETATM    3  C   UNL     1      39.957 -13.583   0.605  1.00  0.00     0.178 C 
HETATM    4  S   UNL     1      39.581 -12.979  -0.905  1.00  0.00    -0.040 SA
BRANCH   3   5
HETATM    5  N   UNL     1      41.181 -14.229   0.713  1.00  0.00    -0.303 N 
HETATM    6  C   UNL     1      41.459 -15.418   1.375  1.00  0.00     0.228 C 
HETATM    7  O   UNL     1      40.581 -16.203   1.734  1.00  0.00    -0.273 OA
HETATM    8  H   UNL     1      41.967 -13.619   0.512  1.00  0.00     0.171 HD
BRANCH   6   9
HETATM    9  C   UNL     1      42.933 -15.713   1.574  1.00  0.00     0.141 C 
BRANCH   9  10
HETATM   10  C   UNL     1      43.263 -16.837   2.534  1.00  0.00    -0.049 A 
HETATM   11  C   UNL     1      43.393 -18.172   2.124  1.00  0.00     0.010 A 
HETATM   12  C   UNL     1      43.718 -19.178   3.044  1.00  0.00     0.037 A 
HETATM   13  C   UNL     1      43.953 -18.860   4.380  1.00  0.00     0.068 A 
HETATM   14  C   UNL     1      43.868 -17.528   4.785  1.00  0.00     0.037 A 
HETATM   15  C   UNL     1      43.527 -16.525   3.874  1.00  0.00     0.010 A 
BRANCH  13  16
HETATM   16  O   UNL     1      44.285 -19.740   5.372  1.00  0.00    -0.356 OA
HETATM   17  C   UNL     1      43.948 -21.105   5.161  1.00  0.00     0.210 C 
ENDBRANCH  13  16
ENDBRANCH   9  10
ENDBRANCH   6   9
ENDBRANCH   3   5
ENDBRANCH   1   3
BRANCH   1  18
HETATM   18  C   UNL     1      39.238 -12.395   2.706  1.00  0.00     0.050 A 
HETATM   19  C   UNL     1      39.857 -12.346   3.967  1.00  0.00     0.058 A 
HETATM   20  C   UNL     1      39.662 -11.220   4.790  1.00  0.00     0.019 A 
HETATM   21  C   UNL     1      38.912 -10.130   4.352  1.00  0.00     0.001 A 
HETATM   22  C   UNL     1      38.365 -10.143   3.075  1.00  0.00     0.002 A 
HETATM   23  C   UNL     1      38.535 -11.262   2.257  1.00  0.00     0.030 A 
BRANCH  19  24
HETATM   24  C   UNL     1      40.864 -13.319   4.473  1.00  0.00     0.253 C 
HETATM   25  N   UNL     1      42.043 -12.782   4.950  1.00  0.00    -0.357 N 
HETATM   26  H   UNL     1      42.179 -11.781   4.898  1.00  0.00     0.162 HD
HETATM   27  O   UNL     1      40.588 -14.511   4.549  1.00  0.00    -0.268 OA
BRANCH  25  28
HETATM   28  C   UNL     1      43.070 -13.608   5.547  1.00  0.00     0.125 C 
BRANCH  28  29
HETATM   29  C   UNL     1      43.525 -13.105   6.914  1.00  0.00     0.046 C 
BRANCH  29  30
HETATM   30  C   UNL     1      44.674 -12.106   6.847  1.00  0.00     0.165 C 
BRANCH  30  31
HETATM   31  O   UNL     1      44.832 -11.487   8.122  1.00  0.00    -0.401 OA
HETATM   32  H   UNL     1      45.669 -10.993   8.098  1.00  0.00     0.209 HD
ENDBRANCH  30  31
ENDBRANCH  29  30
ENDBRANCH  28  29
ENDBRANCH  25  28
ENDBRANCH  19  24
ENDBRANCH   1  18
TORSDOF 11
ENDMDL
MODEL 6
REMARK VINA RESULT:      -6.9      2.521      7.135
REMARK  11 active torsions:
REMARK  status: ('A' for Active; 'I' for Inactive)
REMARK    1  A    between atoms: O_2  and  C_3 
REMARK    2  A    between atoms: C_6  and  C_7 
REMARK    3  A    between atoms: C_7  and  C_8 
REMARK       I    between atoms: C_8  and  N_9 
REMARK    4  A    between atoms: N_9  and  C_10 
REMARK    5  A    between atoms: C_10  and  N_11 
REMARK    6  A    between atoms: N_11  and  C_12 
REMARK    7  A    between atoms: C_13  and  C_14 
REMARK       I    between atoms: C_14  and  N_15 
REMARK    8  A    between atoms: N_15  and  C_16 
REMARK    9  A    between atoms: C_16  and  C_17 
REMARK   10  A    between atoms: C_17  and  C_18 
REMARK   11  A    between atoms: C_18  and  O_19 
ROOT
HETATM    1  N   UNL     1      42.081 -16.209   5.587  1.00  0.00    -0.332 N 
HETATM    2  H   UNL     1      41.174 -15.792   5.364  1.00  0.00     0.168 HD
ENDROOT
BRANCH   1   3
HETATM    3  C   UNL     1      42.739 -15.491   6.572  1.00  0.00     0.178 C 
HETATM    4  S   UNL     1      43.197 -15.967   8.104  1.00  0.00    -0.040 SA
BRANCH   3   5
HETATM    5  N   UNL     1      43.123 -14.211   6.193  1.00  0.00    -0.303 N 
HETATM    6  C   UNL     1      42.513 -13.382   5.261  1.00  0.00     0.228 C 
HETATM    7  O   UNL     1      41.375 -13.578   4.836  1.00  0.00    -0.273 OA
HETATM    8  H   UNL     1      44.086 -14.001   6.436  1.00  0.00     0.171 HD
BRANCH   6   9
HETATM    9  C   UNL     1      43.331 -12.175   4.843  1.00  0.00     0.141 C 
BRANCH   9  10
HETATM   10  C   UNL     1      44.056 -11.446   5.955  1.00  0.00    -0.049 A 
HETATM   11  C   UNL     1      45.453 -11.452   6.084  1.00  0.00     0.010 A 
HETATM   12  C   UNL     1      46.083 -10.747   7.118  1.00  0.00     0.037 A 
HETATM   13  C   UNL     1      45.330  -9.996   8.018  1.00  0.00     0.068 A 
HETATM   14  C   UNL     1      43.943  -9.949   7.869  1.00  0.00     0.037 A 
HETATM   15  C   UNL     1      43.311 -10.665   6.849  1.00  0.00     0.010 A 
BRANCH  13  16
HETATM   16  O   UNL     1      45.818  -9.259   9.061  1.00  0.00    -0.356 OA
HETATM   17  C   UNL     1      45.198  -9.447  10.327  1.00  0.00     0.210 C 
ENDBRANCH  13  16
ENDBRANCH   9  10
ENDBRANCH   6   9
ENDBRANCH   3   5
ENDBRANCH   1   3
BRANCH   1  18
HETATM   18  C   UNL     1      42.652 -16.951   4.521  1.00  0.00     0.050 A 
HETATM   19  C   UNL     1      42.179 -17.024   3.199  1.00  0.00     0.058 A 
HETATM   20  C   UNL     1      42.814 -17.887   2.285  1.00  0.00     0.019 A 
HETATM   21  C   UNL     1      43.937 -18.626   2.655  1.00  0.00     0.001 A 
HETATM   22  C   UNL     1      44.452 -18.495   3.937  1.00  0.00     0.002 A 
HETATM   23  C   UNL     1      43.820 -17.658   4.859  1.00  0.00     0.030 A 
BRANCH  19  24
HETATM   24  C   UNL     1      41.148 -16.133   2.600  1.00  0.00     0.253 C 
HETATM   25  N   UNL     1      41.524 -15.445   1.464  1.00  0.00    -0.357 N 
HETATM   26  H   UNL     1      42.471 -15.547   1.123  1.00  0.00     0.162 HD
HETATM   27  O   UNL     1      40.008 -16.117   3.049  1.00  0.00    -0.268 OA
BRANCH  25  28
HETATM   28  C   UNL     1      40.593 -14.612   0.734  1.00  0.00     0.125 C 
BRANCH  28  29
HETATM   29  C   UNL     1      40.717 -13.130   1.076  1.00  0.00     0.046 C 
BRANCH  29  30
HETATM   30  C   UNL     1      39.549 -12.590   1.892  1.00  0.00     0.165 C 
BRANCH  30  31
HETATM   31  O   UNL     1      38.965 -13.656   2.638  1.00  0.00    -0.401 OA
HETATM   32  H   UNL     1      39.290 -13.578   3.550  1.00  0.00     0.209 HD
ENDBRANCH  30  31
ENDBRANCH  29  30
ENDBRANCH  28  29
ENDBRANCH  25  28
ENDBRANCH  19  24
ENDBRANCH   1  18
TORSDOF 11
ENDMDL
MODEL 7
REMARK VINA RESULT:      -6.8      3.011      6.489
REMARK  11 active torsions:
REMARK  status: ('A' for Active; 'I' for Inactive)
REMARK    1  A    between atoms: O_2  and  C_3 
REMARK    2  A    between atoms: C_6  and  C_7 
REMARK    3  A    between atoms: C_7  and  C_8 
REMARK       I    between atoms: C_8  and  N_9 
REMARK    4  A    between atoms: N_9  and  C_10 
REMARK    5  A    between atoms: C_10  and  N_11 
REMARK    6  A    between atoms: N_11  and  C_12 
REMARK    7  A    between atoms: C_13  and  C_14 
REMARK       I    between atoms: C_14  and  N_15 
REMARK    8  A    between atoms: N_15  and  C_16 
REMARK    9  A    between atoms: C_16  and  C_17 
REMARK   10  A    between atoms: C_17  and  C_18 
REMARK   11  A    between atoms: C_18  and  O_19 
ROOT
HETATM    1  N   UNL     1      41.633 -11.736   2.213  1.00  0.00    -0.332 N 
HETATM    2  H   UNL     1      42.396 -11.083   2.013  1.00  0.00     0.168 HD
ENDROOT
BRANCH   1   3
HETATM    3  C   UNL     1      40.786 -11.241   3.190  1.00  0.00     0.178 C 
HETATM    4  S   UNL     1      40.001  -9.771   3.266  1.00  0.00    -0.040 SA
BRANCH   3   5
HETATM    5  N   UNL     1      40.509 -12.133   4.218  1.00  0.00    -0.303 N 
HETATM    6  C   UNL     1      41.096 -12.189   5.475  1.00  0.00     0.228 C 
HETATM    7  O   UNL     1      41.766 -11.268   5.942  1.00  0.00    -0.273 OA
HETATM    8  H   UNL     1      40.026 -12.965   3.897  1.00  0.00     0.171 HD
BRANCH   6   9
HETATM    9  C   UNL     1      40.803 -13.451   6.265  1.00  0.00     0.141 C 
BRANCH   9  10
HETATM   10  C   UNL     1      41.769 -14.600   6.064  1.00  0.00    -0.049 A 
HETATM   11  C   UNL     1      43.068 -14.601   6.593  1.00  0.00     0.010 A 
HETATM   12  C   UNL     1      43.922 -15.695   6.399  1.00  0.00     0.037 A 
HETATM   13  C   UNL     1      43.479 -16.819   5.705  1.00  0.00     0.068 A 
HETATM   14  C   UNL     1      42.173 -16.842   5.216  1.00  0.00     0.037 A 
HETATM   15  C   UNL     1      41.325 -15.746   5.392  1.00  0.00     0.010 A 
BRANCH  13  16
HETATM   16  O   UNL     1      44.204 -17.951   5.455  1.00  0.00    -0.356 OA
HETATM   17  C   UNL     1      44.016 -18.568   4.188  1.00  0.00     0.210 C 
ENDBRANCH  13  16
ENDBRANCH   9  10
ENDBRANCH   6   9
ENDBRANCH   3   5
ENDBRANCH   1   3
BRANCH   1  18
HETATM   18  C   UNL     1      41.951 -13.091   1.939  1.00  0.00     0.050 A 
HETATM   19  C   UNL     1      41.238 -13.971   1.106  1.00  0.00     0.058 A 
HETATM   20  C   UNL     1      41.639 -15.318   1.018  1.00  0.00     0.019 A 
HETATM   21  C   UNL     1      42.766 -15.778   1.699  1.00  0.00     0.001 A 
HETATM   22  C   UNL     1      43.517 -14.892   2.459  1.00  0.00     0.002 A 
HETATM   23  C   UNL     1      43.118 -13.559   2.570  1.00  0.00     0.030 A 
BRANCH  19  24
HETATM   24  C   UNL     1      40.167 -13.577   0.149  1.00  0.00     0.253 C 
HETATM   25  N   UNL     1      40.227 -14.156  -1.103  1.00  0.00    -0.357 N 
HETATM   26  H   UNL     1      40.999 -14.774  -1.318  1.00  0.00     0.162 HD
HETATM   27  O   UNL     1      39.240 -12.865   0.517  1.00  0.00    -0.268 OA
BRANCH  25  28
HETATM   28  C   UNL     1      39.203 -13.927  -2.098  1.00  0.00     0.125 C 
BRANCH  28  29
HETATM   29  C   UNL     1      39.519 -12.757  -3.027  1.00  0.00     0.046 C 
BRANCH  29  30
HETATM   30  C   UNL     1      40.998 -12.395  -3.074  1.00  0.00     0.165 C 
BRANCH  30  31
HETATM   31  O   UNL     1      41.746 -13.529  -3.507  1.00  0.00    -0.401 OA
HETATM   32  H   UNL     1      41.287 -13.895  -4.282  1.00  0.00     0.209 HD
ENDBRANCH  30  31
ENDBRANCH  29  30
ENDBRANCH  28  29
ENDBRANCH  25  28
ENDBRANCH  19  24
ENDBRANCH   1  18
TORSDOF 11
ENDMDL
MODEL 8
REMARK VINA RESULT:      -6.8      1.809      6.655
REMARK  11 active torsions:
REMARK  status: ('A' for Active; 'I' for Inactive)
REMARK    1  A    between atoms: O_2  and  C_3 
REMARK    2  A    between atoms: C_6  and  C_7 
REMARK    3  A    between atoms: C_7  and  C_8 
REMARK       I    between atoms: C_8  and  N_9 
REMARK    4  A    between atoms: N_9  and  C_10 
REMARK    5  A    between atoms: C_10  and  N_11 
REMARK    6  A    between atoms: N_11  and  C_12 
REMARK    7  A    between atoms: C_13  and  C_14 
REMARK       I    between atoms: C_14  and  N_15 
REMARK    8  A    between atoms: N_15  and  C_16 
REMARK    9  A    between atoms: C_16  and  C_17 
REMARK   10  A    between atoms: C_17  and  C_18 
REMARK   11  A    between atoms: C_18  and  O_19 
ROOT
HETATM    1  N   UNL     1      40.904 -15.090   4.294  1.00  0.00    -0.332 N 
HETATM    2  H   UNL     1      40.224 -15.853   4.243  1.00  0.00     0.168 HD
ENDROOT
BRANCH   1   3
HETATM    3  C   UNL     1      40.853 -14.291   3.164  1.00  0.00     0.178 C 
HETATM    4  S   UNL     1      40.170 -14.604   1.674  1.00  0.00    -0.040 SA
BRANCH   3   5
HETATM    5  N   UNL     1      41.396 -13.023   3.329  1.00  0.00    -0.303 N 
HETATM    6  C   UNL     1      42.711 -12.629   3.120  1.00  0.00     0.228 C 
HETATM    7  O   UNL     1      43.522 -13.311   2.494  1.00  0.00    -0.273 OA
HETATM    8  H   UNL     1      40.821 -12.421   3.909  1.00  0.00     0.171 HD
BRANCH   6   9
HETATM    9  C   UNL     1      43.066 -11.261   3.672  1.00  0.00     0.141 C 
BRANCH   9  10
HETATM   10  C   UNL     1      43.604 -11.233   5.087  1.00  0.00    -0.049 A 
HETATM   11  C   UNL     1      44.914 -11.618   5.409  1.00  0.00     0.010 A 
HETATM   12  C   UNL     1      45.376 -11.558   6.731  1.00  0.00     0.037 A 
HETATM   13  C   UNL     1      44.548 -11.079   7.745  1.00  0.00     0.068 A 
HETATM   14  C   UNL     1      43.259 -10.654   7.423  1.00  0.00     0.037 A 
HETATM   15  C   UNL     1      42.789 -10.729   6.109  1.00  0.00     0.010 A 
BRANCH  13  16
HETATM   16  O   UNL     1      44.876 -10.962   9.066  1.00  0.00    -0.356 OA
HETATM   17  C   UNL     1      43.866 -10.473   9.939  1.00  0.00     0.210 C 
ENDBRANCH  13  16
ENDBRANCH   9  10
ENDBRANCH   6   9
ENDBRANCH   3   5
ENDBRANCH   1   3
BRANCH   1  18
HETATM   18  C   UNL     1      42.028 -15.375   5.110  1.00  0.00     0.050 A 
HETATM   19  C   UNL     1      42.926 -16.447   4.961  1.00  0.00     0.058 A 
HETATM   20  C   UNL     1      43.938 -16.638   5.921  1.00  0.00     0.019 A 
HETATM   21  C   UNL     1      44.100 -15.750   6.983  1.00  0.00     0.001 A 
HETATM   22  C   UNL     1      43.264 -14.646   7.087  1.00  0.00     0.002 A 
HETATM   23  C   UNL     1      42.243 -14.457   6.153  1.00  0.00     0.030 A 
BRANCH  19  24
HETATM   24  C   UNL     1      43.024 -17.333   3.769  1.00  0.00     0.253 C 
HETATM   25  N   UNL     1      44.001 -18.306   3.812  1.00  0.00    -0.357 N 
HETATM   26  H   UNL     1      44.615 -18.346   4.616  1.00  0.00     0.162 HD
HETATM   27  O   UNL     1      42.199 -17.248   2.866  1.00  0.00    -0.268 OA
BRANCH  25  28
HETATM   28  C   UNL     1      44.148 -19.287   2.759  1.00  0.00     0.125 C 
BRANCH  28  29
HETATM   29  C   UNL     1      43.661 -20.676   3.159  1.00  0.00     0.046 C 
BRANCH  29  30
HETATM   30  C   UNL     1      43.670 -20.919   4.663  1.00  0.00     0.165 C 
BRANCH  30  31
HETATM   31  O   UNL     1      45.018 -21.039   5.111  1.00  0.00    -0.401 OA
HETATM   32  H   UNL     1      45.290 -20.165   5.438  1.00  0.00     0.209 HD
ENDBRANCH  30  31
ENDBRANCH  29  30
ENDBRANCH  28  29
ENDBRANCH  25  28
ENDBRANCH  19  24
ENDBRANCH   1  18
TORSDOF 11
ENDMDL
MODEL 9
REMARK VINA RESULT:      -6.7      4.340      7.459
REMARK  11 active torsions:
REMARK  status: ('A' for Active; 'I' for Inactive)
REMARK    1  A    between atoms: O_2  and  C_3 
REMARK    2  A    between atoms: C_6  and  C_7 
REMARK    3  A    between atoms: C_7  and  C_8 
REMARK       I    between atoms: C_8  and  N_9 
REMARK    4  A    between atoms: N_9  and  C_10 
REMARK    5  A    between atoms: C_10  and  N_11 
REMARK    6  A    between atoms: N_11  and  C_12 
REMARK    7  A    between atoms: C_13  and  C_14 
REMARK       I    between atoms: C_14  and  N_15 
REMARK    8  A    between atoms: N_15  and  C_16 
REMARK    9  A    between atoms: C_16  and  C_17 
REMARK   10  A    between atoms: C_17  and  C_18 
REMARK   11  A    between atoms: C_18  and  O_19 
ROOT
HETATM    1  N   UNL     1      41.810 -16.369   2.361  1.00  0.00    -0.332 N 
HETATM    2  H   UNL     1      40.933 -16.727   1.976  1.00  0.00     0.168 HD
ENDROOT
BRANCH   1   3
HETATM    3  C   UNL     1      42.201 -15.201   1.730  1.00  0.00     0.178 C 
HETATM    4  S   UNL     1      43.397 -14.116   2.153  1.00  0.00    -0.040 SA
BRANCH   3   5
HETATM    5  N   UNL     1      41.536 -14.938   0.539  1.00  0.00    -0.303 N 
HETATM    6  C   UNL     1      40.234 -14.485   0.375  1.00  0.00     0.228 C 
HETATM    7  O   UNL     1      39.576 -13.995   1.294  1.00  0.00    -0.273 OA
HETATM    8  H   UNL     1      41.974 -15.382  -0.261  1.00  0.00     0.171 HD
BRANCH   6   9
HETATM    9  C   UNL     1      39.693 -14.582  -1.039  1.00  0.00     0.141 C 
BRANCH   9  10
HETATM   10  C   UNL     1      39.306 -13.273  -1.694  1.00  0.00    -0.049 A 
HETATM   11  C   UNL     1      40.251 -12.356  -2.176  1.00  0.00     0.010 A 
HETATM   12  C   UNL     1      39.847 -11.165  -2.794  1.00  0.00     0.037 A 
HETATM   13  C   UNL     1      38.493 -10.888  -2.971  1.00  0.00     0.068 A 
HETATM   14  C   UNL     1      37.548 -11.817  -2.532  1.00  0.00     0.037 A 
HETATM   15  C   UNL     1      37.947 -12.997  -1.901  1.00  0.00     0.010 A 
BRANCH  13  16
HETATM   16  O   UNL     1      37.967  -9.773  -3.561  1.00  0.00    -0.356 OA
HETATM   17  C   UNL     1      38.736  -9.168  -4.593  1.00  0.00     0.210 C 
ENDBRANCH  13  16
ENDBRANCH   9  10
ENDBRANCH   6   9
ENDBRANCH   3   5
ENDBRANCH   1   3
BRANCH   1  18
HETATM   18  C   UNL     1      42.637 -17.370   2.933  1.00  0.00     0.050 A 
HETATM   19  C   UNL     1      43.262 -17.328   4.192  1.00  0.00     0.058 A 
HETATM   20  C   UNL     1      44.130 -18.371   4.568  1.00  0.00     0.019 A 
HETATM   21  C   UNL     1      44.336 -19.471   3.736  1.00  0.00     0.001 A 
HETATM   22  C   UNL     1      43.658 -19.552   2.526  1.00  0.00     0.002 A 
HETATM   23  C   UNL     1      42.810 -18.515   2.134  1.00  0.00     0.030 A 
BRANCH  19  24
HETATM   24  C   UNL     1      42.964 -16.347   5.272  1.00  0.00     0.253 C 
HETATM   25  N   UNL     1      41.647 -16.273   5.679  1.00  0.00    -0.357 N 
HETATM   26  H   UNL     1      40.958 -16.847   5.210  1.00  0.00     0.162 HD
HETATM   27  O   UNL     1      43.873 -15.736   5.821  1.00  0.00    -0.268 OA
BRANCH  25  28
HETATM   28  C   UNL     1      41.235 -15.424   6.776  1.00  0.00     0.125 C 
BRANCH  28  29
HETATM   29  C   UNL     1      40.297 -14.300   6.347  1.00  0.00     0.046 C 
BRANCH  29  30
HETATM   30  C   UNL     1      40.554 -13.794   4.933  1.00  0.00     0.165 C 
BRANCH  30  31
HETATM   31  O   UNL     1      39.826 -14.598   4.007  1.00  0.00    -0.401 OA
HETATM   32  H   UNL     1      38.899 -14.603   4.300  1.00  0.00     0.209 HD
ENDBRANCH  30  31
ENDBRANCH  29  30
ENDBRANCH  28  29
ENDBRANCH  25  28
ENDBRANCH  19  24
ENDBRANCH   1  18
TORSDOF 11
ENDMDL
MODEL 10
REMARK VINA RESULT:      -6.6      3.767      5.760
REMARK  11 active torsions:
REMARK  status: ('A' for Active; 'I' for Inactive)
REMARK    1  A    between atoms: O_2  and  C_3 
REMARK    2  A    between atoms: C_6  and  C_7 
REMARK    3  A    between atoms: C_7  and  C_8 
REMARK       I    between atoms: C_8  and  N_9 
REMARK    4  A    between atoms: N_9  and  C_10 
REMARK    5  A    between atoms: C_10  and  N_11 
REMARK    6  A    between atoms: N_11  and  C_12 
REMARK    7  A    between atoms: C_13  and  C_14 
REMARK       I    between atoms: C_14  and  N_15 
REMARK    8  A    between atoms: N_15  and  C_16 
REMARK    9  A    between atoms: C_16  and  C_17 
REMARK   10  A    between atoms: C_17  and  C_18 
REMARK   11  A    between atoms: C_18  and  O_19 
ROOT
HETATM    1  N   UNL     1      40.877 -12.845  -1.067  1.00  0.00    -0.332 N 
HETATM    2  H   UNL     1      41.611 -13.312  -1.606  1.00  0.00     0.168 HD
ENDROOT
BRANCH   1   3
HETATM    3  C   UNL     1      39.732 -13.619  -0.996  1.00  0.00     0.178 C 
HETATM    4  S   UNL     1      38.508 -13.807  -2.115  1.00  0.00    -0.040 SA
BRANCH   3   5
HETATM    5  N   UNL     1      39.631 -14.395   0.152  1.00  0.00    -0.303 N 
HETATM    6  C   UNL     1      40.655 -15.034   0.838  1.00  0.00     0.228 C 
HETATM    7  O   UNL     1      41.844 -14.769   0.662  1.00  0.00    -0.273 OA
HETATM    8  H   UNL     1      38.687 -14.725   0.321  1.00  0.00     0.171 HD
BRANCH   6   9
HETATM    9  C   UNL     1      40.201 -16.049   1.870  1.00  0.00     0.141 C 
BRANCH   9  10
HETATM   10  C   UNL     1      41.256 -16.515   2.852  1.00  0.00    -0.049 A 
HETATM   11  C   UNL     1      42.325 -17.343   2.481  1.00  0.00     0.010 A 
HETATM   12  C   UNL     1      43.290 -17.735   3.420  1.00  0.00     0.037 A 
HETATM   13  C   UNL     1      43.221 -17.277   4.734  1.00  0.00     0.068 A 
HETATM   14  C   UNL     1      42.184 -16.417   5.097  1.00  0.00     0.037 A 
HETATM   15  C   UNL     1      41.211 -16.038   4.169  1.00  0.00     0.010 A 
BRANCH  13  16
HETATM   16  O   UNL     1      44.096 -17.574   5.740  1.00  0.00    -0.356 OA
HETATM   17  C   UNL     1      44.586 -16.484   6.510  1.00  0.00     0.210 C 
ENDBRANCH  13  16
ENDBRANCH   9  10
ENDBRANCH   6   9
ENDBRANCH   3   5
ENDBRANCH   1   3
BRANCH   1  18
HETATM   18  C   UNL     1      40.974 -11.430  -1.069  1.00  0.00     0.050 A 
HETATM   19  C   UNL     1      40.974 -10.583   0.054  1.00  0.00     0.058 A 
HETATM   20  C   UNL     1      40.982  -9.188  -0.132  1.00  0.00     0.019 A 
HETATM   21  C   UNL     1      41.050  -8.633  -1.409  1.00  0.00     0.001 A 
HETATM   22  C   UNL     1      41.131  -9.467  -2.516  1.00  0.00     0.002 A 
HETATM   23  C   UNL     1      41.102 -10.853  -2.346  1.00  0.00     0.030 A 
BRANCH  19  24
HETATM   24  C   UNL     1      41.135 -11.024   1.467  1.00  0.00     0.253 C 
HETATM   25  N   UNL     1      42.034 -10.306   2.229  1.00  0.00    -0.357 N 
HETATM   26  H   UNL     1      42.556  -9.558   1.792  1.00  0.00     0.162 HD
HETATM   27  O   UNL     1      40.418 -11.906   1.926  1.00  0.00    -0.268 OA
BRANCH  25  28
HETATM   28  C   UNL     1      42.224 -10.574   3.638  1.00  0.00     0.125 C 
BRANCH  28  29
HETATM   29  C   UNL     1      43.489 -11.376   3.932  1.00  0.00     0.046 C 
BRANCH  29  30
HETATM   30  C   UNL     1      43.250 -12.877   4.044  1.00  0.00     0.165 C 
BRANCH  30  31
HETATM   31  O   UNL     1      43.105 -13.428   2.737  1.00  0.00    -0.401 OA
HETATM   32  H   UNL     1      42.469 -14.159   2.804  1.00  0.00     0.209 HD
ENDBRANCH  30  31
ENDBRANCH  29  30
ENDBRANCH  28  29
ENDBRANCH  25  28
ENDBRANCH  19  24
ENDBRANCH   1  18
TORSDOF 11
ENDMDL
