MODEL 1
REMARK VINA RESULT:      -7.9      0.000      0.000
REMARK  5 active torsions:
REMARK  status: ('A' for Active; 'I' for Inactive)
REMARK    1  A    between atoms: C_8  and  C_9 
REMARK    2  A    between atoms: C_9  and  C_10 
REMARK       I    between atoms: C_10  and  N_11 
REMARK    3  A    between atoms: N_11  and  C_12 
REMARK    4  A    between atoms: C_12  and  C_13 
REMARK    5  A    between atoms: C_13  and  C_14 
ROOT
HETATM    1  C   UNL     1      41.338 -16.137   2.754  1.00  0.00     0.226 C 
HETATM    2  N   UNL     1      40.818 -15.103   2.002  1.00  0.00    -0.360 N 
HETATM    3  O   UNL     1      40.782 -16.577   3.759  1.00  0.00    -0.273 OA
HETATM    4  H   UNL     1      41.464 -14.612   1.399  1.00  0.00     0.162 HD
ENDROOT
BRANCH   2   5
HETATM    5  C   UNL     1      39.627 -14.383   2.422  1.00  0.00     0.127 C 
BRANCH   5   6
HETATM    6  C   UNL     1      39.920 -12.969   2.935  1.00  0.00     0.060 C 
BRANCH   6   7
HETATM    7  C   UNL     1      40.606 -12.981   4.268  1.00  0.00    -0.029 A 
HETATM    8  C   UNL     1      41.930 -12.518   4.551  1.00  0.00    -0.002 A 
HETATM    9  C   UNL     1      42.157 -12.707   5.914  1.00  0.00     0.044 A 
HETATM   10  C   UNL     1      42.958 -11.950   3.768  1.00  0.00     0.016 A 
HETATM   11  C   UNL     1      43.359 -12.351   6.540  1.00  0.00     0.054 A 
HETATM   12  N   UNL     1      41.021 -13.278   6.438  1.00  0.00    -0.365 N 
HETATM   13  C   UNL     1      44.355 -11.783   5.740  1.00  0.00     0.036 A 
HETATM   14 CL   UNL     1      45.850 -11.322   6.464  1.00  0.00    -0.084 Cl
HETATM   15  C   UNL     1      44.165 -11.584   4.376  1.00  0.00     0.025 A 
HETATM   16  H   UNL     1      40.904 -13.537   7.409  1.00  0.00     0.165 HD
HETATM   17  C   UNL     1      40.080 -13.444   5.458  1.00  0.00     0.096 A 
ENDBRANCH   6   7
ENDBRANCH   5   6
ENDBRANCH   2   5
BRANCH   1  18
HETATM   18  C   UNL     1      42.669 -16.710   2.254  1.00  0.00     0.111 C 
HETATM   19  C   UNL     1      43.540 -15.629   1.619  1.00  0.00     0.025 C 
BRANCH  18  20
HETATM   20  C   UNL     1      43.334 -17.531   3.330  1.00  0.00     0.004 A 
HETATM   21  C   UNL     1      43.776 -17.187   4.600  1.00  0.00     0.033 A 
HETATM   22  C   UNL     1      43.776 -15.923   5.375  1.00  0.00     0.070 C 
HETATM   23  N   UNL     1      44.306 -18.331   5.134  1.00  0.00    -0.282 N 
HETATM   24  H   UNL     1      44.732 -18.458   6.046  1.00  0.00     0.189 HD
HETATM   25  N   UNL     1      44.234 -19.391   4.326  1.00  0.00    -0.179 NA
HETATM   26  C   UNL     1      43.648 -18.922   3.221  1.00  0.00     0.060 A 
HETATM   27  C   UNL     1      43.396 -19.834   2.073  1.00  0.00     0.073 C 
ENDBRANCH  18  20
ENDBRANCH   1  18
TORSDOF 5
ENDMDL
MODEL 2
REMARK VINA RESULT:      -7.6      4.348      7.625
REMARK  5 active torsions:
REMARK  status: ('A' for Active; 'I' for Inactive)
REMARK    1  A    between atoms: C_8  and  C_9 
REMARK    2  A    between atoms: C_9  and  C_10 
REMARK       I    between atoms: C_10  and  N_11 
REMARK    3  A    between atoms: N_11  and  C_12 
REMARK    4  A    between atoms: C_12  and  C_13 
REMARK    5  A    between atoms: C_13  and  C_14 
ROOT
HETATM    1  C   UNL     1      40.010 -12.842   0.011  1.00  0.00     0.226 C 
HETATM    2  N   UNL     1      40.998 -13.807   0.030  1.00  0.00    -0.360 N 
HETATM    3  O   UNL     1      39.249 -12.647   0.957  1.00  0.00    -0.273 OA
HETATM    4  H   UNL     1      41.360 -14.102  -0.866  1.00  0.00     0.162 HD
ENDROOT
BRANCH   2   5
HETATM    5  C   UNL     1      41.124 -14.741   1.135  1.00  0.00     0.127 C 
BRANCH   5   6
HETATM    6  C   UNL     1      42.468 -15.477   1.160  1.00  0.00     0.060 C 
BRANCH   6   7
HETATM    7  C   UNL     1      42.862 -15.890   2.546  1.00  0.00    -0.029 A 
HETATM    8  C   UNL     1      43.242 -17.203   2.970  1.00  0.00    -0.002 A 
HETATM    9  C   UNL     1      43.536 -17.133   4.333  1.00  0.00     0.044 A 
HETATM   10  C   UNL     1      43.366 -18.447   2.316  1.00  0.00     0.016 A 
HETATM   11  C   UNL     1      43.956 -18.244   5.076  1.00  0.00     0.054 A 
HETATM   12  N   UNL     1      43.327 -15.832   4.726  1.00  0.00    -0.365 N 
HETATM   13  C   UNL     1      44.077 -19.461   4.398  1.00  0.00     0.036 A 
HETATM   14 CL   UNL     1      44.596 -20.857   5.267  1.00  0.00    -0.084 Cl
HETATM   15  C   UNL     1      43.788 -19.569   3.041  1.00  0.00     0.025 A 
HETATM   16  H   UNL     1      43.454 -15.490   5.669  1.00  0.00     0.165 HD
HETATM   17  C   UNL     1      42.926 -15.074   3.659  1.00  0.00     0.096 A 
ENDBRANCH   6   7
ENDBRANCH   5   6
ENDBRANCH   2   5
BRANCH   1  18
HETATM   18  C   UNL     1      39.919 -12.019  -1.279  1.00  0.00     0.111 C 
HETATM   19  C   UNL     1      41.202 -12.120  -2.099  1.00  0.00     0.025 C 
BRANCH  18  20
HETATM   20  C   UNL     1      38.647 -12.334  -2.024  1.00  0.00     0.004 A 
HETATM   21  C   UNL     1      38.215 -13.498  -2.644  1.00  0.00     0.033 A 
HETATM   22  C   UNL     1      38.811 -14.844  -2.820  1.00  0.00     0.070 C 
HETATM   23  N   UNL     1      36.983 -13.208  -3.167  1.00  0.00    -0.282 N 
HETATM   24  H   UNL     1      36.367 -13.817  -3.696  1.00  0.00     0.189 HD
HETATM   25  N   UNL     1      36.571 -11.961  -2.927  1.00  0.00    -0.179 NA
HETATM   26  C   UNL     1      37.573 -11.412  -2.236  1.00  0.00     0.060 A 
HETATM   27  C   UNL     1      37.473  -9.999  -1.784  1.00  0.00     0.073 C 
ENDBRANCH  18  20
ENDBRANCH   1  18
TORSDOF 5
ENDMDL
MODEL 3
REMARK VINA RESULT:      -7.6      3.870      6.709
REMARK  5 active torsions:
REMARK  status: ('A' for Active; 'I' for Inactive)
REMARK    1  A    between atoms: C_8  and  C_9 
REMARK    2  A    between atoms: C_9  and  C_10 
REMARK       I    between atoms: C_10  and  N_11 
REMARK    3  A    between atoms: N_11  and  C_12 
REMARK    4  A    between atoms: C_12  and  C_13 
REMARK    5  A    between atoms: C_13  and  C_14 
ROOT
HETATM    1  C   UNL     1      39.771 -12.699   1.025  1.00  0.00     0.226 C 
HETATM    2  N   UNL     1      41.041 -13.229   0.918  1.00  0.00    -0.360 N 
HETATM    3  O   UNL     1      39.273 -12.372   2.101  1.00  0.00    -0.273 OA
HETATM    4  H   UNL     1      41.248 -13.741   0.071  1.00  0.00     0.162 HD
ENDROOT
BRANCH   2   5
HETATM    5  C   UNL     1      41.831 -13.549   2.094  1.00  0.00     0.127 C 
BRANCH   5   6
HETATM    6  C   UNL     1      42.685 -14.812   1.929  1.00  0.00     0.060 C 
BRANCH   6   7
HETATM    7  C   UNL     1      42.978 -15.471   3.243  1.00  0.00    -0.029 A 
HETATM    8  C   UNL     1      43.337 -16.842   3.448  1.00  0.00    -0.002 A 
HETATM    9  C   UNL     1      43.528 -17.023   4.819  1.00  0.00     0.044 A 
HETATM   10  C   UNL     1      43.520 -17.946   2.590  1.00  0.00     0.016 A 
HETATM   11  C   UNL     1      43.901 -18.253   5.377  1.00  0.00     0.054 A 
HETATM   12  N   UNL     1      43.279 -15.814   5.425  1.00  0.00    -0.365 N 
HETATM   13  C   UNL     1      44.082 -19.327   4.500  1.00  0.00     0.036 A 
HETATM   14 CL   UNL     1      44.547 -20.860   5.136  1.00  0.00    -0.084 Cl
HETATM   15  C   UNL     1      43.896 -19.184   3.128  1.00  0.00     0.025 A 
HETATM   16  H   UNL     1      43.332 -15.651   6.422  1.00  0.00     0.165 HD
HETATM   17  C   UNL     1      42.952 -14.873   4.487  1.00  0.00     0.096 A 
ENDBRANCH   6   7
ENDBRANCH   5   6
ENDBRANCH   2   5
BRANCH   1  18
HETATM   18  C   UNL     1      39.010 -12.539  -0.296  1.00  0.00     0.111 C 
HETATM   19  C   UNL     1      38.152 -11.277  -0.299  1.00  0.00     0.025 C 
BRANCH  18  20
HETATM   20  C   UNL     1      39.943 -12.693  -1.470  1.00  0.00     0.004 A 
HETATM   21  C   UNL     1      40.968 -11.880  -1.936  1.00  0.00     0.033 A 
HETATM   22  C   UNL     1      41.528 -10.584  -1.487  1.00  0.00     0.070 C 
HETATM   23  N   UNL     1      41.472 -12.511  -3.042  1.00  0.00    -0.282 N 
HETATM   24  H   UNL     1      42.226 -12.206  -3.648  1.00  0.00     0.189 HD
HETATM   25  N   UNL     1      40.873 -13.670  -3.326  1.00  0.00    -0.179 NA
HETATM   26  C   UNL     1      39.937 -13.796  -2.382  1.00  0.00     0.060 A 
HETATM   27  C   UNL     1      39.050 -14.990  -2.374  1.00  0.00     0.073 C 
ENDBRANCH  18  20
ENDBRANCH   1  18
TORSDOF 5
ENDMDL
MODEL 4
REMARK VINA RESULT:      -7.3      2.929      5.293
REMARK  5 active torsions:
REMARK  status: ('A' for Active; 'I' for Inactive)
REMARK    1  A    between atoms: C_8  and  C_9 
REMARK    2  A    between atoms: C_9  and  C_10 
REMARK       I    between atoms: C_10  and  N_11 
REMARK    3  A    between atoms: N_11  and  C_12 
REMARK    4  A    between atoms: C_12  and  C_13 
REMARK    5  A    between atoms: C_13  and  C_14 
ROOT
HETATM    1  C   UNL     1      43.176 -11.593   4.334  1.00  0.00     0.226 C 
HETATM    2  N   UNL     1      42.039 -11.427   3.569  1.00  0.00    -0.360 N 
HETATM    3  O   UNL     1      44.311 -11.444   3.883  1.00  0.00    -0.273 OA
HETATM    4  H   UNL     1      41.193 -11.856   3.917  1.00  0.00     0.162 HD
ENDROOT
BRANCH   2   5
HETATM    5  C   UNL     1      42.115 -11.178   2.140  1.00  0.00     0.127 C 
BRANCH   5   6
HETATM    6  C   UNL     1      41.025 -11.898   1.337  1.00  0.00     0.060 C 
BRANCH   6   7
HETATM    7  C   UNL     1      40.709 -13.250   1.900  1.00  0.00    -0.029 A 
HETATM    8  C   UNL     1      41.581 -14.385   1.937  1.00  0.00    -0.002 A 
HETATM    9  C   UNL     1      40.886 -15.426   2.554  1.00  0.00     0.044 A 
HETATM   10  C   UNL     1      42.902 -14.620   1.502  1.00  0.00     0.016 A 
HETATM   11  C   UNL     1      41.448 -16.692   2.767  1.00  0.00     0.054 A 
HETATM   12  N   UNL     1      39.635 -14.948   2.866  1.00  0.00    -0.365 N 
HETATM   13  C   UNL     1      42.762 -16.891   2.332  1.00  0.00     0.036 A 
HETATM   14 CL   UNL     1      43.501 -18.430   2.576  1.00  0.00    -0.084 Cl
HETATM   15  C   UNL     1      43.483 -15.878   1.709  1.00  0.00     0.025 A 
HETATM   16  H   UNL     1      38.909 -15.491   3.315  1.00  0.00     0.165 HD
HETATM   17  C   UNL     1      39.518 -13.640   2.481  1.00  0.00     0.096 A 
ENDBRANCH   6   7
ENDBRANCH   5   6
ENDBRANCH   2   5
BRANCH   1  18
HETATM   18  C   UNL     1      42.935 -11.981   5.797  1.00  0.00     0.111 C 
HETATM   19  C   UNL     1      42.787 -10.749   6.685  1.00  0.00     0.025 C 
BRANCH  18  20
HETATM   20  C   UNL     1      41.824 -12.995   5.904  1.00  0.00     0.004 A 
HETATM   21  C   UNL     1      40.454 -12.837   6.061  1.00  0.00     0.033 A 
HETATM   22  C   UNL     1      39.570 -11.654   6.189  1.00  0.00     0.070 C 
HETATM   23  N   UNL     1      39.934 -14.103   6.103  1.00  0.00    -0.282 N 
HETATM   24  H   UNL     1      38.964 -14.379   6.217  1.00  0.00     0.189 HD
HETATM   25  N   UNL     1      40.845 -15.069   5.972  1.00  0.00    -0.179 NA
HETATM   26  C   UNL     1      42.004 -14.414   5.853  1.00  0.00     0.060 A 
HETATM   27  C   UNL     1      43.270 -15.175   5.686  1.00  0.00     0.073 C 
ENDBRANCH  18  20
ENDBRANCH   1  18
TORSDOF 5
ENDMDL
MODEL 5
REMARK VINA RESULT:      -7.3      2.797      5.977
REMARK  5 active torsions:
REMARK  status: ('A' for Active; 'I' for Inactive)
REMARK    1  A    between atoms: C_8  and  C_9 
REMARK    2  A    between atoms: C_9  and  C_10 
REMARK       I    between atoms: C_10  and  N_11 
REMARK    3  A    between atoms: N_11  and  C_12 
REMARK    4  A    between atoms: C_12  and  C_13 
REMARK    5  A    between atoms: C_13  and  C_14 
ROOT
HETATM    1  C   UNL     1      40.863 -12.700   4.151  1.00  0.00     0.226 C 
HETATM    2  N   UNL     1      40.930 -13.799   4.984  1.00  0.00    -0.360 N 
HETATM    3  O   UNL     1      41.648 -11.756   4.228  1.00  0.00    -0.273 OA
HETATM    4  H   UNL     1      40.093 -14.361   5.060  1.00  0.00     0.162 HD
ENDROOT
BRANCH   2   5
HETATM    5  C   UNL     1      41.868 -13.856   6.091  1.00  0.00     0.127 C 
BRANCH   5   6
HETATM    6  C   UNL     1      43.302 -14.181   5.658  1.00  0.00     0.060 C 
BRANCH   6   7
HETATM    7  C   UNL     1      43.582 -15.654   5.686  1.00  0.00    -0.029 A 
HETATM    8  C   UNL     1      43.506 -16.559   4.579  1.00  0.00    -0.002 A 
HETATM    9  C   UNL     1      43.855 -17.825   5.050  1.00  0.00     0.044 A 
HETATM   10  C   UNL     1      43.173 -16.414   3.216  1.00  0.00     0.016 A 
HETATM   11  C   UNL     1      43.897 -18.956   4.225  1.00  0.00     0.054 A 
HETATM   12  N   UNL     1      44.117 -17.699   6.394  1.00  0.00    -0.365 N 
HETATM   13  C   UNL     1      43.570 -18.779   2.877  1.00  0.00     0.036 A 
HETATM   14 CL   UNL     1      43.612 -20.140   1.819  1.00  0.00    -0.084 Cl
HETATM   15  C   UNL     1      43.213 -17.532   2.374  1.00  0.00     0.025 A 
HETATM   16  H   UNL     1      44.387 -18.462   7.000  1.00  0.00     0.165 HD
HETATM   17  C   UNL     1      43.960 -16.397   6.787  1.00  0.00     0.096 A 
ENDBRANCH   6   7
ENDBRANCH   5   6
ENDBRANCH   2   5
BRANCH   1  18
HETATM   18  C   UNL     1      39.735 -12.727   3.114  1.00  0.00     0.111 C 
HETATM   19  C   UNL     1      38.961 -11.412   3.093  1.00  0.00     0.025 C 
BRANCH  18  20
HETATM   20  C   UNL     1      40.251 -13.198   1.777  1.00  0.00     0.004 A 
HETATM   21  C   UNL     1      40.840 -12.504   0.729  1.00  0.00     0.033 A 
HETATM   22  C   UNL     1      41.178 -11.078   0.510  1.00  0.00     0.070 C 
HETATM   23  N   UNL     1      41.103 -13.438  -0.237  1.00  0.00    -0.282 N 
HETATM   24  H   UNL     1      41.525 -13.296  -1.148  1.00  0.00     0.189 HD
HETATM   25  N   UNL     1      40.750 -14.681   0.099  1.00  0.00    -0.179 NA
HETATM   26  C   UNL     1      40.225 -14.554   1.321  1.00  0.00     0.060 A 
HETATM   27  C   UNL     1      39.710 -15.753   2.033  1.00  0.00     0.073 C 
ENDBRANCH  18  20
ENDBRANCH   1  18
TORSDOF 5
ENDMDL
MODEL 6
REMARK VINA RESULT:      -7.2      3.782      7.765
REMARK  5 active torsions:
REMARK  status: ('A' for Active; 'I' for Inactive)
REMARK    1  A    between atoms: C_8  and  C_9 
REMARK    2  A    between atoms: C_9  and  C_10 
REMARK       I    between atoms: C_10  and  N_11 
REMARK    3  A    between atoms: N_11  and  C_12 
REMARK    4  A    between atoms: C_12  and  C_13 
REMARK    5  A    between atoms: C_13  and  C_14 
ROOT
HETATM    1  C   UNL     1      44.707 -11.436   7.307  1.00  0.00     0.226 C 
HETATM    2  N   UNL     1      43.831 -12.485   7.501  1.00  0.00    -0.360 N 
HETATM    3  O   UNL     1      45.300 -11.250   6.246  1.00  0.00    -0.273 OA
HETATM    4  H   UNL     1      43.634 -12.739   8.459  1.00  0.00     0.162 HD
ENDROOT
BRANCH   2   5
HETATM    5  C   UNL     1      43.642 -13.513   6.492  1.00  0.00     0.127 C 
BRANCH   5   6
HETATM    6  C   UNL     1      42.594 -13.144   5.435  1.00  0.00     0.060 C 
BRANCH   6   7
HETATM    7  C   UNL     1      42.853 -13.819   4.123  1.00  0.00    -0.029 A 
HETATM    8  C   UNL     1      42.948 -15.229   3.891  1.00  0.00    -0.002 A 
HETATM    9  C   UNL     1      43.187 -15.414   2.529  1.00  0.00     0.044 A 
HETATM   10  C   UNL     1      42.849 -16.366   4.720  1.00  0.00     0.016 A 
HETATM   11  C   UNL     1      43.325 -16.681   1.948  1.00  0.00     0.054 A 
HETATM   12  N   UNL     1      43.251 -14.165   1.956  1.00  0.00    -0.365 N 
HETATM   13  C   UNL     1      43.214 -17.790   2.793  1.00  0.00     0.036 A 
HETATM   14 CL   UNL     1      43.370 -19.372   2.126  1.00  0.00    -0.084 Cl
HETATM   15  C   UNL     1      42.981 -17.643   4.157  1.00  0.00     0.025 A 
HETATM   16  H   UNL     1      43.425 -13.992   0.975  1.00  0.00     0.165 HD
HETATM   17  C   UNL     1      43.048 -13.199   2.904  1.00  0.00     0.096 A 
ENDBRANCH   6   7
ENDBRANCH   5   6
ENDBRANCH   2   5
BRANCH   1  18
HETATM   18  C   UNL     1      44.899 -10.507   8.511  1.00  0.00     0.111 C 
HETATM   19  C   UNL     1      45.894  -9.391   8.204  1.00  0.00     0.025 C 
BRANCH  18  20
HETATM   20  C   UNL     1      43.567 -10.057   9.055  1.00  0.00     0.004 A 
HETATM   21  C   UNL     1      42.488  -9.440   8.436  1.00  0.00     0.033 A 
HETATM   22  C   UNL     1      42.227  -8.989   7.049  1.00  0.00     0.070 C 
HETATM   23  N   UNL     1      41.549  -9.258   9.416  1.00  0.00    -0.282 N 
HETATM   24  H   UNL     1      40.633  -8.830   9.334  1.00  0.00     0.189 HD
HETATM   25  N   UNL     1      41.919  -9.716  10.614  1.00  0.00    -0.179 NA
HETATM   26  C   UNL     1      43.147 -10.203  10.415  1.00  0.00     0.060 A 
HETATM   27  C   UNL     1      43.895 -10.810  11.548  1.00  0.00     0.073 C 
ENDBRANCH  18  20
ENDBRANCH   1  18
TORSDOF 5
ENDMDL
MODEL 7
REMARK VINA RESULT:      -7.2      3.863      6.796
REMARK  5 active torsions:
REMARK  status: ('A' for Active; 'I' for Inactive)
REMARK    1  A    between atoms: C_8  and  C_9 
REMARK    2  A    between atoms: C_9  and  C_10 
REMARK       I    between atoms: C_10  and  N_11 
REMARK    3  A    between atoms: N_11  and  C_12 
REMARK    4  A    between atoms: C_12  and  C_13 
REMARK    5  A    between atoms: C_13  and  C_14 
ROOT
HETATM    1  C   UNL     1      41.379 -12.058   1.388  1.00  0.00     0.226 C 
HETATM    2  N   UNL     1      41.660 -13.289   1.946  1.00  0.00    -0.360 N 
HETATM    3  O   UNL     1      42.075 -11.063   1.583  1.00  0.00    -0.273 OA
HETATM    4  H   UNL     1      40.897 -13.951   1.989  1.00  0.00     0.162 HD
ENDROOT
BRANCH   2   5
HETATM    5  C   UNL     1      42.739 -13.459   2.904  1.00  0.00     0.127 C 
BRANCH   5   6
HETATM    6  C   UNL     1      42.276 -14.036   4.247  1.00  0.00     0.060 C 
BRANCH   6   7
HETATM    7  C   UNL     1      43.011 -15.290   4.608  1.00  0.00    -0.029 A 
HETATM    8  C   UNL     1      43.075 -16.495   3.836  1.00  0.00    -0.002 A 
HETATM    9  C   UNL     1      43.872 -17.399   4.539  1.00  0.00     0.044 A 
HETATM   10  C   UNL     1      42.527 -16.896   2.600  1.00  0.00     0.016 A 
HETATM   11  C   UNL     1      44.158 -18.686   4.064  1.00  0.00     0.054 A 
HETATM   12  N   UNL     1      44.265 -16.776   5.700  1.00  0.00    -0.365 N 
HETATM   13  C   UNL     1      43.607 -19.052   2.832  1.00  0.00     0.036 A 
HETATM   14 CL   UNL     1      43.933 -20.623   2.202  1.00  0.00    -0.084 Cl
HETATM   15  C   UNL     1      42.803 -18.178   2.107  1.00  0.00     0.025 A 
HETATM   16  H   UNL     1      44.846 -17.200   6.410  1.00  0.00     0.165 HD
HETATM   17  C   UNL     1      43.757 -15.506   5.750  1.00  0.00     0.096 A 
ENDBRANCH   6   7
ENDBRANCH   5   6
ENDBRANCH   2   5
BRANCH   1  18
HETATM   18  C   UNL     1      40.131 -12.008   0.499  1.00  0.00     0.111 C 
HETATM   19  C   UNL     1      39.282 -10.775   0.797  1.00  0.00     0.025 C 
BRANCH  18  20
HETATM   20  C   UNL     1      40.499 -12.208  -0.949  1.00  0.00     0.004 A 
HETATM   21  C   UNL     1      41.173 -11.387  -1.843  1.00  0.00     0.033 A 
HETATM   22  C   UNL     1      41.772 -10.035  -1.736  1.00  0.00     0.070 C 
HETATM   23  N   UNL     1      41.217 -12.076  -3.025  1.00  0.00    -0.282 N 
HETATM   24  H   UNL     1      41.626 -11.785  -3.906  1.00  0.00     0.189 HD
HETATM   25  N   UNL     1      40.643 -13.280  -2.972  1.00  0.00    -0.179 NA
HETATM   26  C   UNL     1      40.196 -13.377  -1.717  1.00  0.00     0.060 A 
HETATM   27  C   UNL     1      39.485 -14.606  -1.277  1.00  0.00     0.073 C 
ENDBRANCH  18  20
ENDBRANCH   1  18
TORSDOF 5
ENDMDL
MODEL 8
REMARK VINA RESULT:      -7.1      2.112      3.323
REMARK  5 active torsions:
REMARK  status: ('A' for Active; 'I' for Inactive)
REMARK    1  A    between atoms: C_8  and  C_9 
REMARK    2  A    between atoms: C_9  and  C_10 
REMARK       I    between atoms: C_10  and  N_11 
REMARK    3  A    between atoms: N_11  and  C_12 
REMARK    4  A    between atoms: C_12  and  C_13 
REMARK    5  A    between atoms: C_13  and  C_14 
ROOT
HETATM    1  C   UNL     1      40.687 -13.992   3.121  1.00  0.00     0.226 C 
HETATM    2  N   UNL     1      41.980 -13.642   2.786  1.00  0.00    -0.360 N 
HETATM    3  O   UNL     1      39.819 -13.163   3.387  1.00  0.00    -0.273 OA
HETATM    4  H   UNL     1      42.683 -14.361   2.884  1.00  0.00     0.162 HD
ENDROOT
BRANCH   2   5
HETATM    5  C   UNL     1      42.431 -12.262   2.842  1.00  0.00     0.127 C 
BRANCH   5   6
HETATM    6  C   UNL     1      43.603 -12.044   3.806  1.00  0.00     0.060 C 
BRANCH   6   7
HETATM    7  C   UNL     1      43.151 -11.531   5.139  1.00  0.00    -0.029 A 
HETATM    8  C   UNL     1      43.987 -11.176   6.246  1.00  0.00    -0.002 A 
HETATM    9  C   UNL     1      43.154 -10.741   7.277  1.00  0.00     0.044 A 
HETATM   10  C   UNL     1      45.381 -11.184   6.463  1.00  0.00     0.016 A 
HETATM   11  C   UNL     1      43.643 -10.303   8.515  1.00  0.00     0.054 A 
HETATM   12  N   UNL     1      41.860 -10.842   6.822  1.00  0.00    -0.365 N 
HETATM   13  C   UNL     1      45.029 -10.315   8.697  1.00  0.00     0.036 A 
HETATM   14 CL   UNL     1      45.682  -9.781  10.200  1.00  0.00    -0.084 Cl
HETATM   15  C   UNL     1      45.890 -10.747   7.692  1.00  0.00     0.025 A 
HETATM   16  H   UNL     1      41.041 -10.602   7.364  1.00  0.00     0.165 HD
HETATM   17  C   UNL     1      41.846 -11.312   5.536  1.00  0.00     0.096 A 
ENDBRANCH   6   7
ENDBRANCH   5   6
ENDBRANCH   2   5
BRANCH   1  18
HETATM   18  C   UNL     1      40.397 -15.497   3.141  1.00  0.00     0.111 C 
HETATM   19  C   UNL     1      40.170 -16.042   1.734  1.00  0.00     0.025 C 
BRANCH  18  20
HETATM   20  C   UNL     1      41.430 -16.228   3.962  1.00  0.00     0.004 A 
HETATM   21  C   UNL     1      42.585 -16.902   3.588  1.00  0.00     0.033 A 
HETATM   22  C   UNL     1      43.236 -17.167   2.283  1.00  0.00     0.070 C 
HETATM   23  N   UNL     1      43.132 -17.378   4.749  1.00  0.00    -0.282 N 
HETATM   24  H   UNL     1      43.979 -17.926   4.864  1.00  0.00     0.189 HD
HETATM   25  N   UNL     1      42.441 -17.060   5.845  1.00  0.00    -0.179 NA
HETATM   26  C   UNL     1      41.399 -16.362   5.386  1.00  0.00     0.060 A 
HETATM   27  C   UNL     1      40.387 -15.831   6.337  1.00  0.00     0.073 C 
ENDBRANCH  18  20
ENDBRANCH   1  18
TORSDOF 5
ENDMDL
MODEL 9
REMARK VINA RESULT:      -7.0      2.991      4.588
REMARK  5 active torsions:
REMARK  status: ('A' for Active; 'I' for Inactive)
REMARK    1  A    between atoms: C_8  and  C_9 
REMARK    2  A    between atoms: C_9  and  C_10 
REMARK       I    between atoms: C_10  and  N_11 
REMARK    3  A    between atoms: N_11  and  C_12 
REMARK    4  A    between atoms: C_12  and  C_13 
REMARK    5  A    between atoms: C_13  and  C_14 
ROOT
HETATM    1  C   UNL     1      41.676 -16.001   3.448  1.00  0.00     0.226 C 
HETATM    2  N   UNL     1      42.018 -14.680   3.659  1.00  0.00    -0.360 N 
HETATM    3  O   UNL     1      40.698 -16.529   3.973  1.00  0.00    -0.273 OA
HETATM    4  H   UNL     1      42.972 -14.419   3.448  1.00  0.00     0.162 HD
ENDROOT
BRANCH   2   5
HETATM    5  C   UNL     1      41.303 -13.855   4.618  1.00  0.00     0.127 C 
BRANCH   5   6
HETATM    6  C   UNL     1      40.178 -13.025   3.988  1.00  0.00     0.060 C 
BRANCH   6   7
HETATM    7  C   UNL     1      40.604 -12.376   2.707  1.00  0.00    -0.029 A 
HETATM    8  C   UNL     1      40.428 -12.898   1.385  1.00  0.00    -0.002 A 
HETATM    9  C   UNL     1      40.961 -11.967   0.493  1.00  0.00     0.044 A 
HETATM   10  C   UNL     1      39.860 -14.081   0.867  1.00  0.00     0.016 A 
HETATM   11  C   UNL     1      40.948 -12.153  -0.896  1.00  0.00     0.054 A 
HETATM   12  N   UNL     1      41.455 -10.925   1.243  1.00  0.00    -0.365 N 
HETATM   13  C   UNL     1      40.371 -13.331  -1.379  1.00  0.00     0.036 A 
HETATM   14 CL   UNL     1      40.325 -13.605  -3.081  1.00  0.00    -0.084 Cl
HETATM   15  C   UNL     1      39.835 -14.284  -0.519  1.00  0.00     0.025 A 
HETATM   16  H   UNL     1      41.910 -10.108   0.859  1.00  0.00     0.165 HD
HETATM   17  C   UNL     1      41.243 -11.158   2.575  1.00  0.00     0.096 A 
ENDBRANCH   6   7
ENDBRANCH   5   6
ENDBRANCH   2   5
BRANCH   1  18
HETATM   18  C   UNL     1      42.604 -16.778   2.507  1.00  0.00     0.111 C 
HETATM   19  C   UNL     1      43.524 -15.841   1.729  1.00  0.00     0.025 C 
BRANCH  18  20
HETATM   20  C   UNL     1      43.292 -17.900   3.243  1.00  0.00     0.004 A 
HETATM   21  C   UNL     1      43.463 -19.238   2.914  1.00  0.00     0.033 A 
HETATM   22  C   UNL     1      43.050 -20.067   1.757  1.00  0.00     0.070 C 
HETATM   23  N   UNL     1      44.160 -19.792   3.955  1.00  0.00    -0.282 N 
HETATM   24  H   UNL     1      44.460 -20.754   4.067  1.00  0.00     0.189 HD
HETATM   25  N   UNL     1      44.467 -18.926   4.923  1.00  0.00    -0.179 NA
HETATM   26  C   UNL     1      43.944 -17.769   4.509  1.00  0.00     0.060 A 
HETATM   27  C   UNL     1      44.088 -16.550   5.348  1.00  0.00     0.073 C 
ENDBRANCH  18  20
ENDBRANCH   1  18
TORSDOF 5
ENDMDL
MODEL 10
REMARK VINA RESULT:      -7.0      2.269      5.193
REMARK  5 active torsions:
REMARK  status: ('A' for Active; 'I' for Inactive)
REMARK    1  A    between atoms: C_8  and  C_9 
REMARK    2  A    between atoms: C_9  and  C_10 
REMARK       I    between atoms: C_10  and  N_11 
REMARK    3  A    between atoms: N_11  and  C_12 
REMARK    4  A    between atoms: C_12  and  C_13 
REMARK    5  A    between atoms: C_13  and  C_14 
ROOT
HETATM    1  C   UNL     1      39.845 -12.887   2.425  1.00  0.00     0.226 C 
HETATM    2  N   UNL     1      40.610 -13.599   1.523  1.00  0.00    -0.360 N 
HETATM    3  O   UNL     1      38.710 -13.229   2.754  1.00  0.00    -0.273 OA
HETATM    4  H   UNL     1      41.375 -13.103   1.087  1.00  0.00     0.162 HD
ENDROOT
BRANCH   2   5
HETATM    5  C   UNL     1      40.071 -14.742   0.807  1.00  0.00     0.127 C 
BRANCH   5   6
HETATM    6  C   UNL     1      40.170 -16.055   1.593  1.00  0.00     0.060 C 
BRANCH   6   7
HETATM    7  C   UNL     1      41.438 -16.144   2.387  1.00  0.00    -0.029 A 
HETATM    8  C   UNL     1      41.566 -16.022   3.808  1.00  0.00    -0.002 A 
HETATM    9  C   UNL     1      42.916 -16.180   4.121  1.00  0.00     0.044 A 
HETATM   10  C   UNL     1      40.652 -15.795   4.858  1.00  0.00     0.016 A 
HETATM   11  C   UNL     1      43.401 -16.129   5.434  1.00  0.00     0.054 A 
HETATM   12  N   UNL     1      43.586 -16.373   2.936  1.00  0.00    -0.365 N 
HETATM   13  C   UNL     1      42.470 -15.910   6.454  1.00  0.00     0.036 A 
HETATM   14 CL   UNL     1      43.016 -15.845   8.088  1.00  0.00    -0.084 Cl
HETATM   15  C   UNL     1      41.116 -15.744   6.178  1.00  0.00     0.025 A 
HETATM   16  H   UNL     1      44.586 -16.507   2.857  1.00  0.00     0.165 HD
HETATM   17  C   UNL     1      42.707 -16.358   1.887  1.00  0.00     0.096 A 
ENDBRANCH   6   7
ENDBRANCH   5   6
ENDBRANCH   2   5
BRANCH   1  18
HETATM   18  C   UNL     1      40.506 -11.629   3.000  1.00  0.00     0.111 C 
HETATM   19  C   UNL     1      39.525 -10.463   3.066  1.00  0.00     0.025 C 
BRANCH  18  20
HETATM   20  C   UNL     1      41.227 -11.945   4.286  1.00  0.00     0.004 A 
HETATM   21  C   UNL     1      40.784 -11.959   5.602  1.00  0.00     0.033 A 
HETATM   22  C   UNL     1      39.480 -11.672   6.245  1.00  0.00     0.070 C 
HETATM   23  N   UNL     1      41.870 -12.312   6.358  1.00  0.00    -0.282 N 
HETATM   24  H   UNL     1      41.925 -12.416   7.366  1.00  0.00     0.189 HD
HETATM   25  N   UNL     1      42.975 -12.543   5.646  1.00  0.00    -0.179 NA
HETATM   26  C   UNL     1      42.604 -12.321   4.382  1.00  0.00     0.060 A 
HETATM   27  C   UNL     1      43.591 -12.483   3.282  1.00  0.00     0.073 C 
ENDBRANCH  18  20
ENDBRANCH   1  18
TORSDOF 5
ENDMDL
