MODEL 1
REMARK VINA RESULT:      -7.9      0.000      0.000
REMARK  4 active torsions:
REMARK  status: ('A' for Active; 'I' for Inactive)
REMARK    1  A    between atoms: C_2  and  N_3 
REMARK    2  A    between atoms: C_11  and  N_12 
REMARK    3  A    between atoms: N_12  and  C_15 
REMARK    4  A    between atoms: C_15  and  C_16 
ROOT
HETATM    1  N   UNL     1      43.369 -10.487   6.455  1.00  0.00    -0.067 N 
HETATM    2  H   UNL     1      43.433  -9.579   5.970  1.00  0.00     0.280 HD
HETATM    3  C   UNL     1      44.636 -11.229   6.069  1.00  0.00     0.238 C 
HETATM    4  C   UNL     1      44.579 -12.673   6.561  1.00  0.00     0.066 C 
HETATM    5  C   UNL     1      43.355 -13.434   6.001  1.00  0.00     0.073 C 
HETATM    6  O   UNL     1      43.554 -13.489   4.580  1.00  0.00    -0.339 OA
HETATM    7  C   UNL     1      42.783 -14.375   3.881  1.00  0.00     0.078 A 
HETATM    8  C   UNL     1      42.114 -15.457   4.464  1.00  0.00     0.006 A 
HETATM    9  C   UNL     1      42.265 -15.748   5.934  1.00  0.00     0.224 C 
HETATM   10  C   UNL     1      43.350 -14.866   6.570  1.00  0.00     0.076 C 
HETATM   11  C   UNL     1      42.694 -14.133   2.510  1.00  0.00     0.037 A 
HETATM   12  C   UNL     1      41.888 -14.938   1.709  1.00  0.00     0.003 A 
HETATM   13  C   UNL     1      41.166 -15.980   2.281  1.00  0.00     0.001 A 
HETATM   14  C   UNL     1      41.271 -16.237   3.650  1.00  0.00     0.012 A 
HETATM   15  C   UNL     1      42.077 -12.629   6.323  1.00  0.00     0.066 C 
HETATM   16  C   UNL     1      42.177 -11.185   5.829  1.00  0.00     0.238 C 
ENDROOT
BRANCH   9  17
HETATM   17  N   UNL     1      42.602 -17.193   6.182  1.00  0.00    -0.063 N 
HETATM   18  H   UNL     1      42.456 -17.413   7.176  1.00  0.00     0.278 HD
HETATM   19  H   UNL     1      41.928 -17.802   5.696  1.00  0.00     0.278 HD
BRANCH  17  20
HETATM   20  C   UNL     1      43.986 -17.646   5.857  1.00  0.00     0.274 C 
BRANCH  20  21
HETATM   21  C   UNL     1      43.949 -18.764   4.894  1.00  0.00     0.004 A 
HETATM   22  C   UNL     1      43.839 -18.723   3.515  1.00  0.00     0.122 A 
HETATM   23  N   UNL     1      43.861 -20.024   3.087  1.00  0.00    -0.285 N 
HETATM   24  C   UNL     1      43.805 -20.508   1.726  1.00  0.00     0.179 C 
HETATM   25  N   UNL     1      43.943 -20.900   4.100  1.00  0.00    -0.185 NA
HETATM   26  C   UNL     1      44.027 -20.145   5.190  1.00  0.00     0.149 A 
ENDBRANCH  20  21
ENDBRANCH  17  20
ENDBRANCH   9  17
BRANCH   1  27
HETATM   27  C   UNL     1      43.235 -10.118   7.944  1.00  0.00     0.180 C 
HETATM   28  C   UNL     1      41.926  -9.365   8.187  1.00  0.00     0.039 C 
HETATM   29  C   UNL     1      44.408  -9.235   8.375  1.00  0.00     0.039 C 
ENDBRANCH   1  27
TORSDOF 4
ENDMDL
MODEL 2
REMARK VINA RESULT:      -7.8      4.203      6.200
REMARK  4 active torsions:
REMARK  status: ('A' for Active; 'I' for Inactive)
REMARK    1  A    between atoms: C_2  and  N_3 
REMARK    2  A    between atoms: C_11  and  N_12 
REMARK    3  A    between atoms: N_12  and  C_15 
REMARK    4  A    between atoms: C_15  and  C_16 
ROOT
HETATM    1  N   UNL     1      41.058 -11.927   6.449  1.00  0.00    -0.067 N 
HETATM    2  H   UNL     1      41.148 -12.114   7.460  1.00  0.00     0.280 HD
HETATM    3  C   UNL     1      39.821 -12.694   6.017  1.00  0.00     0.238 C 
HETATM    4  C   UNL     1      39.682 -12.668   4.497  1.00  0.00     0.066 C 
HETATM    5  C   UNL     1      40.920 -13.260   3.786  1.00  0.00     0.073 C 
HETATM    6  O   UNL     1      40.960 -14.642   4.173  1.00  0.00    -0.339 OA
HETATM    7  C   UNL     1      41.767 -15.467   3.440  1.00  0.00     0.078 A 
HETATM    8  C   UNL     1      42.241 -15.158   2.160  1.00  0.00     0.006 A 
HETATM    9  C   UNL     1      41.822 -13.885   1.474  1.00  0.00     0.224 C 
HETATM   10  C   UNL     1      40.716 -13.165   2.262  1.00  0.00     0.076 C 
HETATM   11  C   UNL     1      42.105 -16.671   4.058  1.00  0.00     0.037 A 
HETATM   12  C   UNL     1      42.971 -17.561   3.428  1.00  0.00     0.003 A 
HETATM   13  C   UNL     1      43.502 -17.244   2.182  1.00  0.00     0.001 A 
HETATM   14  C   UNL     1      43.147 -16.049   1.553  1.00  0.00     0.012 A 
HETATM   15  C   UNL     1      42.184 -12.533   4.295  1.00  0.00     0.066 C 
HETATM   16  C   UNL     1      42.281 -12.568   5.821  1.00  0.00     0.238 C 
ENDROOT
BRANCH   9  17
HETATM   17  N   UNL     1      41.336 -14.143   0.074  1.00  0.00    -0.063 N 
HETATM   18  H   UNL     1      41.289 -13.254  -0.441  1.00  0.00     0.278 HD
HETATM   19  H   UNL     1      42.035 -14.690  -0.448  1.00  0.00     0.278 HD
BRANCH  17  20
HETATM   20  C   UNL     1      39.999 -14.786  -0.087  1.00  0.00     0.274 C 
BRANCH  20  21
HETATM   21  C   UNL     1      39.209 -14.080  -1.116  1.00  0.00     0.004 A 
HETATM   22  C   UNL     1      38.667 -12.808  -1.076  1.00  0.00     0.122 A 
HETATM   23  N   UNL     1      38.036 -12.621  -2.278  1.00  0.00    -0.285 N 
HETATM   24  C   UNL     1      37.342 -11.439  -2.737  1.00  0.00     0.179 C 
HETATM   25  N   UNL     1      38.107 -13.699  -3.073  1.00  0.00    -0.185 NA
HETATM   26  C   UNL     1      38.839 -14.572  -2.388  1.00  0.00     0.149 A 
ENDBRANCH  20  21
ENDBRANCH  17  20
ENDBRANCH   9  17
BRANCH   1  27
HETATM   27  C   UNL     1      40.966 -10.393   6.349  1.00  0.00     0.180 C 
HETATM   28  C   UNL     1      42.232  -9.749   6.917  1.00  0.00     0.039 C 
HETATM   29  C   UNL     1      39.752  -9.886   7.129  1.00  0.00     0.039 C 
ENDBRANCH   1  27
TORSDOF 4
ENDMDL
MODEL 3
REMARK VINA RESULT:      -7.7      3.591      7.048
REMARK  4 active torsions:
REMARK  status: ('A' for Active; 'I' for Inactive)
REMARK    1  A    between atoms: C_2  and  N_3 
REMARK    2  A    between atoms: C_11  and  N_12 
REMARK    3  A    between atoms: N_12  and  C_15 
REMARK    4  A    between atoms: C_15  and  C_16 
ROOT
HETATM    1  N   UNL     1      39.965 -12.839  -1.759  1.00  0.00    -0.067 N 
HETATM    2  H   UNL     1      40.355 -12.976  -2.705  1.00  0.00     0.280 HD
HETATM    3  C   UNL     1      41.005 -12.013  -1.022  1.00  0.00     0.238 C 
HETATM    4  C   UNL     1      40.647 -11.902   0.457  1.00  0.00     0.066 C 
HETATM    5  C   UNL     1      40.525 -13.286   1.135  1.00  0.00     0.073 C 
HETATM    6  O   UNL     1      41.839 -13.862   1.070  1.00  0.00    -0.339 OA
HETATM    7  C   UNL     1      42.082 -14.943   1.871  1.00  0.00     0.078 A 
HETATM    8  C   UNL     1      41.302 -15.280   2.983  1.00  0.00     0.006 A 
HETATM    9  C   UNL     1      40.153 -14.404   3.406  1.00  0.00     0.224 C 
HETATM   10  C   UNL     1      40.129 -13.090   2.611  1.00  0.00     0.076 C 
HETATM   11  C   UNL     1      43.184 -15.717   1.507  1.00  0.00     0.037 A 
HETATM   12  C   UNL     1      43.489 -16.875   2.218  1.00  0.00     0.003 A 
HETATM   13  C   UNL     1      42.688 -17.261   3.288  1.00  0.00     0.001 A 
HETATM   14  C   UNL     1      41.599 -16.475   3.667  1.00  0.00     0.012 A 
HETATM   15  C   UNL     1      39.531 -14.151   0.329  1.00  0.00     0.066 C 
HETATM   16  C   UNL     1      39.914 -14.226  -1.150  1.00  0.00     0.238 C 
ENDROOT
BRANCH   9  17
HETATM   17  N   UNL     1      40.209 -14.086   4.876  1.00  0.00    -0.063 N 
HETATM   18  H   UNL     1      39.276 -14.214   5.290  1.00  0.00     0.278 HD
HETATM   19  H   UNL     1      40.790 -14.780   5.366  1.00  0.00     0.278 HD
BRANCH  17  20
HETATM   20  C   UNL     1      40.652 -12.717   5.270  1.00  0.00     0.274 C 
BRANCH  20  21
HETATM   21  C   UNL     1      42.028 -12.755   5.805  1.00  0.00     0.004 A 
HETATM   22  C   UNL     1      42.901 -11.707   6.034  1.00  0.00     0.122 A 
HETATM   23  N   UNL     1      44.045 -12.264   6.544  1.00  0.00    -0.285 N 
HETATM   24  C   UNL     1      45.244 -11.581   6.974  1.00  0.00     0.179 C 
HETATM   25  N   UNL     1      43.977 -13.601   6.626  1.00  0.00    -0.185 NA
HETATM   26  C   UNL     1      42.751 -13.900   6.209  1.00  0.00     0.149 A 
ENDBRANCH  20  21
ENDBRANCH  17  20
ENDBRANCH   9  17
BRANCH   1  27
HETATM   27  C   UNL     1      38.609 -12.150  -1.999  1.00  0.00     0.180 C 
HETATM   28  C   UNL     1      37.613 -13.140  -2.607  1.00  0.00     0.039 C 
HETATM   29  C   UNL     1      38.781 -10.964  -2.951  1.00  0.00     0.039 C 
ENDBRANCH   1  27
TORSDOF 4
ENDMDL
MODEL 4
REMARK VINA RESULT:      -7.5      3.463      7.072
REMARK  4 active torsions:
REMARK  status: ('A' for Active; 'I' for Inactive)
REMARK    1  A    between atoms: C_2  and  N_3 
REMARK    2  A    between atoms: C_11  and  N_12 
REMARK    3  A    between atoms: N_12  and  C_15 
REMARK    4  A    between atoms: C_15  and  C_16 
ROOT
HETATM    1  N   UNL     1      44.061 -18.073   5.563  1.00  0.00    -0.067 N 
HETATM    2  H   UNL     1      44.934 -18.059   6.114  1.00  0.00     0.280 HD
HETATM    3  C   UNL     1      44.496 -17.804   4.134  1.00  0.00     0.238 C 
HETATM    4  C   UNL     1      43.278 -17.600   3.236  1.00  0.00     0.066 C 
HETATM    5  C   UNL     1      42.382 -16.438   3.721  1.00  0.00     0.073 C 
HETATM    6  O   UNL     1      43.187 -15.256   3.598  1.00  0.00    -0.339 OA
HETATM    7  C   UNL     1      42.538 -14.054   3.662  1.00  0.00     0.078 A 
HETATM    8  C   UNL     1      41.161 -13.901   3.461  1.00  0.00     0.006 A 
HETATM    9  C   UNL     1      40.305 -15.083   3.091  1.00  0.00     0.224 C 
HETATM   10  C   UNL     1      41.162 -16.320   2.786  1.00  0.00     0.076 C 
HETATM   11  C   UNL     1      43.347 -12.955   3.948  1.00  0.00     0.037 A 
HETATM   12  C   UNL     1      42.782 -11.691   4.095  1.00  0.00     0.003 A 
HETATM   13  C   UNL     1      41.407 -11.529   3.961  1.00  0.00     0.001 A 
HETATM   14  C   UNL     1      40.599 -12.624   3.652  1.00  0.00     0.012 A 
HETATM   15  C   UNL     1      42.015 -16.675   5.202  1.00  0.00     0.066 C 
HETATM   16  C   UNL     1      43.258 -16.889   6.067  1.00  0.00     0.238 C 
ENDROOT
BRANCH   9  17
HETATM   17  N   UNL     1      39.434 -14.786   1.900  1.00  0.00    -0.063 N 
HETATM   18  H   UNL     1      38.541 -15.286   1.996  1.00  0.00     0.278 HD
HETATM   19  H   UNL     1      39.159 -13.794   1.902  1.00  0.00     0.278 HD
BRANCH  17  20
HETATM   20  C   UNL     1      39.964 -15.140   0.551  1.00  0.00     0.274 C 
BRANCH  20  21
HETATM   21  C   UNL     1      40.036 -13.940  -0.305  1.00  0.00     0.004 A 
HETATM   22  C   UNL     1      39.339 -13.655  -1.466  1.00  0.00     0.122 A 
HETATM   23  N   UNL     1      39.756 -12.416  -1.872  1.00  0.00    -0.285 N 
HETATM   24  C   UNL     1      39.301 -11.661  -3.018  1.00  0.00     0.179 C 
HETATM   25  N   UNL     1      40.699 -11.899  -1.071  1.00  0.00    -0.185 NA
HETATM   26  C   UNL     1      40.850 -12.801  -0.106  1.00  0.00     0.149 A 
ENDBRANCH  20  21
ENDBRANCH  17  20
ENDBRANCH   9  17
BRANCH   1  27
HETATM   27  C   UNL     1      43.461 -19.466   5.832  1.00  0.00     0.180 C 
HETATM   28  C   UNL     1      43.351 -19.714   7.337  1.00  0.00     0.039 C 
HETATM   29  C   UNL     1      44.344 -20.549   5.209  1.00  0.00     0.039 C 
ENDBRANCH   1  27
TORSDOF 4
ENDMDL
MODEL 5
REMARK VINA RESULT:      -7.2      1.757      2.163
REMARK  4 active torsions:
REMARK  status: ('A' for Active; 'I' for Inactive)
REMARK    1  A    between atoms: C_2  and  N_3 
REMARK    2  A    between atoms: C_11  and  N_12 
REMARK    3  A    between atoms: N_12  and  C_15 
REMARK    4  A    between atoms: C_15  and  C_16 
ROOT
HETATM    1  N   UNL     1      44.034  -9.973   7.794  1.00  0.00    -0.067 N 
HETATM    2  H   UNL     1      44.232  -8.960   7.810  1.00  0.00     0.280 HD
HETATM    3  C   UNL     1      45.134 -10.574   6.938  1.00  0.00     0.238 C 
HETATM    4  C   UNL     1      44.852 -12.049   6.665  1.00  0.00     0.066 C 
HETATM    5  C   UNL     1      43.490 -12.264   5.966  1.00  0.00     0.073 C 
HETATM    6  O   UNL     1      43.611 -11.624   4.686  1.00  0.00    -0.339 OA
HETATM    7  C   UNL     1      42.667 -11.933   3.747  1.00  0.00     0.078 A 
HETATM    8  C   UNL     1      41.849 -13.067   3.808  1.00  0.00     0.006 A 
HETATM    9  C   UNL     1      42.015 -14.073   4.916  1.00  0.00     0.224 C 
HETATM   10  C   UNL     1      43.265 -13.774   5.758  1.00  0.00     0.076 C 
HETATM   11  C   UNL     1      42.557 -11.026   2.693  1.00  0.00     0.037 A 
HETATM   12  C   UNL     1      41.588 -11.211   1.711  1.00  0.00     0.003 A 
HETATM   13  C   UNL     1      40.724 -12.298   1.788  1.00  0.00     0.001 A 
HETATM   14  C   UNL     1      40.847 -13.218   2.831  1.00  0.00     0.012 A 
HETATM   15  C   UNL     1      42.387 -11.575   6.798  1.00  0.00     0.066 C 
HETATM   16  C   UNL     1      42.712 -10.104   7.063  1.00  0.00     0.238 C 
ENDROOT
BRANCH   9  17
HETATM   17  N   UNL     1      42.109 -15.476   4.383  1.00  0.00    -0.063 N 
HETATM   18  H   UNL     1      42.207 -16.135   5.166  1.00  0.00     0.278 HD
HETATM   19  H   UNL     1      41.217 -15.748   3.946  1.00  0.00     0.278 HD
BRANCH  17  20
HETATM   20  C   UNL     1      43.223 -15.785   3.441  1.00  0.00     0.274 C 
BRANCH  20  21
HETATM   21  C   UNL     1      43.458 -17.241   3.379  1.00  0.00     0.004 A 
HETATM   22  C   UNL     1      43.230 -18.116   2.332  1.00  0.00     0.122 A 
HETATM   23  N   UNL     1      43.620 -19.353   2.772  1.00  0.00    -0.285 N 
HETATM   24  C   UNL     1      43.608 -20.598   2.036  1.00  0.00     0.179 C 
HETATM   25  N   UNL     1      44.052 -19.339   4.042  1.00  0.00    -0.185 NA
HETATM   26  C   UNL     1      43.984 -18.061   4.404  1.00  0.00     0.149 A 
ENDBRANCH  20  21
ENDBRANCH  17  20
ENDBRANCH   9  17
BRANCH   1  27
HETATM   27  C   UNL     1      44.036 -10.387   9.277  1.00  0.00     0.180 C 
HETATM   28  C   UNL     1      42.904  -9.680  10.026  1.00  0.00     0.039 C 
HETATM   29  C   UNL     1      45.372 -10.019   9.926  1.00  0.00     0.039 C 
ENDBRANCH   1  27
TORSDOF 4
ENDMDL
MODEL 6
REMARK VINA RESULT:      -7.1      3.792      7.878
REMARK  4 active torsions:
REMARK  status: ('A' for Active; 'I' for Inactive)
REMARK    1  A    between atoms: C_2  and  N_3 
REMARK    2  A    between atoms: C_11  and  N_12 
REMARK    3  A    between atoms: N_12  and  C_15 
REMARK    4  A    between atoms: C_15  and  C_16 
ROOT
HETATM    1  N   UNL     1      39.984 -12.838  -1.769  1.00  0.00    -0.067 N 
HETATM    2  H   UNL     1      40.361 -13.000  -2.716  1.00  0.00     0.280 HD
HETATM    3  C   UNL     1      41.044 -12.013  -1.061  1.00  0.00     0.238 C 
HETATM    4  C   UNL     1      40.704 -11.866   0.420  1.00  0.00     0.066 C 
HETATM    5  C   UNL     1      40.568 -13.234   1.127  1.00  0.00     0.073 C 
HETATM    6  O   UNL     1      41.872 -13.831   1.061  1.00  0.00    -0.339 OA
HETATM    7  C   UNL     1      42.108 -14.899   1.881  1.00  0.00     0.078 A 
HETATM    8  C   UNL     1      41.335 -15.201   3.008  1.00  0.00     0.006 A 
HETATM    9  C   UNL     1      40.203 -14.299   3.425  1.00  0.00     0.224 C 
HETATM   10  C   UNL     1      40.191 -13.002   2.603  1.00  0.00     0.076 C 
HETATM   11  C   UNL     1      43.193 -15.698   1.522  1.00  0.00     0.037 A 
HETATM   12  C   UNL     1      43.488 -16.845   2.253  1.00  0.00     0.003 A 
HETATM   13  C   UNL     1      42.694 -17.196   3.339  1.00  0.00     0.001 A 
HETATM   14  C   UNL     1      41.620 -16.386   3.713  1.00  0.00     0.012 A 
HETATM   15  C   UNL     1      39.552 -14.100   0.350  1.00  0.00     0.066 C 
HETATM   16  C   UNL     1      39.918 -14.212  -1.131  1.00  0.00     0.238 C 
ENDROOT
BRANCH   9  17
HETATM   17  N   UNL     1      40.280 -13.951   4.887  1.00  0.00    -0.063 N 
HETATM   18  H   UNL     1      39.347 -13.678   5.223  1.00  0.00     0.278 HD
HETATM   19  H   UNL     1      40.501 -14.792   5.439  1.00  0.00     0.278 HD
BRANCH  17  20
HETATM   20  C   UNL     1      41.204 -12.851   5.288  1.00  0.00     0.274 C 
BRANCH  20  21
HETATM   21  C   UNL     1      40.459 -11.780   5.979  1.00  0.00     0.004 A 
HETATM   22  C   UNL     1      40.945 -10.639   6.594  1.00  0.00     0.122 A 
HETATM   23  N   UNL     1      39.854  -9.967   7.076  1.00  0.00    -0.285 N 
HETATM   24  C   UNL     1      39.833  -8.700   7.773  1.00  0.00     0.179 C 
HETATM   25  N   UNL     1      38.702 -10.614   6.842  1.00  0.00    -0.185 NA
HETATM   26  C   UNL     1      39.059 -11.694   6.154  1.00  0.00     0.149 A 
ENDBRANCH  20  21
ENDBRANCH  17  20
ENDBRANCH   9  17
BRANCH   1  27
HETATM   27  C   UNL     1      38.635 -12.134  -2.010  1.00  0.00     0.180 C 
HETATM   28  C   UNL     1      37.623 -13.116  -2.602  1.00  0.00     0.039 C 
HETATM   29  C   UNL     1      38.819 -10.960  -2.975  1.00  0.00     0.039 C 
ENDBRANCH   1  27
TORSDOF 4
ENDMDL
MODEL 7
REMARK VINA RESULT:      -7.0     15.163     16.960
REMARK  4 active torsions:
REMARK  status: ('A' for Active; 'I' for Inactive)
REMARK    1  A    between atoms: C_2  and  N_3 
REMARK    2  A    between atoms: C_11  and  N_12 
REMARK    3  A    between atoms: N_12  and  C_15 
REMARK    4  A    between atoms: C_15  and  C_16 
ROOT
HETATM    1  N   UNL     1      46.258 -29.429  -2.761  1.00  0.00    -0.067 N 
HETATM    2  H   UNL     1      47.036 -29.108  -3.359  1.00  0.00     0.280 HD
HETATM    3  C   UNL     1      45.687 -28.163  -2.148  1.00  0.00     0.238 C 
HETATM    4  C   UNL     1      44.651 -28.508  -1.081  1.00  0.00     0.066 C 
HETATM    5  C   UNL     1      45.238 -29.394   0.041  1.00  0.00     0.073 C 
HETATM    6  O   UNL     1      46.238 -28.588   0.682  1.00  0.00    -0.339 OA
HETATM    7  C   UNL     1      46.689 -29.014   1.901  1.00  0.00     0.078 A 
HETATM    8  C   UNL     1      46.005 -29.928   2.709  1.00  0.00     0.006 A 
HETATM    9  C   UNL     1      44.659 -30.461   2.293  1.00  0.00     0.224 C 
HETATM   10  C   UNL     1      44.126 -29.726   1.054  1.00  0.00     0.076 C 
HETATM   11  C   UNL     1      47.909 -28.472   2.306  1.00  0.00     0.037 A 
HETATM   12  C   UNL     1      48.491 -28.880   3.503  1.00  0.00     0.003 A 
HETATM   13  C   UNL     1      47.856 -29.834   4.291  1.00  0.00     0.001 A 
HETATM   14  C   UNL     1      46.625 -30.361   3.897  1.00  0.00     0.012 A 
HETATM   15  C   UNL     1      45.895 -30.638  -0.598  1.00  0.00     0.066 C 
HETATM   16  C   UNL     1      46.915 -30.253  -1.670  1.00  0.00     0.238 C 
ENDROOT
BRANCH   9  17
HETATM   17  N   UNL     1      43.649 -30.345   3.402  1.00  0.00    -0.063 N 
HETATM   18  H   UNL     1      43.504 -31.269   3.831  1.00  0.00     0.278 HD
HETATM   19  H   UNL     1      44.031 -29.777   4.171  1.00  0.00     0.278 HD
BRANCH  17  20
HETATM   20  C   UNL     1      42.292 -29.835   3.051  1.00  0.00     0.274 C 
BRANCH  20  21
HETATM   21  C   UNL     1      41.265 -30.853   3.351  1.00  0.00     0.004 A 
HETATM   22  C   UNL     1      40.723 -31.208   4.574  1.00  0.00     0.122 A 
HETATM   23  N   UNL     1      39.806 -32.193   4.316  1.00  0.00    -0.285 N 
HETATM   24  C   UNL     1      38.949 -32.872   5.263  1.00  0.00     0.179 C 
HETATM   25  N   UNL     1      39.746 -32.518   3.017  1.00  0.00    -0.185 NA
HETATM   26  C   UNL     1      40.603 -31.692   2.425  1.00  0.00     0.149 A 
ENDBRANCH  20  21
ENDBRANCH  17  20
ENDBRANCH   9  17
BRANCH   1  27
HETATM   27  C   UNL     1      45.325 -30.190  -3.721  1.00  0.00     0.180 C 
HETATM   28  C   UNL     1      46.108 -31.263  -4.480  1.00  0.00     0.039 C 
HETATM   29  C   UNL     1      44.700 -29.221  -4.726  1.00  0.00     0.039 C 
ENDBRANCH   1  27
TORSDOF 4
ENDMDL
MODEL 8
REMARK VINA RESULT:      -7.0      3.235      6.847
REMARK  4 active torsions:
REMARK  status: ('A' for Active; 'I' for Inactive)
REMARK    1  A    between atoms: C_2  and  N_3 
REMARK    2  A    between atoms: C_11  and  N_12 
REMARK    3  A    between atoms: N_12  and  C_15 
REMARK    4  A    between atoms: C_15  and  C_16 
ROOT
HETATM    1  N   UNL     1      39.627 -11.762   0.362  1.00  0.00    -0.067 N 
HETATM    2  H   UNL     1      39.359 -11.989  -0.608  1.00  0.00     0.280 HD
HETATM    3  C   UNL     1      41.084 -11.344   0.278  1.00  0.00     0.238 C 
HETATM    4  C   UNL     1      41.670 -11.169   1.676  1.00  0.00     0.066 C 
HETATM    5  C   UNL     1      41.560 -12.458   2.523  1.00  0.00     0.073 C 
HETATM    6  O   UNL     1      42.378 -13.428   1.851  1.00  0.00    -0.339 OA
HETATM    7  C   UNL     1      42.707 -14.553   2.554  1.00  0.00     0.078 A 
HETATM    8  C   UNL     1      42.630 -14.652   3.948  1.00  0.00     0.006 A 
HETATM    9  C   UNL     1      42.226 -13.463   4.779  1.00  0.00     0.224 C 
HETATM   10  C   UNL     1      42.138 -12.189   3.925  1.00  0.00     0.076 C 
HETATM   11  C   UNL     1      43.135 -15.633   1.783  1.00  0.00     0.037 A 
HETATM   12  C   UNL     1      43.439 -16.849   2.390  1.00  0.00     0.003 A 
HETATM   13  C   UNL     1      43.309 -16.985   3.767  1.00  0.00     0.001 A 
HETATM   14  C   UNL     1      42.901 -15.899   4.544  1.00  0.00     0.012 A 
HETATM   15  C   UNL     1      40.088 -12.925   2.531  1.00  0.00     0.066 C 
HETATM   16  C   UNL     1      39.532 -13.074   1.114  1.00  0.00     0.238 C 
ENDROOT
BRANCH   9  17
HETATM   17  N   UNL     1      43.187 -13.226   5.913  1.00  0.00    -0.063 N 
HETATM   18  H   UNL     1      42.690 -12.781   6.696  1.00  0.00     0.278 HD
HETATM   19  H   UNL     1      43.502 -14.125   6.303  1.00  0.00     0.278 HD
BRANCH  17  20
HETATM   20  C   UNL     1      44.379 -12.372   5.641  1.00  0.00     0.274 C 
BRANCH  20  21
HETATM   21  C   UNL     1      44.732 -11.583   6.839  1.00  0.00     0.004 A 
HETATM   22  C   UNL     1      44.006 -11.395   8.001  1.00  0.00     0.122 A 
HETATM   23  N   UNL     1      44.770 -10.592   8.807  1.00  0.00    -0.285 N 
HETATM   24  C   UNL     1      44.464 -10.133  10.143  1.00  0.00     0.179 C 
HETATM   25  N   UNL     1      45.922 -10.225   8.227  1.00  0.00    -0.185 NA
HETATM   26  C   UNL     1      45.918 -10.844   7.051  1.00  0.00     0.149 A 
ENDBRANCH  20  21
ENDBRANCH  17  20
ENDBRANCH   9  17
BRANCH   1  27
HETATM   27  C   UNL     1      38.637 -10.661   0.786  1.00  0.00     0.180 C 
HETATM   28  C   UNL     1      37.224 -11.236   0.900  1.00  0.00     0.039 C 
HETATM   29  C   UNL     1      38.635  -9.529  -0.244  1.00  0.00     0.039 C 
ENDBRANCH   1  27
TORSDOF 4
ENDMDL
MODEL 9
REMARK VINA RESULT:      -7.0      3.436      5.388
REMARK  4 active torsions:
REMARK  status: ('A' for Active; 'I' for Inactive)
REMARK    1  A    between atoms: C_2  and  N_3 
REMARK    2  A    between atoms: C_11  and  N_12 
REMARK    3  A    between atoms: N_12  and  C_15 
REMARK    4  A    between atoms: C_15  and  C_16 
ROOT
HETATM    1  N   UNL     1      43.878 -10.674   7.905  1.00  0.00    -0.067 N 
HETATM    2  H   UNL     1      43.838 -10.692   8.936  1.00  0.00     0.280 HD
HETATM    3  C   UNL     1      42.509 -10.186   7.468  1.00  0.00     0.238 C 
HETATM    4  C   UNL     1      42.361 -10.299   5.953  1.00  0.00     0.066 C 
HETATM    5  C   UNL     1      42.568 -11.747   5.451  1.00  0.00     0.073 C 
HETATM    6  O   UNL     1      41.497 -12.509   6.028  1.00  0.00    -0.339 OA
HETATM    7  C   UNL     1      41.262 -13.747   5.497  1.00  0.00     0.078 A 
HETATM    8  C   UNL     1      41.716 -14.154   4.238  1.00  0.00     0.006 A 
HETATM    9  C   UNL     1      42.459 -13.196   3.345  1.00  0.00     0.224 C 
HETATM   10  C   UNL     1      42.438 -11.770   3.916  1.00  0.00     0.076 C 
HETATM   11  C   UNL     1      40.523 -14.611   6.306  1.00  0.00     0.037 A 
HETATM   12  C   UNL     1      40.276 -15.916   5.890  1.00  0.00     0.003 A 
HETATM   13  C   UNL     1      40.772 -16.359   4.669  1.00  0.00     0.001 A 
HETATM   14  C   UNL     1      41.493 -15.489   3.849  1.00  0.00     0.012 A 
HETATM   15  C   UNL     1      43.926 -12.266   5.973  1.00  0.00     0.066 C 
HETATM   16  C   UNL     1      44.042 -12.123   7.491  1.00  0.00     0.238 C 
ENDROOT
BRANCH   9  17
HETATM   17  N   UNL     1      41.886 -13.174   1.954  1.00  0.00    -0.063 N 
HETATM   18  H   UNL     1      42.594 -12.822   1.297  1.00  0.00     0.278 HD
HETATM   19  H   UNL     1      41.709 -14.135   1.630  1.00  0.00     0.278 HD
BRANCH  17  20
HETATM   20  C   UNL     1      40.663 -12.352   1.724  1.00  0.00     0.274 C 
BRANCH  20  21
HETATM   21  C   UNL     1      39.953 -12.813   0.513  1.00  0.00     0.004 A 
HETATM   22  C   UNL     1      40.128 -13.982  -0.206  1.00  0.00     0.122 A 
HETATM   23  N   UNL     1      39.223 -13.940  -1.234  1.00  0.00    -0.285 N 
HETATM   24  C   UNL     1      38.990 -14.944  -2.248  1.00  0.00     0.179 C 
HETATM   25  N   UNL     1      38.502 -12.809  -1.243  1.00  0.00    -0.185 NA
HETATM   26  C   UNL     1      38.918 -12.138  -0.174  1.00  0.00     0.149 A 
ENDBRANCH  20  21
ENDBRANCH  17  20
ENDBRANCH   9  17
BRANCH   1  27
HETATM   27  C   UNL     1      45.058  -9.737   7.584  1.00  0.00     0.180 C 
HETATM   28  C   UNL     1      46.383 -10.490   7.715  1.00  0.00     0.039 C 
HETATM   29  C   UNL     1      45.061  -8.546   8.545  1.00  0.00     0.039 C 
ENDBRANCH   1  27
TORSDOF 4
ENDMDL
MODEL 10
REMARK VINA RESULT:      -6.9      2.873      8.510
REMARK  4 active torsions:
REMARK  status: ('A' for Active; 'I' for Inactive)
REMARK    1  A    between atoms: C_2  and  N_3 
REMARK    2  A    between atoms: C_11  and  N_12 
REMARK    3  A    between atoms: N_12  and  C_15 
REMARK    4  A    between atoms: C_15  and  C_16 
ROOT
HETATM    1  N   UNL     1      42.413 -14.702   3.874  1.00  0.00    -0.067 N 
HETATM    2  H   UNL     1      43.040 -15.422   3.482  1.00  0.00     0.280 HD
HETATM    3  C   UNL     1      42.719 -13.443   3.083  1.00  0.00     0.238 C 
HETATM    4  C   UNL     1      42.001 -12.242   3.693  1.00  0.00     0.066 C 
HETATM    5  C   UNL     1      42.389 -12.018   5.173  1.00  0.00     0.073 C 
HETATM    6  O   UNL     1      43.788 -11.698   5.158  1.00  0.00    -0.339 OA
HETATM    7  C   UNL     1      44.310 -11.149   6.296  1.00  0.00     0.078 A 
HETATM    8  C   UNL     1      43.538 -10.548   7.296  1.00  0.00     0.006 A 
HETATM    9  C   UNL     1      42.047 -10.414   7.136  1.00  0.00     0.224 C 
HETATM   10  C   UNL     1      41.599 -10.816   5.723  1.00  0.00     0.076 C 
HETATM   11  C   UNL     1      45.698 -11.226   6.412  1.00  0.00     0.037 A 
HETATM   12  C   UNL     1      46.331 -10.751   7.557  1.00  0.00     0.003 A 
HETATM   13  C   UNL     1      45.575 -10.206   8.589  1.00  0.00     0.001 A 
HETATM   14  C   UNL     1      44.187 -10.109   8.466  1.00  0.00     0.012 A 
HETATM   15  C   UNL     1      42.156 -13.330   5.954  1.00  0.00     0.066 C 
HETATM   16  C   UNL     1      42.879 -14.512   5.305  1.00  0.00     0.238 C 
ENDROOT
BRANCH   9  17
HETATM   17  N   UNL     1      41.582  -9.010   7.416  1.00  0.00    -0.063 N 
HETATM   18  H   UNL     1      42.275  -8.532   8.007  1.00  0.00     0.278 HD
HETATM   19  H   UNL     1      41.580  -8.458   6.547  1.00  0.00     0.278 HD
BRANCH  17  20
HETATM   20  C   UNL     1      40.267  -8.841   8.100  1.00  0.00     0.274 C 
BRANCH  20  21
HETATM   21  C   UNL     1      40.391  -9.151   9.538  1.00  0.00     0.004 A 
HETATM   22  C   UNL     1      39.509  -9.829  10.361  1.00  0.00     0.122 A 
HETATM   23  N   UNL     1      40.087  -9.861  11.602  1.00  0.00    -0.285 N 
HETATM   24  C   UNL     1      39.573 -10.484  12.801  1.00  0.00     0.179 C 
HETATM   25  N   UNL     1      41.265  -9.219  11.641  1.00  0.00    -0.185 NA
HETATM   26  C   UNL     1      41.467  -8.815  10.391  1.00  0.00     0.149 A 
ENDBRANCH  20  21
ENDBRANCH  17  20
ENDBRANCH   9  17
BRANCH   1  27
HETATM   27  C   UNL     1      40.999 -15.283   3.690  1.00  0.00     0.180 C 
HETATM   28  C   UNL     1      40.711 -16.327   4.771  1.00  0.00     0.039 C 
HETATM   29  C   UNL     1      40.874 -15.940   2.314  1.00  0.00     0.039 C 
ENDBRANCH   1  27
TORSDOF 4
ENDMDL
