MODEL 1
REMARK VINA RESULT:      -8.9      0.000      0.000
REMARK  4 active torsions:
REMARK  status: ('A' for Active; 'I' for Inactive)
REMARK    1  A    between atoms: C_5  and  C_6 
REMARK    2  A    between atoms: C_6  and  N_7 
REMARK    3  A    between atoms: N_10  and  C_12 
REMARK    4  A    between atoms: C_12  and  C_13 
ROOT
HETATM    1  N   UNL     1      42.817 -11.707   5.512  1.00  0.00    -0.406 N 
HETATM    2  C   UNL     1      43.146 -13.134   5.540  1.00  0.00     0.150 C 
HETATM    3  C   UNL     1      42.039 -14.192   5.287  1.00  0.00     0.206 C 
HETATM    4  N   UNL     1      41.732 -14.396   3.807  1.00  0.00    -0.061 N 
HETATM    5  H   UNL     1      41.029 -15.144   3.805  1.00  0.00     0.280 HD
HETATM    6  C   UNL     1      41.083 -13.219   3.133  1.00  0.00     0.242 C 
HETATM    7  C   UNL     1      40.682 -12.129   4.122  1.00  0.00     0.029 C 
HETATM    8  C   UNL     1      41.887 -11.242   4.490  1.00  0.00     0.123 C 
HETATM    9  C   UNL     1      40.716 -13.869   5.989  1.00  0.00     0.035 C 
HETATM   10  C   UNL     1      39.954 -12.715   5.334  1.00  0.00     0.010 C 
ENDROOT
BRANCH   4  11
HETATM   11  C   UNL     1      42.860 -14.966   2.967  1.00  0.00     0.274 C 
BRANCH  11  12
HETATM   12  C   UNL     1      43.232 -16.380   3.316  1.00  0.00    -0.032 A 
HETATM   13  C   UNL     1      43.015 -17.419   2.388  1.00  0.00     0.022 A 
HETATM   14  C   UNL     1      43.366 -18.740   2.724  1.00  0.00    -0.008 A 
HETATM   15  C   UNL     1      43.930 -18.990   3.974  1.00  0.00     0.042 A 
HETATM   16  C   UNL     1      43.290 -19.986   2.042  1.00  0.00     0.030 A 
HETATM   17  N   UNL     1      44.192 -20.341   4.039  1.00  0.00    -0.365 N 
HETATM   18  C   UNL     1      44.159 -17.981   4.913  1.00  0.00     0.031 A 
HETATM   19  H   UNL     1      44.618 -20.810   4.828  1.00  0.00     0.165 HD
HETATM   20  C   UNL     1      43.804 -20.951   2.876  1.00  0.00     0.089 A 
HETATM   21  C   UNL     1      43.800 -16.675   4.563  1.00  0.00     0.011 A 
ENDBRANCH  11  12
ENDBRANCH   4  11
BRANCH   1  22
HETATM   22  C   UNL     1      42.597 -11.075   6.825  1.00  0.00     0.157 C 
BRANCH  22  23
HETATM   23  C   UNL     1      43.781 -10.309   7.356  1.00  0.00    -0.023 A 
HETATM   24  C   UNL     1      43.636  -9.041   7.913  1.00  0.00     0.125 A 
HETATM   25  N   UNL     1      44.656  -8.307   8.412  1.00  0.00    -0.273 NA
HETATM   26  C   UNL     1      45.882  -8.874   8.388  1.00  0.00     0.116 A 
HETATM   27  C   UNL     1      46.132 -10.137   7.879  1.00  0.00     0.020 A 
HETATM   28  C   UNL     1      45.065 -10.862   7.357  1.00  0.00     0.011 A 
ENDBRANCH  22  23
ENDBRANCH   1  22
TORSDOF 4
ENDMDL
MODEL 2
REMARK VINA RESULT:      -8.7      3.455      6.607
REMARK  4 active torsions:
REMARK  status: ('A' for Active; 'I' for Inactive)
REMARK    1  A    between atoms: C_5  and  C_6 
REMARK    2  A    between atoms: C_6  and  N_7 
REMARK    3  A    between atoms: N_10  and  C_12 
REMARK    4  A    between atoms: C_12  and  C_13 
ROOT
HETATM    1  N   UNL     1      41.349 -13.233   0.777  1.00  0.00    -0.406 N 
HETATM    2  C   UNL     1      42.153 -12.708   1.883  1.00  0.00     0.150 C 
HETATM    3  C   UNL     1      41.570 -12.673   3.319  1.00  0.00     0.206 C 
HETATM    4  N   UNL     1      41.652 -14.019   4.033  1.00  0.00    -0.061 N 
HETATM    5  H   UNL     1      41.277 -13.822   4.968  1.00  0.00     0.280 HD
HETATM    6  C   UNL     1      40.771 -15.090   3.453  1.00  0.00     0.242 C 
HETATM    7  C   UNL     1      39.822 -14.553   2.387  1.00  0.00     0.029 C 
HETATM    8  C   UNL     1      40.534 -14.416   1.028  1.00  0.00     0.123 C 
HETATM    9  C   UNL     1      40.108 -12.215   3.373  1.00  0.00     0.035 C 
HETATM   10  C   UNL     1      39.128 -13.270   2.853  1.00  0.00     0.010 C 
ENDROOT
BRANCH   4  11
HETATM   11  C   UNL     1      43.051 -14.538   4.312  1.00  0.00     0.274 C 
BRANCH  11  12
HETATM   12  C   UNL     1      43.262 -15.974   3.923  1.00  0.00    -0.032 A 
HETATM   13  C   UNL     1      43.508 -16.947   4.912  1.00  0.00     0.022 A 
HETATM   14  C   UNL     1      43.705 -18.290   4.538  1.00  0.00    -0.008 A 
HETATM   15  C   UNL     1      43.646 -18.628   3.187  1.00  0.00     0.042 A 
HETATM   16  C   UNL     1      43.963 -19.488   5.260  1.00  0.00     0.030 A 
HETATM   17  N   UNL     1      43.852 -19.988   3.099  1.00  0.00    -0.365 N 
HETATM   18  C   UNL     1      43.401 -17.687   2.184  1.00  0.00     0.031 A 
HETATM   19  H   UNL     1      43.849 -20.518   2.238  1.00  0.00     0.165 HD
HETATM   20  C   UNL     1      44.049 -20.515   4.348  1.00  0.00     0.089 A 
HETATM   21  C   UNL     1      43.211 -16.356   2.576  1.00  0.00     0.011 A 
ENDBRANCH  11  12
ENDBRANCH   4  11
BRANCH   1  22
HETATM   22  C   UNL     1      40.665 -12.224  -0.053  1.00  0.00     0.157 C 
BRANCH  22  23
HETATM   23  C   UNL     1      39.836 -12.794  -1.174  1.00  0.00    -0.023 A 
HETATM   24  C   UNL     1      40.424 -13.455  -2.250  1.00  0.00     0.125 A 
HETATM   25  N   UNL     1      39.734 -13.993  -3.281  1.00  0.00    -0.273 NA
HETATM   26  C   UNL     1      38.388 -13.901  -3.227  1.00  0.00     0.116 A 
HETATM   27  C   UNL     1      37.702 -13.287  -2.192  1.00  0.00     0.020 A 
HETATM   28  C   UNL     1      38.439 -12.727  -1.153  1.00  0.00     0.011 A 
ENDBRANCH  22  23
ENDBRANCH   1  22
TORSDOF 4
ENDMDL
MODEL 3
REMARK VINA RESULT:      -8.7      3.983      8.573
REMARK  4 active torsions:
REMARK  status: ('A' for Active; 'I' for Inactive)
REMARK    1  A    between atoms: C_5  and  C_6 
REMARK    2  A    between atoms: C_6  and  N_7 
REMARK    3  A    between atoms: N_10  and  C_12 
REMARK    4  A    between atoms: C_12  and  C_13 
ROOT
HETATM    1  N   UNL     1      42.938 -16.294   2.423  1.00  0.00    -0.406 N 
HETATM    2  C   UNL     1      41.498 -16.491   2.247  1.00  0.00     0.150 C 
HETATM    3  C   UNL     1      40.513 -15.329   2.543  1.00  0.00     0.206 C 
HETATM    4  N   UNL     1      40.412 -14.323   1.401  1.00  0.00    -0.061 N 
HETATM    5  H   UNL     1      39.701 -13.657   1.725  1.00  0.00     0.280 HD
HETATM    6  C   UNL     1      41.657 -13.514   1.166  1.00  0.00     0.242 C 
HETATM    7  C   UNL     1      42.706 -13.728   2.253  1.00  0.00     0.029 C 
HETATM    8  C   UNL     1      43.509 -15.019   2.004  1.00  0.00     0.123 C 
HETATM    9  C   UNL     1      40.858 -14.546   3.814  1.00  0.00     0.035 C 
HETATM   10  C   UNL     1      42.085 -13.647   3.651  1.00  0.00     0.010 C 
ENDROOT
BRANCH   4  11
HETATM   11  C   UNL     1      39.837 -14.851   0.099  1.00  0.00     0.274 C 
BRANCH  11  12
HETATM   12  C   UNL     1      39.536 -13.784  -0.917  1.00  0.00    -0.032 A 
HETATM   13  C   UNL     1      38.604 -12.770  -0.623  1.00  0.00     0.022 A 
HETATM   14  C   UNL     1      38.327 -11.775  -1.581  1.00  0.00    -0.008 A 
HETATM   15  C   UNL     1      38.993 -11.817  -2.805  1.00  0.00     0.042 A 
HETATM   16  C   UNL     1      37.472 -10.640  -1.607  1.00  0.00     0.030 A 
HETATM   17  N   UNL     1      38.559 -10.735  -3.540  1.00  0.00    -0.365 N 
HETATM   18  C   UNL     1      39.925 -12.808  -3.124  1.00  0.00     0.031 A 
HETATM   19  H   UNL     1      38.883 -10.500  -4.469  1.00  0.00     0.165 HD
HETATM   20  C   UNL     1      37.636 -10.021  -2.824  1.00  0.00     0.089 A 
HETATM   21  C   UNL     1      40.183 -13.790  -2.161  1.00  0.00     0.011 A 
ENDBRANCH  11  12
ENDBRANCH   4  11
BRANCH   1  22
HETATM   22  C   UNL     1      43.501 -16.792   3.691  1.00  0.00     0.157 C 
BRANCH  22  23
HETATM   23  C   UNL     1      43.678 -18.287   3.753  1.00  0.00    -0.023 A 
HETATM   24  C   UNL     1      43.901 -18.944   4.960  1.00  0.00     0.125 A 
HETATM   25  N   UNL     1      44.061 -20.281   5.080  1.00  0.00    -0.273 NA
HETATM   26  C   UNL     1      43.959 -21.011   3.949  1.00  0.00     0.116 A 
HETATM   27  C   UNL     1      43.714 -20.461   2.702  1.00  0.00     0.020 A 
HETATM   28  C   UNL     1      43.572 -19.080   2.606  1.00  0.00     0.011 A 
ENDBRANCH  22  23
ENDBRANCH   1  22
TORSDOF 4
ENDMDL
MODEL 4
REMARK VINA RESULT:      -8.6      2.850      7.459
REMARK  4 active torsions:
REMARK  status: ('A' for Active; 'I' for Inactive)
REMARK    1  A    between atoms: C_5  and  C_6 
REMARK    2  A    between atoms: C_6  and  N_7 
REMARK    3  A    between atoms: N_10  and  C_12 
REMARK    4  A    between atoms: C_12  and  C_13 
ROOT
HETATM    1  N   UNL     1      42.489 -15.672   3.507  1.00  0.00    -0.406 N 
HETATM    2  C   UNL     1      41.130 -15.433   3.999  1.00  0.00     0.150 C 
HETATM    3  C   UNL     1      40.797 -14.121   4.755  1.00  0.00     0.206 C 
HETATM    4  N   UNL     1      40.558 -12.936   3.824  1.00  0.00    -0.061 N 
HETATM    5  H   UNL     1      40.308 -12.171   4.461  1.00  0.00     0.280 HD
HETATM    6  C   UNL     1      41.777 -12.469   3.078  1.00  0.00     0.242 C 
HETATM    7  C   UNL     1      43.053 -13.153   3.559  1.00  0.00     0.029 C 
HETATM    8  C   UNL     1      43.210 -14.547   2.923  1.00  0.00     0.123 C 
HETATM    9  C   UNL     1      41.878 -13.703   5.758  1.00  0.00     0.035 C 
HETATM   10  C   UNL     1      43.141 -13.159   5.088  1.00  0.00     0.010 C 
ENDROOT
BRANCH   4  11
HETATM   11  C   UNL     1      39.353 -13.044   2.907  1.00  0.00     0.274 C 
BRANCH  11  12
HETATM   12  C   UNL     1      39.699 -13.252   1.459  1.00  0.00    -0.032 A 
HETATM   13  C   UNL     1      39.849 -12.145   0.601  1.00  0.00     0.022 A 
HETATM   14  C   UNL     1      40.173 -12.349  -0.754  1.00  0.00    -0.008 A 
HETATM   15  C   UNL     1      40.343 -13.653  -1.215  1.00  0.00     0.042 A 
HETATM   16  C   UNL     1      40.396 -11.481  -1.857  1.00  0.00     0.030 A 
HETATM   17  N   UNL     1      40.667 -13.572  -2.552  1.00  0.00    -0.365 N 
HETATM   18  C   UNL     1      40.202 -14.771  -0.388  1.00  0.00     0.031 A 
HETATM   19  H   UNL     1      40.863 -14.365  -3.149  1.00  0.00     0.165 HD
HETATM   20  C   UNL     1      40.698 -12.262  -2.949  1.00  0.00     0.089 A 
HETATM   21  C   UNL     1      39.877 -14.547   0.954  1.00  0.00     0.011 A 
ENDBRANCH  11  12
ENDBRANCH   4  11
BRANCH   1  22
HETATM   22  C   UNL     1      43.338 -16.524   4.359  1.00  0.00     0.157 C 
BRANCH  22  23
HETATM   23  C   UNL     1      43.506 -17.936   3.861  1.00  0.00    -0.023 A 
HETATM   24  C   UNL     1      44.003 -18.944   4.684  1.00  0.00     0.125 A 
HETATM   25  N   UNL     1      44.170 -20.229   4.298  1.00  0.00    -0.273 NA
HETATM   26  C   UNL     1      43.792 -20.540   3.039  1.00  0.00     0.116 A 
HETATM   27  C   UNL     1      43.264 -19.621   2.148  1.00  0.00     0.020 A 
HETATM   28  C   UNL     1      43.120 -18.302   2.567  1.00  0.00     0.011 A 
ENDBRANCH  22  23
ENDBRANCH   1  22
TORSDOF 4
ENDMDL
MODEL 5
REMARK VINA RESULT:      -8.5      1.179      8.240
REMARK  4 active torsions:
REMARK  status: ('A' for Active; 'I' for Inactive)
REMARK    1  A    between atoms: C_5  and  C_6 
REMARK    2  A    between atoms: C_6  and  N_7 
REMARK    3  A    between atoms: N_10  and  C_12 
REMARK    4  A    between atoms: C_12  and  C_13 
ROOT
HETATM    1  N   UNL     1      42.328 -16.143   3.581  1.00  0.00    -0.406 N 
HETATM    2  C   UNL     1      43.028 -15.105   4.340  1.00  0.00     0.150 C 
HETATM    3  C   UNL     1      42.916 -13.619   3.910  1.00  0.00     0.206 C 
HETATM    4  N   UNL     1      41.628 -12.953   4.384  1.00  0.00    -0.061 N 
HETATM    5  H   UNL     1      41.725 -11.981   4.066  1.00  0.00     0.280 HD
HETATM    6  C   UNL     1      40.377 -13.475   3.734  1.00  0.00     0.242 C 
HETATM    7  C   UNL     1      40.672 -14.431   2.583  1.00  0.00     0.029 C 
HETATM    8  C   UNL     1      40.982 -15.848   3.103  1.00  0.00     0.123 C 
HETATM    9  C   UNL     1      43.006 -13.414   2.394  1.00  0.00     0.035 C 
HETATM   10  C   UNL     1      41.747 -13.868   1.650  1.00  0.00     0.010 C 
ENDROOT
BRANCH   4  11
HETATM   11  C   UNL     1      41.463 -12.821   5.887  1.00  0.00     0.274 C 
BRANCH  11  12
HETATM   12  C   UNL     1      42.273 -11.714   6.500  1.00  0.00    -0.032 A 
HETATM   13  C   UNL     1      43.606 -11.946   6.893  1.00  0.00     0.022 A 
HETATM   14  C   UNL     1      44.358 -10.902   7.466  1.00  0.00    -0.008 A 
HETATM   15  C   UNL     1      43.760  -9.653   7.627  1.00  0.00     0.042 A 
HETATM   16  C   UNL     1      45.689 -10.797   7.955  1.00  0.00     0.030 A 
HETATM   17  N   UNL     1      44.706  -8.821   8.187  1.00  0.00    -0.365 N 
HETATM   18  C   UNL     1      42.442  -9.392   7.245  1.00  0.00     0.031 A 
HETATM   19  H   UNL     1      44.559  -7.843   8.404  1.00  0.00     0.165 HD
HETATM   20  C   UNL     1      45.873  -9.506   8.391  1.00  0.00     0.089 A 
HETATM   21  C   UNL     1      41.711 -10.443   6.680  1.00  0.00     0.011 A 
ENDBRANCH  11  12
ENDBRANCH   4  11
BRANCH   1  22
HETATM   22  C   UNL     1      43.144 -16.877   2.596  1.00  0.00     0.157 C 
BRANCH  22  23
HETATM   23  C   UNL     1      43.459 -18.299   2.980  1.00  0.00    -0.023 A 
HETATM   24  C   UNL     1      43.963 -18.618   4.238  1.00  0.00     0.125 A 
HETATM   25  N   UNL     1      44.258 -19.874   4.643  1.00  0.00    -0.273 NA
HETATM   26  C   UNL     1      44.009 -20.871   3.767  1.00  0.00     0.116 A 
HETATM   27  C   UNL     1      43.485 -20.666   2.502  1.00  0.00     0.020 A 
HETATM   28  C   UNL     1      43.207 -19.361   2.105  1.00  0.00     0.011 A 
ENDBRANCH  22  23
ENDBRANCH   1  22
TORSDOF 4
ENDMDL
MODEL 6
REMARK VINA RESULT:      -8.3      3.606      7.545
REMARK  4 active torsions:
REMARK  status: ('A' for Active; 'I' for Inactive)
REMARK    1  A    between atoms: C_5  and  C_6 
REMARK    2  A    between atoms: C_6  and  N_7 
REMARK    3  A    between atoms: N_10  and  C_12 
REMARK    4  A    between atoms: C_12  and  C_13 
ROOT
HETATM    1  N   UNL     1      42.312 -14.615   3.170  1.00  0.00    -0.406 N 
HETATM    2  C   UNL     1      41.221 -14.264   2.257  1.00  0.00     0.150 C 
HETATM    3  C   UNL     1      40.275 -13.083   2.595  1.00  0.00     0.206 C 
HETATM    4  N   UNL     1      40.867 -11.721   2.246  1.00  0.00    -0.061 N 
HETATM    5  H   UNL     1      40.116 -11.061   2.481  1.00  0.00     0.280 HD
HETATM    6  C   UNL     1      42.047 -11.318   3.086  1.00  0.00     0.242 C 
HETATM    7  C   UNL     1      42.287 -12.270   4.252  1.00  0.00     0.029 C 
HETATM    8  C   UNL     1      43.054 -13.526   3.795  1.00  0.00     0.123 C 
HETATM    9  C   UNL     1      39.858 -13.037   4.069  1.00  0.00     0.035 C 
HETATM   10  C   UNL     1      40.985 -12.580   4.998  1.00  0.00     0.010 C 
ENDROOT
BRANCH   4  11
HETATM   11  C   UNL     1      41.119 -11.464   0.772  1.00  0.00     0.274 C 
BRANCH  11  12
HETATM   12  C   UNL     1      40.046 -11.997  -0.137  1.00  0.00    -0.032 A 
HETATM   13  C   UNL     1      40.329 -13.055  -1.023  1.00  0.00     0.022 A 
HETATM   14  C   UNL     1      39.319 -13.547  -1.870  1.00  0.00    -0.008 A 
HETATM   15  C   UNL     1      38.050 -12.974  -1.807  1.00  0.00     0.042 A 
HETATM   16  C   UNL     1      39.266 -14.576  -2.850  1.00  0.00     0.030 A 
HETATM   17  N   UNL     1      37.256 -13.643  -2.714  1.00  0.00    -0.365 N 
HETATM   18  C   UNL     1      37.737 -11.926  -0.937  1.00  0.00     0.031 A 
HETATM   19  H   UNL     1      36.276 -13.451  -2.876  1.00  0.00     0.165 HD
HETATM   20  C   UNL     1      37.985 -14.611  -3.352  1.00  0.00     0.089 A 
HETATM   21  C   UNL     1      38.757 -11.448  -0.106  1.00  0.00     0.011 A 
ENDBRANCH  11  12
ENDBRANCH   4  11
BRANCH   1  22
HETATM   22  C   UNL     1      42.042 -15.735   4.089  1.00  0.00     0.157 C 
BRANCH  22  23
HETATM   23  C   UNL     1      42.757 -17.015   3.742  1.00  0.00    -0.023 A 
HETATM   24  C   UNL     1      43.623 -17.632   4.641  1.00  0.00     0.125 A 
HETATM   25  N   UNL     1      44.287 -18.783   4.391  1.00  0.00    -0.273 NA
HETATM   26  C   UNL     1      44.055 -19.373   3.199  1.00  0.00     0.116 A 
HETATM   27  C   UNL     1      43.195 -18.857   2.243  1.00  0.00     0.020 A 
HETATM   28  C   UNL     1      42.538 -17.662   2.521  1.00  0.00     0.011 A 
ENDBRANCH  22  23
ENDBRANCH   1  22
TORSDOF 4
ENDMDL
MODEL 7
REMARK VINA RESULT:      -8.3      3.809      8.084
REMARK  4 active torsions:
REMARK  status: ('A' for Active; 'I' for Inactive)
REMARK    1  A    between atoms: C_5  and  C_6 
REMARK    2  A    between atoms: C_6  and  N_7 
REMARK    3  A    between atoms: N_10  and  C_12 
REMARK    4  A    between atoms: C_12  and  C_13 
ROOT
HETATM    1  N   UNL     1      42.417 -15.718   4.611  1.00  0.00    -0.406 N 
HETATM    2  C   UNL     1      42.360 -14.303   4.239  1.00  0.00     0.150 C 
HETATM    3  C   UNL     1      42.376 -13.892   2.743  1.00  0.00     0.206 C 
HETATM    4  N   UNL     1      41.013 -14.019   2.071  1.00  0.00    -0.061 N 
HETATM    5  H   UNL     1      41.177 -13.673   1.119  1.00  0.00     0.280 HD
HETATM    6  C   UNL     1      40.519 -15.431   1.917  1.00  0.00     0.242 C 
HETATM    7  C   UNL     1      41.579 -16.464   2.286  1.00  0.00     0.029 C 
HETATM    8  C   UNL     1      41.650 -16.666   3.811  1.00  0.00     0.123 C 
HETATM    9  C   UNL     1      43.377 -14.692   1.902  1.00  0.00     0.035 C 
HETATM   10  C   UNL     1      42.929 -16.132   1.644  1.00  0.00     0.010 C 
ENDROOT
BRANCH   4  11
HETATM   11  C   UNL     1      39.924 -13.104   2.600  1.00  0.00     0.274 C 
BRANCH  11  12
HETATM   12  C   UNL     1      39.101 -12.445   1.528  1.00  0.00    -0.032 A 
HETATM   13  C   UNL     1      39.426 -12.632   0.170  1.00  0.00     0.022 A 
HETATM   14  C   UNL     1      38.650 -12.011  -0.827  1.00  0.00    -0.008 A 
HETATM   15  C   UNL     1      37.566 -11.224  -0.442  1.00  0.00     0.042 A 
HETATM   16  C   UNL     1      38.698 -11.994  -2.248  1.00  0.00     0.030 A 
HETATM   17  N   UNL     1      36.974 -10.756  -1.596  1.00  0.00    -0.365 N 
HETATM   18  C   UNL     1      37.216 -11.022   0.896  1.00  0.00     0.031 A 
HETATM   19  H   UNL     1      36.151 -10.168  -1.626  1.00  0.00     0.165 HD
HETATM   20  C   UNL     1      37.655 -11.214  -2.692  1.00  0.00     0.089 A 
HETATM   21  C   UNL     1      38.002 -11.645   1.872  1.00  0.00     0.011 A 
ENDBRANCH  11  12
ENDBRANCH   4  11
BRANCH   1  22
HETATM   22  C   UNL     1      43.748 -16.226   4.993  1.00  0.00     0.157 C 
BRANCH  22  23
HETATM   23  C   UNL     1      43.812 -17.716   5.202  1.00  0.00    -0.023 A 
HETATM   24  C   UNL     1      43.336 -18.308   6.370  1.00  0.00     0.125 A 
HETATM   25  N   UNL     1      43.360 -19.638   6.613  1.00  0.00    -0.273 NA
HETATM   26  C   UNL     1      43.849 -20.428   5.632  1.00  0.00     0.116 A 
HETATM   27  C   UNL     1      44.323 -19.945   4.424  1.00  0.00     0.020 A 
HETATM   28  C   UNL     1      44.303 -18.570   4.209  1.00  0.00     0.011 A 
ENDBRANCH  22  23
ENDBRANCH   1  22
TORSDOF 4
ENDMDL
MODEL 8
REMARK VINA RESULT:      -8.2      3.574      5.657
REMARK  4 active torsions:
REMARK  status: ('A' for Active; 'I' for Inactive)
REMARK    1  A    between atoms: C_5  and  C_6 
REMARK    2  A    between atoms: C_6  and  N_7 
REMARK    3  A    between atoms: N_10  and  C_12 
REMARK    4  A    between atoms: C_12  and  C_13 
ROOT
HETATM    1  N   UNL     1      42.591 -12.773   5.090  1.00  0.00    -0.406 N 
HETATM    2  C   UNL     1      43.042 -12.642   3.703  1.00  0.00     0.150 C 
HETATM    3  C   UNL     1      42.704 -13.748   2.669  1.00  0.00     0.206 C 
HETATM    4  N   UNL     1      41.288 -13.636   2.112  1.00  0.00    -0.061 N 
HETATM    5  H   UNL     1      41.237 -14.394   1.422  1.00  0.00     0.280 HD
HETATM    6  C   UNL     1      40.199 -13.914   3.110  1.00  0.00     0.242 C 
HETATM    7  C   UNL     1      40.740 -14.448   4.433  1.00  0.00     0.029 C 
HETATM    8  C   UNL     1      41.253 -13.303   5.326  1.00  0.00     0.123 C 
HETATM    9  C   UNL     1      42.868 -15.168   3.220  1.00  0.00     0.035 C 
HETATM   10  C   UNL     1      41.766 -15.562   4.206  1.00  0.00     0.010 C 
ENDROOT
BRANCH   4  11
HETATM   11  C   UNL     1      40.992 -12.391   1.296  1.00  0.00     0.274 C 
BRANCH  11  12
HETATM   12  C   UNL     1      40.002 -12.606   0.185  1.00  0.00    -0.032 A 
HETATM   13  C   UNL     1      40.154 -13.693  -0.698  1.00  0.00     0.022 A 
HETATM   14  C   UNL     1      39.223 -13.887  -1.736  1.00  0.00    -0.008 A 
HETATM   15  C   UNL     1      38.161 -12.992  -1.862  1.00  0.00     0.042 A 
HETATM   16  C   UNL     1      39.082 -14.854  -2.769  1.00  0.00     0.030 A 
HETATM   17  N   UNL     1      37.400 -13.414  -2.931  1.00  0.00    -0.365 N 
HETATM   18  C   UNL     1      37.982 -11.907  -1.000  1.00  0.00     0.031 A 
HETATM   19  H   UNL     1      36.552 -12.964  -3.250  1.00  0.00     0.165 HD
HETATM   20  C   UNL     1      37.952 -14.537  -3.487  1.00  0.00     0.089 A 
HETATM   21  C   UNL     1      38.920 -11.730   0.023  1.00  0.00     0.011 A 
ENDBRANCH  11  12
ENDBRANCH   4  11
BRANCH   1  22
HETATM   22  C   UNL     1      43.593 -13.284   6.043  1.00  0.00     0.157 C 
BRANCH  22  23
HETATM   23  C   UNL     1      44.280 -12.221   6.860  1.00  0.00    -0.023 A 
HETATM   24  C   UNL     1      43.756 -11.785   8.075  1.00  0.00     0.125 A 
HETATM   25  N   UNL     1      44.329 -10.841   8.855  1.00  0.00    -0.273 NA
HETATM   26  C   UNL     1      45.500 -10.324   8.426  1.00  0.00     0.116 A 
HETATM   27  C   UNL     1      46.119 -10.705   7.247  1.00  0.00     0.020 A 
HETATM   28  C   UNL     1      45.498 -11.666   6.455  1.00  0.00     0.011 A 
ENDBRANCH  22  23
ENDBRANCH   1  22
TORSDOF 4
ENDMDL
MODEL 9
REMARK VINA RESULT:      -8.2      3.518      4.189
REMARK  4 active torsions:
REMARK  status: ('A' for Active; 'I' for Inactive)
REMARK    1  A    between atoms: C_5  and  C_6 
REMARK    2  A    between atoms: C_6  and  N_7 
REMARK    3  A    between atoms: N_10  and  C_12 
REMARK    4  A    between atoms: C_12  and  C_13 
ROOT
HETATM    1  N   UNL     1      40.531 -12.571   3.456  1.00  0.00    -0.406 N 
HETATM    2  C   UNL     1      40.599 -13.949   3.948  1.00  0.00     0.150 C 
HETATM    3  C   UNL     1      40.693 -15.128   2.944  1.00  0.00     0.206 C 
HETATM    4  N   UNL     1      42.106 -15.355   2.416  1.00  0.00    -0.061 N 
HETATM    5  H   UNL     1      42.011 -16.181   1.813  1.00  0.00     0.280 HD
HETATM    6  C   UNL     1      42.627 -14.258   1.530  1.00  0.00     0.242 C 
HETATM    7  C   UNL     1      41.555 -13.231   1.180  1.00  0.00     0.029 C 
HETATM    8  C   UNL     1      41.369 -12.211   2.319  1.00  0.00     0.123 C 
HETATM    9  C   UNL     1      39.770 -14.971   1.731  1.00  0.00     0.035 C 
HETATM   10  C   UNL     1      40.254 -13.910   0.741  1.00  0.00     0.010 C 
ENDROOT
BRANCH   4  11
HETATM   11  C   UNL     1      43.139 -15.780   3.443  1.00  0.00     0.274 C 
BRANCH  11  12
HETATM   12  C   UNL     1      43.375 -17.264   3.499  1.00  0.00    -0.032 A 
HETATM   13  C   UNL     1      43.610 -17.897   4.736  1.00  0.00     0.022 A 
HETATM   14  C   UNL     1      43.830 -19.287   4.779  1.00  0.00    -0.008 A 
HETATM   15  C   UNL     1      43.806 -20.009   3.587  1.00  0.00     0.042 A 
HETATM   16  C   UNL     1      44.085 -20.214   5.826  1.00  0.00     0.030 A 
HETATM   17  N   UNL     1      44.030 -21.330   3.908  1.00  0.00    -0.365 N 
HETATM   18  C   UNL     1      43.574 -19.410   2.346  1.00  0.00     0.031 A 
HETATM   19  H   UNL     1      44.052 -22.091   3.241  1.00  0.00     0.165 HD
HETATM   20  C   UNL     1      44.203 -21.462   5.260  1.00  0.00     0.089 A 
HETATM   21  C   UNL     1      43.360 -18.027   2.324  1.00  0.00     0.011 A 
ENDBRANCH  11  12
ENDBRANCH   4  11
BRANCH   1  22
HETATM   22  C   UNL     1      39.182 -11.981   3.392  1.00  0.00     0.157 C 
BRANCH  22  23
HETATM   23  C   UNL     1      38.980 -10.783   4.284  1.00  0.00    -0.023 A 
HETATM   24  C   UNL     1      38.896 -10.913   5.668  1.00  0.00     0.125 A 
HETATM   25  N   UNL     1      38.723  -9.878   6.520  1.00  0.00    -0.273 NA
HETATM   26  C   UNL     1      38.663  -8.644   5.975  1.00  0.00     0.116 A 
HETATM   27  C   UNL     1      38.760  -8.401   4.615  1.00  0.00     0.020 A 
HETATM   28  C   UNL     1      38.921  -9.488   3.760  1.00  0.00     0.011 A 
ENDBRANCH  22  23
ENDBRANCH   1  22
TORSDOF 4
ENDMDL
MODEL 10
REMARK VINA RESULT:      -8.1      4.405      8.253
REMARK  4 active torsions:
REMARK  status: ('A' for Active; 'I' for Inactive)
REMARK    1  A    between atoms: C_5  and  C_6 
REMARK    2  A    between atoms: C_6  and  N_7 
REMARK    3  A    between atoms: N_10  and  C_12 
REMARK    4  A    between atoms: C_12  and  C_13 
ROOT
HETATM    1  N   UNL     1      42.117 -14.877   2.721  1.00  0.00    -0.406 N 
HETATM    2  C   UNL     1      41.013 -14.863   1.759  1.00  0.00     0.150 C 
HETATM    3  C   UNL     1      40.004 -13.685   1.751  1.00  0.00     0.206 C 
HETATM    4  N   UNL     1      40.526 -12.454   1.015  1.00  0.00    -0.061 N 
HETATM    5  H   UNL     1      39.741 -11.794   1.057  1.00  0.00     0.280 HD
HETATM    6  C   UNL     1      41.680 -11.765   1.687  1.00  0.00     0.242 C 
HETATM    7  C   UNL     1      41.966 -12.324   3.077  1.00  0.00     0.029 C 
HETATM    8  C   UNL     1      42.799 -13.618   2.994  1.00  0.00     0.123 C 
HETATM    9  C   UNL     1      39.581 -13.234   3.153  1.00  0.00     0.035 C 
HETATM   10  C   UNL     1      40.680 -12.470   3.895  1.00  0.00     0.010 C 
ENDROOT
BRANCH   4  11
HETATM   11  C   UNL     1      40.769 -12.624  -0.474  1.00  0.00     0.274 C 
BRANCH  11  12
HETATM   12  C   UNL     1      39.513 -12.676  -1.299  1.00  0.00    -0.032 A 
HETATM   13  C   UNL     1      38.730 -11.517  -1.470  1.00  0.00     0.022 A 
HETATM   14  C   UNL     1      37.556 -11.575  -2.245  1.00  0.00    -0.008 A 
HETATM   15  C   UNL     1      37.197 -12.787  -2.833  1.00  0.00     0.042 A 
HETATM   16  C   UNL     1      36.568 -10.621  -2.613  1.00  0.00     0.030 A 
HETATM   17  N   UNL     1      36.035 -12.567  -3.540  1.00  0.00    -0.365 N 
HETATM   18  C   UNL     1      37.955 -13.951  -2.684  1.00  0.00     0.031 A 
HETATM   19  H   UNL     1      35.548 -13.267  -4.084  1.00  0.00     0.165 HD
HETATM   20  C   UNL     1      35.646 -11.261  -3.409  1.00  0.00     0.089 A 
HETATM   21  C   UNL     1      39.117 -13.875  -1.908  1.00  0.00     0.011 A 
ENDBRANCH  11  12
ENDBRANCH   4  11
BRANCH   1  22
HETATM   22  C   UNL     1      41.903 -15.695   3.929  1.00  0.00     0.157 C 
BRANCH  22  23
HETATM   23  C   UNL     1      42.795 -16.904   4.031  1.00  0.00    -0.023 A 
HETATM   24  C   UNL     1      43.208 -17.401   5.265  1.00  0.00     0.125 A 
HETATM   25  N   UNL     1      44.002 -18.485   5.422  1.00  0.00    -0.273 NA
HETATM   26  C   UNL     1      44.378 -19.132   4.298  1.00  0.00     0.116 A 
HETATM   27  C   UNL     1      44.004 -18.737   3.025  1.00  0.00     0.020 A 
HETATM   28  C   UNL     1      43.201 -17.608   2.893  1.00  0.00     0.011 A 
ENDBRANCH  22  23
ENDBRANCH   1  22
TORSDOF 4
ENDMDL
