MODEL 1
REMARK VINA RESULT:      -7.3      0.000      0.000
REMARK  12 active torsions:
REMARK  status: ('A' for Active; 'I' for Inactive)
REMARK    1  A    between atoms: C_2  and  N_3 
REMARK    2  A    between atoms: N_3  and  C_5 
REMARK    3  A    between atoms: N_3  and  C_33 
REMARK    4  A    between atoms: C_5  and  C_6 
REMARK    5  A    between atoms: N_7  and  C_8 
REMARK    6  A    between atoms: C_12  and  N_13 
REMARK    7  A    between atoms: C_16  and  C_17 
REMARK       I    between atoms: C_17  and  N_18 
REMARK    8  A    between atoms: N_18  and  N_19 
REMARK    9  A    between atoms: C_20  and  C_21 
REMARK   10  A    between atoms: C_25  and  O_26 
REMARK   11  A    between atoms: C_27  and  O_28 
REMARK   12  A    between atoms: O_28  and  C_29 
ROOT
HETATM    1  C   UNL     1      43.375  -9.666   8.589  1.00  0.00     0.096 A 
HETATM    2  N   UNL     1      43.668  -9.120   9.836  1.00  0.00    -0.215 N 
HETATM    3  N   UNL     1      44.604  -9.898  10.442  1.00  0.00     0.012 NA
HETATM    4  N   UNL     1      44.989 -10.849   9.608  1.00  0.00    -0.152 NA
HETATM    5  C   UNL     1      44.261 -10.728   8.462  1.00  0.00     0.170 A 
ENDROOT
BRANCH   5   6
HETATM    6  C   UNL     1      44.419 -11.593   7.301  1.00  0.00     0.293 C 
HETATM    7  N   UNL     1      43.498 -12.622   7.228  1.00  0.00    -0.242 N 
HETATM    8  H   UNL     1      42.785 -12.727   7.945  1.00  0.00     0.192 HD
HETATM    9  O   UNL     1      45.331 -11.388   6.503  1.00  0.00    -0.264 OA
BRANCH   7  10
HETATM   10  N   UNL     1      43.535 -13.466   6.163  1.00  0.00    -0.184 NA
HETATM   11  C   UNL     1      43.316 -14.719   6.408  1.00  0.00     0.150 C 
BRANCH  11  12
HETATM   12  C   UNL     1      43.311 -15.714   5.316  1.00  0.00    -0.013 A 
HETATM   13  C   UNL     1      43.672 -17.041   5.572  1.00  0.00     0.035 A 
HETATM   14  C   UNL     1      43.676 -17.962   4.530  1.00  0.00     0.047 A 
HETATM   15 BR   UNL     1      44.178 -19.754   4.895  1.00  0.00    -0.048 Br
HETATM   16  C   UNL     1      43.316 -17.564   3.240  1.00  0.00     0.116 A 
HETATM   17  C   UNL     1      42.946 -16.235   2.979  1.00  0.00     0.104 A 
HETATM   18  C   UNL     1      42.949 -15.307   4.025  1.00  0.00     0.052 A 
BRANCH  16  19
HETATM   19  O   UNL     1      43.315 -18.461   2.202  1.00  0.00    -0.357 OA
HETATM   20  H   UNL     1      43.770 -19.270   2.497  1.00  0.00     0.218 HD
ENDBRANCH  16  19
BRANCH  17  21
HETATM   21  O   UNL     1      42.611 -15.953   1.681  1.00  0.00    -0.349 OA
BRANCH  21  22
HETATM   22  C   UNL     1      41.487 -15.114   1.439  1.00  0.00     0.171 C 
HETATM   23  C   UNL     1      40.232 -15.937   1.674  1.00  0.00     0.034 C 
ENDBRANCH  21  22
ENDBRANCH  17  21
ENDBRANCH  11  12
ENDBRANCH   7  10
ENDBRANCH   5   6
BRANCH   1  24
HETATM   24  C   UNL     1      42.276  -9.233   7.690  1.00  0.00     0.296 C 
BRANCH  24  25
HETATM   25  N   UNL     1      40.995 -10.049   7.754  1.00  0.00    -0.066 N 
HETATM   26  H   UNL     1      41.195 -10.856   8.364  1.00  0.00     0.280 HD
BRANCH  25  27
HETATM   27  C   UNL     1      40.629 -10.597   6.380  1.00  0.00     0.231 C 
HETATM   28  C   UNL     1      39.397 -11.482   6.446  1.00  0.00     0.034 C 
ENDBRANCH  25  27
BRANCH  25  29
HETATM   29  C   UNL     1      39.837  -9.267   8.358  1.00  0.00     0.231 C 
HETATM   30  C   UNL     1      39.696  -9.561   9.843  1.00  0.00     0.034 C 
ENDBRANCH  25  29
ENDBRANCH  24  25
ENDBRANCH   1  24
BRANCH   2  31
HETATM   31  C   UNL     1      43.169  -7.931  10.417  1.00  0.00     0.225 A 
HETATM   32  N   UNL     1      43.243  -6.779   9.744  1.00  0.00    -0.081 NA
HETATM   33  O   UNL     1      42.684  -5.847  10.626  1.00  0.00    -0.103 OA
HETATM   34  N   UNL     1      42.311  -6.447  11.819  1.00  0.00    -0.083 NA
HETATM   35  C   UNL     1      42.613  -7.737  11.693  1.00  0.00     0.201 A 
BRANCH  35  36
HETATM   36  N   UNL     1      42.403  -8.666  12.639  1.00  0.00    -0.379 N 
HETATM   37  H   UNL     1      42.792  -9.600  12.537  1.00  0.00     0.158 HD
HETATM   38  H   UNL     1      41.732  -8.566  13.397  1.00  0.00     0.158 HD
ENDBRANCH  35  36
ENDBRANCH   2  31
TORSDOF 12
ENDMDL
MODEL 2
REMARK VINA RESULT:      -7.3      3.941     10.279
REMARK  12 active torsions:
REMARK  status: ('A' for Active; 'I' for Inactive)
REMARK    1  A    between atoms: C_2  and  N_3 
REMARK    2  A    between atoms: N_3  and  C_5 
REMARK    3  A    between atoms: N_3  and  C_33 
REMARK    4  A    between atoms: C_5  and  C_6 
REMARK    5  A    between atoms: N_7  and  C_8 
REMARK    6  A    between atoms: C_12  and  N_13 
REMARK    7  A    between atoms: C_16  and  C_17 
REMARK       I    between atoms: C_17  and  N_18 
REMARK    8  A    between atoms: N_18  and  N_19 
REMARK    9  A    between atoms: C_20  and  C_21 
REMARK   10  A    between atoms: C_25  and  O_26 
REMARK   11  A    between atoms: C_27  and  O_28 
REMARK   12  A    between atoms: O_28  and  C_29 
ROOT
HETATM    1  C   UNL     1      43.044 -16.718   4.564  1.00  0.00     0.096 A 
HETATM    2  N   UNL     1      43.878 -17.825   4.433  1.00  0.00    -0.215 N 
HETATM    3  N   UNL     1      44.898 -17.709   5.326  1.00  0.00     0.012 NA
HETATM    4  N   UNL     1      44.700 -16.641   6.081  1.00  0.00    -0.152 NA
HETATM    5  C   UNL     1      43.568 -16.019   5.644  1.00  0.00     0.170 A 
ENDROOT
BRANCH   5   6
HETATM    6  C   UNL     1      43.019 -14.810   6.246  1.00  0.00     0.293 C 
HETATM    7  N   UNL     1      43.777 -13.674   6.033  1.00  0.00    -0.242 N 
HETATM    8  H   UNL     1      44.637 -13.721   5.493  1.00  0.00     0.192 HD
HETATM    9  O   UNL     1      41.979 -14.868   6.898  1.00  0.00    -0.264 OA
BRANCH   7  10
HETATM   10  N   UNL     1      43.334 -12.485   6.521  1.00  0.00    -0.184 NA
HETATM   11  C   UNL     1      44.069 -11.919   7.425  1.00  0.00     0.150 C 
BRANCH  11  12
HETATM   12  C   UNL     1      43.688 -10.614   8.003  1.00  0.00    -0.013 A 
HETATM   13  C   UNL     1      42.983  -9.683   7.233  1.00  0.00     0.035 A 
HETATM   14  C   UNL     1      42.644  -8.453   7.788  1.00  0.00     0.047 A 
HETATM   15 BR   UNL     1      41.697  -7.201   6.726  1.00  0.00    -0.048 Br
HETATM   16  C   UNL     1      43.001  -8.156   9.106  1.00  0.00     0.116 A 
HETATM   17  C   UNL     1      43.703  -9.089   9.885  1.00  0.00     0.104 A 
HETATM   18  C   UNL     1      44.050 -10.323   9.325  1.00  0.00     0.052 A 
BRANCH  16  19
HETATM   19  O   UNL     1      42.674  -6.947   9.667  1.00  0.00    -0.357 OA
HETATM   20  H   UNL     1      42.271  -7.113  10.538  1.00  0.00     0.218 HD
ENDBRANCH  16  19
BRANCH  17  21
HETATM   21  O   UNL     1      44.002  -8.696  11.163  1.00  0.00    -0.349 OA
BRANCH  21  22
HETATM   22  C   UNL     1      43.153  -9.127  12.221  1.00  0.00     0.171 C 
HETATM   23  C   UNL     1      43.082  -8.009  13.246  1.00  0.00     0.034 C 
ENDBRANCH  21  22
ENDBRANCH  17  21
ENDBRANCH  11  12
ENDBRANCH   7  10
ENDBRANCH   5   6
BRANCH   1  24
HETATM   24  C   UNL     1      41.926 -16.362   3.655  1.00  0.00     0.296 C 
BRANCH  24  25
HETATM   25  N   UNL     1      42.313 -15.948   2.245  1.00  0.00    -0.066 N 
HETATM   26  H   UNL     1      42.689 -16.791   1.788  1.00  0.00     0.280 HD
BRANCH  25  27
HETATM   27  C   UNL     1      43.428 -14.909   2.270  1.00  0.00     0.231 C 
HETATM   28  C   UNL     1      42.883 -13.517   2.537  1.00  0.00     0.034 C 
ENDBRANCH  25  27
BRANCH  25  29
HETATM   29  C   UNL     1      41.122 -15.453   1.437  1.00  0.00     0.231 C 
HETATM   30  C   UNL     1      39.825 -15.642   2.206  1.00  0.00     0.034 C 
ENDBRANCH  25  29
ENDBRANCH  24  25
ENDBRANCH   1  24
BRANCH   2  31
HETATM   31  C   UNL     1      43.728 -18.947   3.586  1.00  0.00     0.225 A 
HETATM   32  N   UNL     1      43.267 -18.784   2.342  1.00  0.00    -0.081 NA
HETATM   33  O   UNL     1      43.236 -20.087   1.830  1.00  0.00    -0.103 OA
HETATM   34  N   UNL     1      43.650 -21.008   2.780  1.00  0.00    -0.083 NA
HETATM   35  C   UNL     1      43.953 -20.304   3.869  1.00  0.00     0.201 A 
BRANCH  35  36
HETATM   36  N   UNL     1      44.400 -20.833   5.019  1.00  0.00    -0.379 N 
HETATM   37  H   UNL     1      45.039 -20.307   5.611  1.00  0.00     0.158 HD
HETATM   38  H   UNL     1      44.281 -21.808   5.283  1.00  0.00     0.158 HD
ENDBRANCH  35  36
ENDBRANCH   2  31
TORSDOF 12
ENDMDL
MODEL 3
REMARK VINA RESULT:      -7.3      1.418      2.322
REMARK  12 active torsions:
REMARK  status: ('A' for Active; 'I' for Inactive)
REMARK    1  A    between atoms: C_2  and  N_3 
REMARK    2  A    between atoms: N_3  and  C_5 
REMARK    3  A    between atoms: N_3  and  C_33 
REMARK    4  A    between atoms: C_5  and  C_6 
REMARK    5  A    between atoms: N_7  and  C_8 
REMARK    6  A    between atoms: C_12  and  N_13 
REMARK    7  A    between atoms: C_16  and  C_17 
REMARK       I    between atoms: C_17  and  N_18 
REMARK    8  A    between atoms: N_18  and  N_19 
REMARK    9  A    between atoms: C_20  and  C_21 
REMARK   10  A    between atoms: C_25  and  O_26 
REMARK   11  A    between atoms: C_27  and  O_28 
REMARK   12  A    between atoms: O_28  and  C_29 
ROOT
HETATM    1  C   UNL     1      43.350  -9.628   8.673  1.00  0.00     0.096 A 
HETATM    2  N   UNL     1      43.643  -9.013   9.887  1.00  0.00    -0.215 N 
HETATM    3  N   UNL     1      44.614  -9.728  10.514  1.00  0.00     0.012 NA
HETATM    4  N   UNL     1      45.020 -10.705   9.720  1.00  0.00    -0.152 NA
HETATM    5  C   UNL     1      44.270 -10.664   8.582  1.00  0.00     0.170 A 
ENDROOT
BRANCH   5   6
HETATM    6  C   UNL     1      44.441 -11.578   7.460  1.00  0.00     0.293 C 
HETATM    7  N   UNL     1      43.557 -12.640   7.453  1.00  0.00    -0.242 N 
HETATM    8  H   UNL     1      42.859 -12.736   8.186  1.00  0.00     0.192 HD
HETATM    9  O   UNL     1      45.332 -11.380   6.637  1.00  0.00    -0.264 OA
BRANCH   7  10
HETATM   10  N   UNL     1      43.607 -13.533   6.428  1.00  0.00    -0.184 NA
HETATM   11  C   UNL     1      42.582 -14.312   6.287  1.00  0.00     0.150 C 
BRANCH  11  12
HETATM   12  C   UNL     1      42.528 -15.301   5.190  1.00  0.00    -0.013 A 
HETATM   13  C   UNL     1      41.642 -15.120   4.124  1.00  0.00     0.035 A 
HETATM   14  C   UNL     1      41.594 -16.068   3.107  1.00  0.00     0.047 A 
HETATM   15 BR   UNL     1      40.380 -15.810   1.674  1.00  0.00    -0.048 Br
HETATM   16  C   UNL     1      42.429 -17.187   3.151  1.00  0.00     0.116 A 
HETATM   17  C   UNL     1      43.325 -17.371   4.216  1.00  0.00     0.104 A 
HETATM   18  C   UNL     1      43.368 -16.421   5.242  1.00  0.00     0.052 A 
BRANCH  16  19
HETATM   19  O   UNL     1      42.393 -18.131   2.155  1.00  0.00    -0.357 OA
HETATM   20  H   UNL     1      42.425 -17.672   1.297  1.00  0.00     0.218 HD
ENDBRANCH  16  19
BRANCH  17  21
HETATM   21  O   UNL     1      44.097 -18.500   4.160  1.00  0.00    -0.349 OA
BRANCH  21  22
HETATM   22  C   UNL     1      44.044 -19.412   5.251  1.00  0.00     0.171 C 
HETATM   23  C   UNL     1      44.062 -20.820   4.683  1.00  0.00     0.034 C 
ENDBRANCH  21  22
ENDBRANCH  17  21
ENDBRANCH  11  12
ENDBRANCH   7  10
ENDBRANCH   5   6
BRANCH   1  24
HETATM   24  C   UNL     1      42.222  -9.277   7.773  1.00  0.00     0.296 C 
BRANCH  24  25
HETATM   25  N   UNL     1      40.894  -9.954   8.066  1.00  0.00    -0.066 N 
HETATM   26  H   UNL     1      41.103 -10.746   8.691  1.00  0.00     0.280 HD
BRANCH  25  27
HETATM   27  C   UNL     1      40.283 -10.528   6.793  1.00  0.00     0.231 C 
HETATM   28  C   UNL     1      41.275 -10.510   5.645  1.00  0.00     0.034 C 
ENDBRANCH  25  27
BRANCH  25  29
HETATM   29  C   UNL     1      39.914  -9.030   8.775  1.00  0.00     0.231 C 
HETATM   30  C   UNL     1      39.486  -9.611  10.113  1.00  0.00     0.034 C 
ENDBRANCH  25  29
ENDBRANCH  24  25
ENDBRANCH   1  24
BRANCH   2  31
HETATM   31  C   UNL     1      43.111  -7.815  10.420  1.00  0.00     0.225 A 
HETATM   32  N   UNL     1      43.272  -6.664   9.760  1.00  0.00    -0.081 NA
HETATM   33  O   UNL     1      42.647  -5.722  10.586  1.00  0.00    -0.103 OA
HETATM   34  N   UNL     1      42.147  -6.316  11.735  1.00  0.00    -0.083 NA
HETATM   35  C   UNL     1      42.436  -7.613  11.635  1.00  0.00     0.201 A 
BRANCH  35  36
HETATM   36  N   UNL     1      42.116  -8.538  12.553  1.00  0.00    -0.379 N 
HETATM   37  H   UNL     1      41.296  -9.125  12.424  1.00  0.00     0.158 HD
HETATM   38  H   UNL     1      42.542  -8.598  13.475  1.00  0.00     0.158 HD
ENDBRANCH  35  36
ENDBRANCH   2  31
TORSDOF 12
ENDMDL
MODEL 4
REMARK VINA RESULT:      -7.2      1.968      3.459
REMARK  12 active torsions:
REMARK  status: ('A' for Active; 'I' for Inactive)
REMARK    1  A    between atoms: C_2  and  N_3 
REMARK    2  A    between atoms: N_3  and  C_5 
REMARK    3  A    between atoms: N_3  and  C_33 
REMARK    4  A    between atoms: C_5  and  C_6 
REMARK    5  A    between atoms: N_7  and  C_8 
REMARK    6  A    between atoms: C_12  and  N_13 
REMARK    7  A    between atoms: C_16  and  C_17 
REMARK       I    between atoms: C_17  and  N_18 
REMARK    8  A    between atoms: N_18  and  N_19 
REMARK    9  A    between atoms: C_20  and  C_21 
REMARK   10  A    between atoms: C_25  and  O_26 
REMARK   11  A    between atoms: C_27  and  O_28 
REMARK   12  A    between atoms: O_28  and  C_29 
ROOT
HETATM    1  C   UNL     1      40.942  -9.299   8.822  1.00  0.00     0.096 A 
HETATM    2  N   UNL     1      39.971  -8.800   9.685  1.00  0.00    -0.215 N 
HETATM    3  N   UNL     1      38.753  -8.933   9.093  1.00  0.00     0.012 NA
HETATM    4  N   UNL     1      38.892  -9.578   7.947  1.00  0.00    -0.152 NA
HETATM    5  C   UNL     1      40.220  -9.822   7.757  1.00  0.00     0.170 A 
ENDROOT
BRANCH   5   6
HETATM    6  C   UNL     1      40.761 -10.533   6.606  1.00  0.00     0.293 C 
HETATM    7  N   UNL     1      40.710 -11.910   6.712  1.00  0.00    -0.242 N 
HETATM    8  H   UNL     1      40.317 -12.350   7.540  1.00  0.00     0.192 HD
HETATM    9  O   UNL     1      41.232  -9.902   5.662  1.00  0.00    -0.264 OA
BRANCH   7  10
HETATM   10  N   UNL     1      41.156 -12.668   5.675  1.00  0.00    -0.184 NA
HETATM   11  C   UNL     1      41.347 -13.926   5.916  1.00  0.00     0.150 C 
BRANCH  11  12
HETATM   12  C   UNL     1      41.808 -14.840   4.850  1.00  0.00    -0.013 A 
HETATM   13  C   UNL     1      42.654 -15.910   5.160  1.00  0.00     0.035 A 
HETATM   14  C   UNL     1      43.090 -16.753   4.142  1.00  0.00     0.047 A 
HETATM   15 BR   UNL     1      44.244 -18.192   4.579  1.00  0.00    -0.048 Br
HETATM   16  C   UNL     1      42.680 -16.533   2.825  1.00  0.00     0.116 A 
HETATM   17  C   UNL     1      41.826 -15.464   2.510  1.00  0.00     0.104 A 
HETATM   18  C   UNL     1      41.393 -14.613   3.532  1.00  0.00     0.052 A 
BRANCH  16  19
HETATM   19  O   UNL     1      43.102 -17.355   1.811  1.00  0.00    -0.357 OA
HETATM   20  H   UNL     1      43.205 -18.255   2.169  1.00  0.00     0.218 HD
ENDBRANCH  16  19
BRANCH  17  21
HETATM   21  O   UNL     1      41.486 -15.340   1.189  1.00  0.00    -0.349 OA
BRANCH  21  22
HETATM   22  C   UNL     1      40.105 -15.334   0.843  1.00  0.00     0.171 C 
HETATM   23  C   UNL     1      39.932 -14.430  -0.365  1.00  0.00     0.034 C 
ENDBRANCH  21  22
ENDBRANCH  17  21
ENDBRANCH  11  12
ENDBRANCH   7  10
ENDBRANCH   5   6
BRANCH   1  24
HETATM   24  C   UNL     1      42.410  -9.172   9.003  1.00  0.00     0.296 C 
BRANCH  24  25
HETATM   25  N   UNL     1      43.151 -10.441   9.391  1.00  0.00    -0.066 N 
HETATM   26  H   UNL     1      42.502 -11.221   9.214  1.00  0.00     0.280 HD
BRANCH  25  27
HETATM   27  C   UNL     1      43.476 -10.448  10.880  1.00  0.00     0.231 C 
HETATM   28  C   UNL     1      43.881  -9.067  11.366  1.00  0.00     0.034 C 
ENDBRANCH  25  27
BRANCH  25  29
HETATM   29  C   UNL     1      44.404 -10.661   8.556  1.00  0.00     0.231 C 
HETATM   30  C   UNL     1      44.199 -11.781   7.549  1.00  0.00     0.034 C 
ENDBRANCH  25  29
ENDBRANCH  24  25
ENDBRANCH   1  24
BRANCH   2  31
HETATM   31  C   UNL     1      40.133  -8.284  10.992  1.00  0.00     0.225 A 
HETATM   32  N   UNL     1      40.261  -6.967  11.176  1.00  0.00    -0.081 NA
HETATM   33  O   UNL     1      40.419  -6.843  12.562  1.00  0.00    -0.103 OA
HETATM   34  N   UNL     1      40.411  -8.084  13.180  1.00  0.00    -0.083 NA
HETATM   35  C   UNL     1      40.236  -8.979  12.209  1.00  0.00     0.201 A 
BRANCH  35  36
HETATM   36  N   UNL     1      40.168 -10.305  12.398  1.00  0.00    -0.379 N 
HETATM   37  H   UNL     1      40.813 -10.926  11.915  1.00  0.00     0.158 HD
HETATM   38  H   UNL     1      39.400 -10.775  12.872  1.00  0.00     0.158 HD
ENDBRANCH  35  36
ENDBRANCH   2  31
TORSDOF 12
ENDMDL
MODEL 5
REMARK VINA RESULT:      -7.1      2.991      4.589
REMARK  12 active torsions:
REMARK  status: ('A' for Active; 'I' for Inactive)
REMARK    1  A    between atoms: C_2  and  N_3 
REMARK    2  A    between atoms: N_3  and  C_5 
REMARK    3  A    between atoms: N_3  and  C_33 
REMARK    4  A    between atoms: C_5  and  C_6 
REMARK    5  A    between atoms: N_7  and  C_8 
REMARK    6  A    between atoms: C_12  and  N_13 
REMARK    7  A    between atoms: C_16  and  C_17 
REMARK       I    between atoms: C_17  and  N_18 
REMARK    8  A    between atoms: N_18  and  N_19 
REMARK    9  A    between atoms: C_20  and  C_21 
REMARK   10  A    between atoms: C_25  and  O_26 
REMARK   11  A    between atoms: C_27  and  O_28 
REMARK   12  A    between atoms: O_28  and  C_29 
ROOT
HETATM    1  C   UNL     1      40.851  -9.230   9.005  1.00  0.00     0.096 A 
HETATM    2  N   UNL     1      40.634  -8.813  10.315  1.00  0.00    -0.215 N 
HETATM    3  N   UNL     1      39.302  -8.884  10.579  1.00  0.00     0.012 NA
HETATM    4  N   UNL     1      38.678  -9.417   9.542  1.00  0.00    -0.152 NA
HETATM    5  C   UNL     1      39.602  -9.647   8.565  1.00  0.00     0.170 A 
ENDROOT
BRANCH   5   6
HETATM    6  C   UNL     1      39.290 -10.246   7.274  1.00  0.00     0.293 C 
HETATM    7  N   UNL     1      39.766 -11.534   7.115  1.00  0.00    -0.242 N 
HETATM    8  H   UNL     1      40.284 -11.989   7.863  1.00  0.00     0.192 HD
HETATM    9  O   UNL     1      38.673  -9.599   6.431  1.00  0.00    -0.264 OA
BRANCH   7  10
HETATM   10  N   UNL     1      39.498 -12.198   5.959  1.00  0.00    -0.184 NA
HETATM   11  C   UNL     1      40.449 -12.242   5.081  1.00  0.00     0.150 C 
BRANCH  11  12
HETATM   12  C   UNL     1      40.266 -12.959   3.802  1.00  0.00    -0.013 A 
HETATM   13  C   UNL     1      39.746 -12.290   2.690  1.00  0.00     0.035 A 
HETATM   14  C   UNL     1      39.567 -12.983   1.497  1.00  0.00     0.047 A 
HETATM   15 BR   UNL     1      38.852 -12.061   0.002  1.00  0.00    -0.048 Br
HETATM   16  C   UNL     1      39.910 -14.335   1.413  1.00  0.00     0.116 A 
HETATM   17  C   UNL     1      40.438 -15.010   2.524  1.00  0.00     0.104 A 
HETATM   18  C   UNL     1      40.611 -14.315   3.726  1.00  0.00     0.052 A 
BRANCH  16  19
HETATM   19  O   UNL     1      39.738 -15.032   0.243  1.00  0.00    -0.357 OA
HETATM   20  H   UNL     1      39.019 -14.611  -0.261  1.00  0.00     0.218 HD
ENDBRANCH  16  19
BRANCH  17  21
HETATM   21  O   UNL     1      40.740 -16.332   2.333  1.00  0.00    -0.349 OA
BRANCH  21  22
HETATM   22  C   UNL     1      42.007 -16.808   2.773  1.00  0.00     0.171 C 
HETATM   23  C   UNL     1      43.051 -16.350   1.771  1.00  0.00     0.034 C 
ENDBRANCH  21  22
ENDBRANCH  17  21
ENDBRANCH  11  12
ENDBRANCH   7  10
ENDBRANCH   5   6
BRANCH   1  24
HETATM   24  C   UNL     1      42.133  -9.126   8.263  1.00  0.00     0.296 C 
BRANCH  24  25
HETATM   25  N   UNL     1      43.048 -10.338   8.332  1.00  0.00    -0.066 N 
HETATM   26  H   UNL     1      42.548 -11.048   8.886  1.00  0.00     0.280 HD
BRANCH  25  27
HETATM   27  C   UNL     1      44.337 -10.006   9.074  1.00  0.00     0.231 C 
HETATM   28  C   UNL     1      44.852  -8.628   8.702  1.00  0.00     0.034 C 
ENDBRANCH  25  27
BRANCH  25  29
HETATM   29  C   UNL     1      43.343 -10.922   6.957  1.00  0.00     0.231 C 
HETATM   30  C   UNL     1      44.140 -12.211   7.072  1.00  0.00     0.034 C 
ENDBRANCH  25  29
ENDBRANCH  24  25
ENDBRANCH   1  24
BRANCH   2  31
HETATM   31  C   UNL     1      41.586  -8.425  11.287  1.00  0.00     0.225 A 
HETATM   32  N   UNL     1      41.836  -7.128  11.492  1.00  0.00    -0.081 NA
HETATM   33  O   UNL     1      42.823  -7.138  12.485  1.00  0.00    -0.103 OA
HETATM   34  N   UNL     1      43.166  -8.434  12.838  1.00  0.00    -0.083 NA
HETATM   35  C   UNL     1      42.403  -9.233  12.095  1.00  0.00     0.201 A 
BRANCH  35  36
HETATM   36  N   UNL     1      42.430 -10.574  12.142  1.00  0.00    -0.379 N 
HETATM   37  H   UNL     1      43.106 -11.053  12.732  1.00  0.00     0.158 HD
HETATM   38  H   UNL     1      41.926 -11.178  11.497  1.00  0.00     0.158 HD
ENDBRANCH  35  36
ENDBRANCH   2  31
TORSDOF 12
ENDMDL
MODEL 6
REMARK VINA RESULT:      -7.0      2.644      4.323
REMARK  12 active torsions:
REMARK  status: ('A' for Active; 'I' for Inactive)
REMARK    1  A    between atoms: C_2  and  N_3 
REMARK    2  A    between atoms: N_3  and  C_5 
REMARK    3  A    between atoms: N_3  and  C_33 
REMARK    4  A    between atoms: C_5  and  C_6 
REMARK    5  A    between atoms: N_7  and  C_8 
REMARK    6  A    between atoms: C_12  and  N_13 
REMARK    7  A    between atoms: C_16  and  C_17 
REMARK       I    between atoms: C_17  and  N_18 
REMARK    8  A    between atoms: N_18  and  N_19 
REMARK    9  A    between atoms: C_20  and  C_21 
REMARK   10  A    between atoms: C_25  and  O_26 
REMARK   11  A    between atoms: C_27  and  O_28 
REMARK   12  A    between atoms: O_28  and  C_29 
ROOT
HETATM    1  C   UNL     1      40.884  -9.111   9.360  1.00  0.00     0.096 A 
HETATM    2  N   UNL     1      39.946  -8.794  10.338  1.00  0.00    -0.215 N 
HETATM    3  N   UNL     1      38.711  -8.785   9.769  1.00  0.00     0.012 NA
HETATM    4  N   UNL     1      38.806  -9.176   8.509  1.00  0.00    -0.152 NA
HETATM    5  C   UNL     1      40.124  -9.391   8.232  1.00  0.00     0.170 A 
ENDROOT
BRANCH   5   6
HETATM    6  C   UNL     1      40.620  -9.850   6.941  1.00  0.00     0.293 C 
HETATM    7  N   UNL     1      40.754 -11.223   6.839  1.00  0.00    -0.242 N 
HETATM    8  H   UNL     1      40.512 -11.825   7.622  1.00  0.00     0.192 HD
HETATM    9  O   UNL     1      40.902  -9.034   6.067  1.00  0.00    -0.264 OA
BRANCH   7  10
HETATM   10  N   UNL     1      41.175 -11.758   5.662  1.00  0.00    -0.184 NA
HETATM   11  C   UNL     1      41.209 -13.051   5.592  1.00  0.00     0.150 C 
BRANCH  11  12
HETATM   12  C   UNL     1      41.630 -13.731   4.349  1.00  0.00    -0.013 A 
HETATM   13  C   UNL     1      41.181 -13.268   3.109  1.00  0.00     0.035 A 
HETATM   14  C   UNL     1      41.575 -13.929   1.949  1.00  0.00     0.047 A 
HETATM   15 BR   UNL     1      40.948 -13.293   0.277  1.00  0.00    -0.048 Br
HETATM   16  C   UNL     1      42.417 -15.041   2.028  1.00  0.00     0.116 A 
HETATM   17  C   UNL     1      42.876 -15.506   3.270  1.00  0.00     0.104 A 
HETATM   18  C   UNL     1      42.474 -14.846   4.436  1.00  0.00     0.052 A 
BRANCH  16  19
HETATM   19  O   UNL     1      42.813 -15.703   0.893  1.00  0.00    -0.357 OA
HETATM   20  H   UNL     1      43.060 -15.041   0.223  1.00  0.00     0.218 HD
ENDBRANCH  16  19
BRANCH  17  21
HETATM   21  O   UNL     1      43.696 -16.602   3.233  1.00  0.00    -0.349 OA
BRANCH  21  22
HETATM   22  C   UNL     1      43.548 -17.594   4.243  1.00  0.00     0.171 C 
HETATM   23  C   UNL     1      44.322 -18.824   3.804  1.00  0.00     0.034 C 
ENDBRANCH  21  22
ENDBRANCH  17  21
ENDBRANCH  11  12
ENDBRANCH   7  10
ENDBRANCH   5   6
BRANCH   1  24
HETATM   24  C   UNL     1      42.359  -9.043   9.519  1.00  0.00     0.296 C 
BRANCH  24  25
HETATM   25  N   UNL     1      43.067 -10.361   9.784  1.00  0.00    -0.066 N 
HETATM   26  H   UNL     1      42.336 -11.087   9.791  1.00  0.00     0.280 HD
BRANCH  25  27
HETATM   27  C   UNL     1      43.722 -10.361  11.160  1.00  0.00     0.231 C 
HETATM   28  C   UNL     1      43.768  -8.963  11.752  1.00  0.00     0.034 C 
ENDBRANCH  25  27
BRANCH  25  29
HETATM   29  C   UNL     1      44.076 -10.707   8.698  1.00  0.00     0.231 C 
HETATM   30  C   UNL     1      44.859  -9.477   8.269  1.00  0.00     0.034 C 
ENDBRANCH  25  29
ENDBRANCH  24  25
ENDBRANCH   1  24
BRANCH   2  31
HETATM   31  C   UNL     1      40.153  -8.566  11.719  1.00  0.00     0.225 A 
HETATM   32  N   UNL     1      40.359  -7.323  12.164  1.00  0.00    -0.081 NA
HETATM   33  O   UNL     1      40.541  -7.494  13.542  1.00  0.00    -0.103 OA
HETATM   34  N   UNL     1      40.468  -8.833  13.894  1.00  0.00    -0.083 NA
HETATM   35  C   UNL     1      40.230  -9.499  12.766  1.00  0.00     0.201 A 
BRANCH  35  36
HETATM   36  N   UNL     1      40.088 -10.831  12.682  1.00  0.00    -0.379 N 
HETATM   37  H   UNL     1      39.808 -11.369  13.498  1.00  0.00     0.158 HD
HETATM   38  H   UNL     1      40.400 -11.389  11.891  1.00  0.00     0.158 HD
ENDBRANCH  35  36
ENDBRANCH   2  31
TORSDOF 12
ENDMDL
MODEL 7
REMARK VINA RESULT:      -6.9      3.899      9.973
REMARK  12 active torsions:
REMARK  status: ('A' for Active; 'I' for Inactive)
REMARK    1  A    between atoms: C_2  and  N_3 
REMARK    2  A    between atoms: N_3  and  C_5 
REMARK    3  A    between atoms: N_3  and  C_33 
REMARK    4  A    between atoms: C_5  and  C_6 
REMARK    5  A    between atoms: N_7  and  C_8 
REMARK    6  A    between atoms: C_12  and  N_13 
REMARK    7  A    between atoms: C_16  and  C_17 
REMARK       I    between atoms: C_17  and  N_18 
REMARK    8  A    between atoms: N_18  and  N_19 
REMARK    9  A    between atoms: C_20  and  C_21 
REMARK   10  A    between atoms: C_25  and  O_26 
REMARK   11  A    between atoms: C_27  and  O_28 
REMARK   12  A    between atoms: O_28  and  C_29 
ROOT
HETATM    1  C   UNL     1      42.974 -16.730   4.784  1.00  0.00     0.096 A 
HETATM    2  N   UNL     1      43.895 -17.728   4.480  1.00  0.00    -0.215 N 
HETATM    3  N   UNL     1      45.023 -17.516   5.209  1.00  0.00     0.012 NA
HETATM    4  N   UNL     1      44.828 -16.498   6.030  1.00  0.00    -0.152 NA
HETATM    5  C   UNL     1      43.579 -16.002   5.799  1.00  0.00     0.170 A 
ENDROOT
BRANCH   5   6
HETATM    6  C   UNL     1      43.000 -14.881   6.529  1.00  0.00     0.293 C 
HETATM    7  N   UNL     1      43.821 -13.771   6.611  1.00  0.00    -0.242 N 
HETATM    8  H   UNL     1      44.742 -13.777   6.181  1.00  0.00     0.192 HD
HETATM    9  O   UNL     1      41.882 -14.986   7.028  1.00  0.00    -0.264 OA
BRANCH   7  10
HETATM   10  N   UNL     1      43.361 -12.656   7.239  1.00  0.00    -0.184 NA
HETATM   11  C   UNL     1      44.246 -11.772   7.572  1.00  0.00     0.150 C 
BRANCH  11  12
HETATM   12  C   UNL     1      43.846 -10.514   8.239  1.00  0.00    -0.013 A 
HETATM   13  C   UNL     1      43.758 -10.456   9.633  1.00  0.00     0.035 A 
HETATM   14  C   UNL     1      43.367  -9.269  10.245  1.00  0.00     0.047 A 
HETATM   15 BR   UNL     1      43.244  -9.212  12.135  1.00  0.00    -0.048 Br
HETATM   16  C   UNL     1      43.072  -8.145   9.469  1.00  0.00     0.116 A 
HETATM   17  C   UNL     1      43.165  -8.196   8.069  1.00  0.00     0.104 A 
HETATM   18  C   UNL     1      43.551  -9.392   7.455  1.00  0.00     0.052 A 
BRANCH  16  19
HETATM   19  O   UNL     1      42.684  -6.967  10.057  1.00  0.00    -0.357 OA
HETATM   20  H   UNL     1      41.760  -6.790   9.806  1.00  0.00     0.218 HD
ENDBRANCH  16  19
BRANCH  17  21
HETATM   21  O   UNL     1      42.854  -7.039   7.407  1.00  0.00    -0.349 OA
BRANCH  21  22
HETATM   22  C   UNL     1      41.726  -7.037   6.539  1.00  0.00     0.171 C 
HETATM   23  C   UNL     1      40.679  -6.115   7.137  1.00  0.00     0.034 C 
ENDBRANCH  21  22
ENDBRANCH  17  21
ENDBRANCH  11  12
ENDBRANCH   7  10
ENDBRANCH   5   6
BRANCH   1  24
HETATM   24  C   UNL     1      41.693 -16.487   4.073  1.00  0.00     0.296 C 
BRANCH  24  25
HETATM   25  N   UNL     1      41.789 -15.727   2.760  1.00  0.00    -0.066 N 
HETATM   26  H   UNL     1      42.692 -15.991   2.338  1.00  0.00     0.280 HD
BRANCH  25  27
HETATM   27  C   UNL     1      41.822 -14.223   3.002  1.00  0.00     0.231 C 
HETATM   28  C   UNL     1      43.195 -13.644   2.710  1.00  0.00     0.034 C 
ENDBRANCH  25  27
BRANCH  25  29
HETATM   29  C   UNL     1      40.678 -16.102   1.790  1.00  0.00     0.231 C 
HETATM   30  C   UNL     1      40.282 -14.913   0.929  1.00  0.00     0.034 C 
ENDBRANCH  25  29
ENDBRANCH  24  25
ENDBRANCH   1  24
BRANCH   2  31
HETATM   31  C   UNL     1      43.740 -18.840   3.618  1.00  0.00     0.225 A 
HETATM   32  N   UNL     1      43.255 -18.663   2.386  1.00  0.00    -0.081 NA
HETATM   33  O   UNL     1      43.227 -19.959   1.856  1.00  0.00    -0.103 OA
HETATM   34  N   UNL     1      43.667 -20.889   2.784  1.00  0.00    -0.083 NA
HETATM   35  C   UNL     1      43.983 -20.199   3.878  1.00  0.00     0.201 A 
BRANCH  35  36
HETATM   36  N   UNL     1      44.456 -20.740   5.011  1.00  0.00    -0.379 N 
HETATM   37  H   UNL     1      45.446 -20.954   5.103  1.00  0.00     0.158 HD
HETATM   38  H   UNL     1      43.869 -21.116   5.752  1.00  0.00     0.158 HD
ENDBRANCH  35  36
ENDBRANCH   2  31
TORSDOF 12
ENDMDL
MODEL 8
REMARK VINA RESULT:      -6.8      4.583     10.042
REMARK  12 active torsions:
REMARK  status: ('A' for Active; 'I' for Inactive)
REMARK    1  A    between atoms: C_2  and  N_3 
REMARK    2  A    between atoms: N_3  and  C_5 
REMARK    3  A    between atoms: N_3  and  C_33 
REMARK    4  A    between atoms: C_5  and  C_6 
REMARK    5  A    between atoms: N_7  and  C_8 
REMARK    6  A    between atoms: C_12  and  N_13 
REMARK    7  A    between atoms: C_16  and  C_17 
REMARK       I    between atoms: C_17  and  N_18 
REMARK    8  A    between atoms: N_18  and  N_19 
REMARK    9  A    between atoms: C_20  and  C_21 
REMARK   10  A    between atoms: C_25  and  O_26 
REMARK   11  A    between atoms: C_27  and  O_28 
REMARK   12  A    between atoms: O_28  and  C_29 
ROOT
HETATM    1  C   UNL     1      42.746 -17.074   4.247  1.00  0.00     0.096 A 
HETATM    2  N   UNL     1      43.735 -18.054   4.225  1.00  0.00    -0.215 N 
HETATM    3  N   UNL     1      44.707 -17.711   5.112  1.00  0.00     0.012 NA
HETATM    4  N   UNL     1      44.340 -16.620   5.764  1.00  0.00    -0.152 NA
HETATM    5  C   UNL     1      43.139 -16.212   5.263  1.00  0.00     0.170 A 
ENDROOT
BRANCH   5   6
HETATM    6  C   UNL     1      42.407 -15.049   5.747  1.00  0.00     0.293 C 
HETATM    7  N   UNL     1      42.601 -13.903   4.998  1.00  0.00    -0.242 N 
HETATM    8  H   UNL     1      43.209 -13.916   4.184  1.00  0.00     0.192 HD
HETATM    9  O   UNL     1      41.713 -15.139   6.757  1.00  0.00    -0.264 OA
BRANCH   7  10
HETATM   10  N   UNL     1      41.934 -12.770   5.344  1.00  0.00    -0.184 NA
HETATM   11  C   UNL     1      40.854 -12.507   4.680  1.00  0.00     0.150 C 
BRANCH  11  12
HETATM   12  C   UNL     1      40.043 -11.312   4.993  1.00  0.00    -0.013 A 
HETATM   13  C   UNL     1      39.470 -10.561   3.962  1.00  0.00     0.035 A 
HETATM   14  C   UNL     1      38.722  -9.430   4.274  1.00  0.00     0.047 A 
HETATM   15 BR   UNL     1      37.961  -8.420   2.862  1.00  0.00    -0.048 Br
HETATM   16  C   UNL     1      38.542  -9.054   5.607  1.00  0.00     0.116 A 
HETATM   17  C   UNL     1      39.110  -9.808   6.647  1.00  0.00     0.104 A 
HETATM   18  C   UNL     1      39.868 -10.941   6.333  1.00  0.00     0.052 A 
BRANCH  16  19
HETATM   19  O   UNL     1      37.807  -7.941   5.930  1.00  0.00    -0.357 OA
HETATM   20  H   UNL     1      37.013  -8.229   6.414  1.00  0.00     0.218 HD
ENDBRANCH  16  19
BRANCH  17  21
HETATM   21  O   UNL     1      38.871  -9.351   7.915  1.00  0.00    -0.349 OA
BRANCH  21  22
HETATM   22  C   UNL     1      39.972  -9.226   8.809  1.00  0.00     0.171 C 
HETATM   23  C   UNL     1      40.688  -7.926   8.487  1.00  0.00     0.034 C 
ENDBRANCH  21  22
ENDBRANCH  17  21
ENDBRANCH  11  12
ENDBRANCH   7  10
ENDBRANCH   5   6
BRANCH   1  24
HETATM   24  C   UNL     1      41.608 -16.970   3.300  1.00  0.00     0.296 C 
BRANCH  24  25
HETATM   25  N   UNL     1      41.878 -16.218   2.007  1.00  0.00    -0.066 N 
HETATM   26  H   UNL     1      41.681 -16.877   1.241  1.00  0.00     0.280 HD
BRANCH  25  27
HETATM   27  C   UNL     1      43.347 -15.825   1.902  1.00  0.00     0.231 C 
HETATM   28  C   UNL     1      43.516 -14.317   1.854  1.00  0.00     0.034 C 
ENDBRANCH  25  27
BRANCH  25  29
HETATM   29  C   UNL     1      40.974 -15.004   1.841  1.00  0.00     0.231 C 
HETATM   30  C   UNL     1      40.063 -15.164   0.635  1.00  0.00     0.034 C 
ENDBRANCH  25  29
ENDBRANCH  24  25
ENDBRANCH   1  24
BRANCH   2  31
HETATM   31  C   UNL     1      43.769 -19.257   3.482  1.00  0.00     0.225 A 
HETATM   32  N   UNL     1      43.456 -19.246   2.183  1.00  0.00    -0.081 NA
HETATM   33  O   UNL     1      43.577 -20.588   1.805  1.00  0.00    -0.103 OA
HETATM   34  N   UNL     1      43.933 -21.383   2.884  1.00  0.00    -0.083 NA
HETATM   35  C   UNL     1      44.049 -20.561   3.925  1.00  0.00     0.201 A 
BRANCH  35  36
HETATM   36  N   UNL     1      44.386 -20.945   5.166  1.00  0.00    -0.379 N 
HETATM   37  H   UNL     1      44.623 -21.915   5.356  1.00  0.00     0.158 HD
HETATM   38  H   UNL     1      44.267 -20.366   5.994  1.00  0.00     0.158 HD
ENDBRANCH  35  36
ENDBRANCH   2  31
TORSDOF 12
ENDMDL
MODEL 9
REMARK VINA RESULT:      -6.7      7.750     10.429
REMARK  12 active torsions:
REMARK  status: ('A' for Active; 'I' for Inactive)
REMARK    1  A    between atoms: C_2  and  N_3 
REMARK    2  A    between atoms: N_3  and  C_5 
REMARK    3  A    between atoms: N_3  and  C_33 
REMARK    4  A    between atoms: C_5  and  C_6 
REMARK    5  A    between atoms: N_7  and  C_8 
REMARK    6  A    between atoms: C_12  and  N_13 
REMARK    7  A    between atoms: C_16  and  C_17 
REMARK       I    between atoms: C_17  and  N_18 
REMARK    8  A    between atoms: N_18  and  N_19 
REMARK    9  A    between atoms: C_20  and  C_21 
REMARK   10  A    between atoms: C_25  and  O_26 
REMARK   11  A    between atoms: C_27  and  O_28 
REMARK   12  A    between atoms: O_28  and  C_29 
ROOT
HETATM    1  C   UNL     1      38.269 -12.015  -1.540  1.00  0.00     0.096 A 
HETATM    2  N   UNL     1      37.211 -12.133  -2.438  1.00  0.00    -0.215 N 
HETATM    3  N   UNL     1      37.239 -13.379  -2.982  1.00  0.00     0.012 NA
HETATM    4  N   UNL     1      38.195 -14.087  -2.405  1.00  0.00    -0.152 NA
HETATM    5  C   UNL     1      38.838 -13.282  -1.512  1.00  0.00     0.170 A 
ENDROOT
BRANCH   5   6
HETATM    6  C   UNL     1      39.944 -13.719  -0.670  1.00  0.00     0.293 C 
HETATM    7  N   UNL     1      39.669 -14.838   0.094  1.00  0.00    -0.242 N 
HETATM    8  H   UNL     1      38.759 -15.289   0.040  1.00  0.00     0.192 HD
HETATM    9  O   UNL     1      40.998 -13.088  -0.666  1.00  0.00    -0.264 OA
BRANCH   7  10
HETATM   10  N   UNL     1      40.647 -15.351   0.888  1.00  0.00    -0.184 NA
HETATM   11  C   UNL     1      40.294 -15.716   2.079  1.00  0.00     0.150 C 
BRANCH  11  12
HETATM   12  C   UNL     1      41.277 -16.307   3.012  1.00  0.00    -0.013 A 
HETATM   13  C   UNL     1      41.268 -15.946   4.363  1.00  0.00     0.035 A 
HETATM   14  C   UNL     1      42.209 -16.501   5.225  1.00  0.00     0.047 A 
HETATM   15 BR   UNL     1      42.187 -15.993   7.051  1.00  0.00    -0.048 Br
HETATM   16  C   UNL     1      43.149 -17.415   4.742  1.00  0.00     0.116 A 
HETATM   17  C   UNL     1      43.158 -17.786   3.388  1.00  0.00     0.104 A 
HETATM   18  C   UNL     1      42.216 -17.222   2.520  1.00  0.00     0.052 A 
BRANCH  16  19
HETATM   19  O   UNL     1      44.083 -17.970   5.580  1.00  0.00    -0.357 OA
HETATM   20  H   UNL     1      44.282 -17.328   6.285  1.00  0.00     0.218 HD
ENDBRANCH  16  19
BRANCH  17  21
HETATM   21  O   UNL     1      44.121 -18.688   3.022  1.00  0.00    -0.349 OA
BRANCH  21  22
HETATM   22  C   UNL     1      43.707 -19.952   2.515  1.00  0.00     0.171 C 
HETATM   23  C   UNL     1      43.912 -20.983   3.610  1.00  0.00     0.034 C 
ENDBRANCH  21  22
ENDBRANCH  17  21
ENDBRANCH  11  12
ENDBRANCH   7  10
ENDBRANCH   5   6
BRANCH   1  24
HETATM   24  C   UNL     1      38.707 -10.762  -0.876  1.00  0.00     0.296 C 
BRANCH  24  25
HETATM   25  N   UNL     1      39.306  -9.697  -1.781  1.00  0.00    -0.066 N 
HETATM   26  H   UNL     1      38.527  -9.321  -2.342  1.00  0.00     0.280 HD
BRANCH  25  27
HETATM   27  C   UNL     1      40.310 -10.309  -2.750  1.00  0.00     0.231 C 
HETATM   28  C   UNL     1      40.460  -9.462  -4.001  1.00  0.00     0.034 C 
ENDBRANCH  25  27
BRANCH  25  29
HETATM   29  C   UNL     1      39.929  -8.552  -0.997  1.00  0.00     0.231 C 
HETATM   30  C   UNL     1      39.813  -8.789   0.501  1.00  0.00     0.034 C 
ENDBRANCH  25  29
ENDBRANCH  24  25
ENDBRANCH   1  24
BRANCH   2  31
HETATM   31  C   UNL     1      36.202 -11.189  -2.741  1.00  0.00     0.225 A 
HETATM   32  N   UNL     1      36.130 -10.047  -2.050  1.00  0.00    -0.081 NA
HETATM   33  O   UNL     1      35.023  -9.397  -2.606  1.00  0.00    -0.103 OA
HETATM   34  N   UNL     1      34.435 -10.166  -3.598  1.00  0.00    -0.083 NA
HETATM   35  C   UNL     1      35.163 -11.278  -3.682  1.00  0.00     0.201 A 
BRANCH  35  36
HETATM   36  N   UNL     1      34.921 -12.286  -4.534  1.00  0.00    -0.379 N 
HETATM   37  H   UNL     1      34.370 -13.088  -4.237  1.00  0.00     0.158 HD
HETATM   38  H   UNL     1      35.387 -12.399  -5.431  1.00  0.00     0.158 HD
ENDBRANCH  35  36
ENDBRANCH   2  31
TORSDOF 12
ENDMDL
MODEL 10
REMARK VINA RESULT:      -6.6     18.690     20.959
REMARK  12 active torsions:
REMARK  status: ('A' for Active; 'I' for Inactive)
REMARK    1  A    between atoms: C_2  and  N_3 
REMARK    2  A    between atoms: N_3  and  C_5 
REMARK    3  A    between atoms: N_3  and  C_33 
REMARK    4  A    between atoms: C_5  and  C_6 
REMARK    5  A    between atoms: N_7  and  C_8 
REMARK    6  A    between atoms: C_12  and  N_13 
REMARK    7  A    between atoms: C_16  and  C_17 
REMARK       I    between atoms: C_17  and  N_18 
REMARK    8  A    between atoms: N_18  and  N_19 
REMARK    9  A    between atoms: C_20  and  C_21 
REMARK   10  A    between atoms: C_25  and  O_26 
REMARK   11  A    between atoms: C_27  and  O_28 
REMARK   12  A    between atoms: O_28  and  C_29 
ROOT
HETATM    1  C   UNL     1      39.544 -32.488   5.054  1.00  0.00     0.096 A 
HETATM    2  N   UNL     1      38.297 -33.095   4.937  1.00  0.00    -0.215 N 
HETATM    3  N   UNL     1      38.032 -33.295   3.618  1.00  0.00     0.012 NA
HETATM    4  N   UNL     1      39.085 -32.938   2.902  1.00  0.00    -0.152 NA
HETATM    5  C   UNL     1      40.030 -32.448   3.754  1.00  0.00     0.170 A 
ENDROOT
BRANCH   5   6
HETATM    6  C   UNL     1      41.340 -31.971   3.330  1.00  0.00     0.293 C 
HETATM    7  N   UNL     1      41.350 -30.665   2.878  1.00  0.00    -0.242 N 
HETATM    8  H   UNL     1      40.494 -30.117   2.863  1.00  0.00     0.192 HD
HETATM    9  O   UNL     1      42.310 -32.724   3.372  1.00  0.00    -0.264 OA
BRANCH   7  10
HETATM   10  N   UNL     1      42.531 -30.109   2.493  1.00  0.00    -0.184 NA
HETATM   11  C   UNL     1      42.742 -30.021   1.219  1.00  0.00     0.150 C 
BRANCH  11  12
HETATM   12  C   UNL     1      43.983 -29.412   0.697  1.00  0.00    -0.013 A 
HETATM   13  C   UNL     1      44.079 -29.060  -0.653  1.00  0.00     0.035 A 
HETATM   14  C   UNL     1      45.260 -28.501  -1.131  1.00  0.00     0.047 A 
HETATM   15 BR   UNL     1      45.375 -28.038  -2.966  1.00  0.00    -0.048 Br
HETATM   16  C   UNL     1      46.337 -28.289  -0.266  1.00  0.00     0.116 A 
HETATM   17  C   UNL     1      46.243 -28.635   1.091  1.00  0.00     0.104 A 
HETATM   18  C   UNL     1      45.058 -29.204   1.571  1.00  0.00     0.052 A 
BRANCH  16  19
HETATM   19  O   UNL     1      47.508 -27.739  -0.723  1.00  0.00    -0.357 OA
HETATM   20  H   UNL     1      47.615 -26.863  -0.312  1.00  0.00     0.218 HD
ENDBRANCH  16  19
BRANCH  17  21
HETATM   21  O   UNL     1      47.356 -28.385   1.850  1.00  0.00    -0.349 OA
BRANCH  21  22
HETATM   22  C   UNL     1      47.619 -29.229   2.966  1.00  0.00     0.171 C 
HETATM   23  C   UNL     1      48.919 -28.771   3.601  1.00  0.00     0.034 C 
ENDBRANCH  21  22
ENDBRANCH  17  21
ENDBRANCH  11  12
ENDBRANCH   7  10
ENDBRANCH   5   6
BRANCH   1  24
HETATM   24  C   UNL     1      40.124 -31.931   6.302  1.00  0.00     0.296 C 
BRANCH  24  25
HETATM   25  N   UNL     1      40.775 -32.931   7.244  1.00  0.00    -0.066 N 
HETATM   26  H   UNL     1      40.159 -33.757   7.262  1.00  0.00     0.280 HD
BRANCH  25  27
HETATM   27  C   UNL     1      40.840 -32.380   8.663  1.00  0.00     0.231 C 
HETATM   28  C   UNL     1      40.567 -33.463   9.692  1.00  0.00     0.034 C 
ENDBRANCH  25  27
BRANCH  25  29
HETATM   29  C   UNL     1      42.152 -33.369   6.763  1.00  0.00     0.231 C 
HETATM   30  C   UNL     1      43.157 -32.234   6.878  1.00  0.00     0.034 C 
ENDBRANCH  25  29
ENDBRANCH  24  25
ENDBRANCH   1  24
BRANCH   2  31
HETATM   31  C   UNL     1      37.422 -33.518   5.965  1.00  0.00     0.225 A 
HETATM   32  N   UNL     1      37.672 -33.179   7.233  1.00  0.00    -0.081 NA
HETATM   33  O   UNL     1      36.628 -33.781   7.945  1.00  0.00    -0.103 OA
HETATM   34  N   UNL     1      35.789 -34.492   7.101  1.00  0.00    -0.083 NA
HETATM   35  C   UNL     1      36.280 -34.332   5.873  1.00  0.00     0.201 A 
BRANCH  35  36
HETATM   36  N   UNL     1      35.747 -34.865   4.763  1.00  0.00    -0.379 N 
HETATM   37  H   UNL     1      35.611 -34.292   3.934  1.00  0.00     0.158 HD
HETATM   38  H   UNL     1      35.303 -35.779   4.726  1.00  0.00     0.158 HD
ENDBRANCH  35  36
ENDBRANCH   2  31
TORSDOF 12
ENDMDL
