MODEL 1
REMARK VINA RESULT:      -9.3      0.000      0.000
REMARK  6 active torsions:
REMARK  status: ('A' for Active; 'I' for Inactive)
REMARK    1  A    between atoms: N_2  and  C_3 
REMARK    2  A    between atoms: C_6  and  C_7 
REMARK       I    between atoms: C_7  and  N_8 
REMARK    3  A    between atoms: N_8  and  C_9 
REMARK    4  A    between atoms: C_9  and  C_10 
REMARK    5  A    between atoms: C_10  and  C_11 
REMARK    6  A    between atoms: C_22  and  O_23 
ROOT
HETATM    1  C   UNL     1      44.358 -11.220   6.345  1.00  0.00     0.158 A 
HETATM    2  N   UNL     1      45.505 -11.559   6.945  1.00  0.00    -0.111 NA
HETATM    3  O   UNL     1      45.279 -11.223   8.280  1.00  0.00    -0.189 OA
HETATM    4  C   UNL     1      44.006 -10.723   8.355  1.00  0.00     0.223 A 
HETATM    5  C   UNL     1      43.398 -10.279   9.564  1.00  0.00     0.089 A 
HETATM    6  N   UNL     1      42.138  -9.736   9.587  1.00  0.00    -0.352 N 
HETATM    7  H   UNL     1      41.558  -9.606   8.770  1.00  0.00     0.166 HD
HETATM    8  C   UNL     1      41.782  -9.406  10.875  1.00  0.00     0.045 A 
HETATM    9  C   UNL     1      42.855  -9.745  11.697  1.00  0.00    -0.007 A 
HETATM   10  C   UNL     1      43.870 -10.289  10.861  1.00  0.00     0.048 A 
HETATM   11  C   UNL     1      40.603  -8.839  11.374  1.00  0.00     0.067 A 
HETATM   12  C   UNL     1      40.506  -8.616  12.754  1.00  0.00     0.070 A 
HETATM   13  C   UNL     1      41.569  -8.946  13.595  1.00  0.00     0.038 A 
HETATM   14  C   UNL     1      42.746  -9.510  13.080  1.00  0.00     0.016 A 
HETATM   15  N   UNL     1      43.398 -10.710   7.186  1.00  0.00    -0.203 NA
ENDROOT
BRANCH   1  16
HETATM   16  C   UNL     1      44.135 -11.452   4.896  1.00  0.00     0.103 C 
BRANCH  16  17
HETATM   17  C   UNL     1      42.800 -12.135   4.595  1.00  0.00     0.133 C 
BRANCH  17  18
HETATM   18  N   UNL     1      42.972 -13.482   4.040  1.00  0.00    -0.352 N 
HETATM   19  C   UNL     1      42.688 -14.567   4.870  1.00  0.00     0.253 C 
HETATM   20  O   UNL     1      42.200 -14.437   5.992  1.00  0.00    -0.267 OA
HETATM   21  C   UNL     1      43.239 -13.576   2.610  1.00  0.00     0.152 C 
BRANCH  19  22
HETATM   22  C   UNL     1      42.983 -15.941   4.403  1.00  0.00     0.032 A 
HETATM   23  C   UNL     1      42.406 -16.452   3.242  1.00  0.00     0.019 A 
HETATM   24  C   UNL     1      42.725 -17.750   2.818  1.00  0.00     0.030 A 
HETATM   25  C   UNL     1      43.645 -18.558   3.511  1.00  0.00     0.029 A 
HETATM   26  C   UNL     1      44.217 -18.001   4.671  1.00  0.00     0.030 A 
HETATM   27  C   UNL     1      43.905 -16.709   5.111  1.00  0.00     0.019 A 
BRANCH  25  28
HETATM   28  N   UNL     1      43.962 -19.862   3.106  1.00  0.00    -0.390 N 
HETATM   29  C   UNL     1      43.952 -20.939   4.094  1.00  0.00     0.149 C 
HETATM   30  C   UNL     1      43.524 -20.253   1.763  1.00  0.00     0.149 C 
ENDBRANCH  25  28
ENDBRANCH  19  22
ENDBRANCH  17  18
ENDBRANCH  16  17
ENDBRANCH   1  16
BRANCH  12  31
HETATM   31  O   UNL     1      39.315  -8.065  13.149  1.00  0.00    -0.356 OA
HETATM   32  C   UNL     1      39.383  -6.876  13.925  1.00  0.00     0.210 C 
ENDBRANCH  12  31
TORSDOF 6
ENDMDL
MODEL 2
REMARK VINA RESULT:      -9.1      2.204     11.164
REMARK  6 active torsions:
REMARK  status: ('A' for Active; 'I' for Inactive)
REMARK    1  A    between atoms: N_2  and  C_3 
REMARK    2  A    between atoms: C_6  and  C_7 
REMARK       I    between atoms: C_7  and  N_8 
REMARK    3  A    between atoms: N_8  and  C_9 
REMARK    4  A    between atoms: C_9  and  C_10 
REMARK    5  A    between atoms: C_10  and  C_11 
REMARK    6  A    between atoms: C_22  and  O_23 
ROOT
HETATM    1  C   UNL     1      42.360 -10.935   5.561  1.00  0.00     0.158 A 
HETATM    2  N   UNL     1      42.143 -10.551   4.298  1.00  0.00    -0.111 NA
HETATM    3  O   UNL     1      42.344 -11.723   3.569  1.00  0.00    -0.189 OA
HETATM    4  C   UNL     1      42.652 -12.706   4.472  1.00  0.00     0.223 A 
HETATM    5  C   UNL     1      42.915 -14.059   4.113  1.00  0.00     0.089 A 
HETATM    6  N   UNL     1      43.270 -15.003   5.044  1.00  0.00    -0.352 N 
HETATM    7  H   UNL     1      43.377 -14.816   6.032  1.00  0.00     0.166 HD
HETATM    8  C   UNL     1      43.451 -16.226   4.441  1.00  0.00     0.045 A 
HETATM    9  C   UNL     1      43.208 -16.054   3.081  1.00  0.00    -0.007 A 
HETATM   10  C   UNL     1      42.877 -14.684   2.883  1.00  0.00     0.048 A 
HETATM   11  C   UNL     1      43.807 -17.465   4.990  1.00  0.00     0.067 A 
HETATM   12  C   UNL     1      43.912 -18.566   4.131  1.00  0.00     0.070 A 
HETATM   13  C   UNL     1      43.675 -18.415   2.764  1.00  0.00     0.038 A 
HETATM   14  C   UNL     1      43.323 -17.167   2.228  1.00  0.00     0.016 A 
HETATM   15  N   UNL     1      42.665 -12.266   5.714  1.00  0.00    -0.203 NA
ENDROOT
BRANCH   1  16
HETATM   16  C   UNL     1      42.206  -9.997   6.701  1.00  0.00     0.103 C 
BRANCH  16  17
HETATM   17  C   UNL     1      43.193 -10.265   7.838  1.00  0.00     0.133 C 
BRANCH  17  18
HETATM   18  N   UNL     1      42.865  -9.515   9.055  1.00  0.00    -0.352 N 
HETATM   19  C   UNL     1      43.251 -10.062  10.279  1.00  0.00     0.253 C 
HETATM   20  O   UNL     1      43.943 -11.074  10.366  1.00  0.00    -0.267 OA
HETATM   21  C   UNL     1      42.333  -8.169   8.876  1.00  0.00     0.152 C 
BRANCH  19  22
HETATM   22  C   UNL     1      42.817  -9.415  11.538  1.00  0.00     0.032 A 
HETATM   23  C   UNL     1      43.582  -8.420  12.144  1.00  0.00     0.019 A 
HETATM   24  C   UNL     1      43.130  -7.813  13.324  1.00  0.00     0.030 A 
HETATM   25  C   UNL     1      41.897  -8.151  13.914  1.00  0.00     0.029 A 
HETATM   26  C   UNL     1      41.147  -9.151  13.264  1.00  0.00     0.030 A 
HETATM   27  C   UNL     1      41.588  -9.770  12.088  1.00  0.00     0.019 A 
BRANCH  25  28
HETATM   28  N   UNL     1      41.440  -7.564  15.101  1.00  0.00    -0.390 N 
HETATM   29  C   UNL     1      42.396  -6.898  15.984  1.00  0.00     0.149 C 
HETATM   30  C   UNL     1      40.111  -6.947  15.053  1.00  0.00     0.149 C 
ENDBRANCH  25  28
ENDBRANCH  19  22
ENDBRANCH  17  18
ENDBRANCH  16  17
ENDBRANCH   1  16
BRANCH  12  31
HETATM   31  O   UNL     1      44.258 -19.734   4.757  1.00  0.00    -0.356 OA
HETATM   32  C   UNL     1      43.871 -20.945   4.121  1.00  0.00     0.210 C 
ENDBRANCH  12  31
TORSDOF 6
ENDMDL
MODEL 3
REMARK VINA RESULT:      -8.8      1.755      2.068
REMARK  6 active torsions:
REMARK  status: ('A' for Active; 'I' for Inactive)
REMARK    1  A    between atoms: N_2  and  C_3 
REMARK    2  A    between atoms: C_6  and  C_7 
REMARK       I    between atoms: C_7  and  N_8 
REMARK    3  A    between atoms: N_8  and  C_9 
REMARK    4  A    between atoms: C_9  and  C_10 
REMARK    5  A    between atoms: C_10  and  C_11 
REMARK    6  A    between atoms: C_22  and  O_23 
ROOT
HETATM    1  C   UNL     1      41.434 -11.035   5.181  1.00  0.00     0.158 A 
HETATM    2  N   UNL     1      42.733 -10.903   4.889  1.00  0.00    -0.111 NA
HETATM    3  O   UNL     1      43.279 -10.415   6.075  1.00  0.00    -0.189 OA
HETATM    4  C   UNL     1      42.251 -10.312   6.975  1.00  0.00     0.223 A 
HETATM    5  C   UNL     1      42.412  -9.860   8.316  1.00  0.00     0.089 A 
HETATM    6  N   UNL     1      41.347  -9.723   9.170  1.00  0.00    -0.352 N 
HETATM    7  H   UNL     1      40.388  -9.921   8.921  1.00  0.00     0.166 HD
HETATM    8  C   UNL     1      41.775  -9.287  10.403  1.00  0.00     0.045 A 
HETATM    9  C   UNL     1      43.158  -9.136  10.328  1.00  0.00    -0.007 A 
HETATM   10  C   UNL     1      43.549  -9.494   9.008  1.00  0.00     0.048 A 
HETATM   11  C   UNL     1      41.052  -9.017  11.572  1.00  0.00     0.067 A 
HETATM   12  C   UNL     1      41.756  -8.588  12.704  1.00  0.00     0.070 A 
HETATM   13  C   UNL     1      43.141  -8.429  12.651  1.00  0.00     0.038 A 
HETATM   14  C   UNL     1      43.852  -8.698  11.471  1.00  0.00     0.016 A 
HETATM   15  N   UNL     1      41.096 -10.692   6.468  1.00  0.00    -0.203 NA
ENDROOT
BRANCH   1  16
HETATM   16  C   UNL     1      40.463 -11.581   4.200  1.00  0.00     0.103 C 
BRANCH  16  17
HETATM   17  C   UNL     1      41.132 -12.317   3.038  1.00  0.00     0.133 C 
BRANCH  17  18
HETATM   18  N   UNL     1      41.442 -13.713   3.362  1.00  0.00    -0.352 N 
HETATM   19  C   UNL     1      42.728 -14.175   3.078  1.00  0.00     0.253 C 
HETATM   20  O   UNL     1      43.627 -13.437   2.679  1.00  0.00    -0.267 OA
HETATM   21  C   UNL     1      40.444 -14.449   4.130  1.00  0.00     0.152 C 
BRANCH  19  22
HETATM   22  C   UNL     1      43.044 -15.611   3.254  1.00  0.00     0.032 A 
HETATM   23  C   UNL     1      42.880 -16.523   2.214  1.00  0.00     0.019 A 
HETATM   24  C   UNL     1      43.210 -17.871   2.409  1.00  0.00     0.030 A 
HETATM   25  C   UNL     1      43.741 -18.343   3.624  1.00  0.00     0.029 A 
HETATM   26  C   UNL     1      43.905 -17.388   4.647  1.00  0.00     0.030 A 
HETATM   27  C   UNL     1      43.575 -16.039   4.468  1.00  0.00     0.019 A 
BRANCH  25  28
HETATM   28  N   UNL     1      44.062 -19.690   3.838  1.00  0.00    -0.390 N 
HETATM   29  C   UNL     1      44.005 -20.231   5.195  1.00  0.00     0.149 C 
HETATM   30  C   UNL     1      43.672 -20.629   2.782  1.00  0.00     0.149 C 
ENDBRANCH  25  28
ENDBRANCH  19  22
ENDBRANCH  17  18
ENDBRANCH  16  17
ENDBRANCH   1  16
BRANCH  12  31
HETATM   31  O   UNL     1      40.966  -8.355  13.799  1.00  0.00    -0.356 OA
HETATM   32  C   UNL     1      41.630  -8.150  15.039  1.00  0.00     0.210 C 
ENDBRANCH  12  31
TORSDOF 6
ENDMDL
MODEL 4
REMARK VINA RESULT:      -8.6      3.019     10.781
REMARK  6 active torsions:
REMARK  status: ('A' for Active; 'I' for Inactive)
REMARK    1  A    between atoms: N_2  and  C_3 
REMARK    2  A    between atoms: C_6  and  C_7 
REMARK       I    between atoms: C_7  and  N_8 
REMARK    3  A    between atoms: N_8  and  C_9 
REMARK    4  A    between atoms: C_9  and  C_10 
REMARK    5  A    between atoms: C_10  and  C_11 
REMARK    6  A    between atoms: C_22  and  O_23 
ROOT
HETATM    1  C   UNL     1      44.406 -11.750   6.643  1.00  0.00     0.158 A 
HETATM    2  N   UNL     1      43.993 -12.659   7.534  1.00  0.00    -0.111 NA
HETATM    3  O   UNL     1      43.144 -13.476   6.788  1.00  0.00    -0.189 OA
HETATM    4  C   UNL     1      43.140 -12.984   5.509  1.00  0.00     0.223 A 
HETATM    5  C   UNL     1      42.398 -13.560   4.439  1.00  0.00     0.089 A 
HETATM    6  N   UNL     1      42.380 -13.005   3.185  1.00  0.00    -0.352 N 
HETATM    7  H   UNL     1      42.874 -12.162   2.927  1.00  0.00     0.166 HD
HETATM    8  C   UNL     1      41.603 -13.762   2.337  1.00  0.00     0.045 A 
HETATM    9  C   UNL     1      41.106 -14.831   3.080  1.00  0.00    -0.007 A 
HETATM   10  C   UNL     1      41.608 -14.691   4.404  1.00  0.00     0.048 A 
HETATM   11  C   UNL     1      41.305 -13.587   0.980  1.00  0.00     0.067 A 
HETATM   12  C   UNL     1      40.481 -14.531   0.354  1.00  0.00     0.070 A 
HETATM   13  C   UNL     1      39.971 -15.608   1.079  1.00  0.00     0.038 A 
HETATM   14  C   UNL     1      40.275 -15.768   2.440  1.00  0.00     0.016 A 
HETATM   15  N   UNL     1      43.911 -11.924   5.373  1.00  0.00    -0.203 NA
ENDROOT
BRANCH   1  16
HETATM   16  C   UNL     1      45.380 -10.689   7.002  1.00  0.00     0.103 C 
BRANCH  16  17
HETATM   17  C   UNL     1      45.676 -10.628   8.502  1.00  0.00     0.133 C 
BRANCH  17  18
HETATM   18  N   UNL     1      44.754  -9.741   9.219  1.00  0.00    -0.352 N 
HETATM   19  C   UNL     1      44.312 -10.146  10.479  1.00  0.00     0.253 C 
HETATM   20  O   UNL     1      44.748 -11.146  11.047  1.00  0.00    -0.267 OA
HETATM   21  C   UNL     1      44.526  -8.421   8.642  1.00  0.00     0.152 C 
BRANCH  19  22
HETATM   22  C   UNL     1      43.273  -9.356  11.178  1.00  0.00     0.032 A 
HETATM   23  C   UNL     1      43.607  -8.419  12.153  1.00  0.00     0.019 A 
HETATM   24  C   UNL     1      42.598  -7.673  12.779  1.00  0.00     0.030 A 
HETATM   25  C   UNL     1      41.241  -7.812  12.432  1.00  0.00     0.029 A 
HETATM   26  C   UNL     1      40.945  -8.759  11.433  1.00  0.00     0.030 A 
HETATM   27  C   UNL     1      41.941  -9.515  10.802  1.00  0.00     0.019 A 
BRANCH  25  28
HETATM   28  N   UNL     1      40.221  -7.083  13.060  1.00  0.00    -0.390 N 
HETATM   29  C   UNL     1      38.828  -7.382  12.736  1.00  0.00     0.149 C 
HETATM   30  C   UNL     1      40.462  -6.691  14.452  1.00  0.00     0.149 C 
ENDBRANCH  25  28
ENDBRANCH  19  22
ENDBRANCH  17  18
ENDBRANCH  16  17
ENDBRANCH   1  16
BRANCH  12  31
HETATM   31  O   UNL     1      40.251 -14.280  -0.973  1.00  0.00    -0.356 OA
HETATM   32  C   UNL     1      39.048 -13.597  -1.300  1.00  0.00     0.210 C 
ENDBRANCH  12  31
TORSDOF 6
ENDMDL
MODEL 5
REMARK VINA RESULT:      -8.3      2.503     11.460
REMARK  6 active torsions:
REMARK  status: ('A' for Active; 'I' for Inactive)
REMARK    1  A    between atoms: N_2  and  C_3 
REMARK    2  A    between atoms: C_6  and  C_7 
REMARK       I    between atoms: C_7  and  N_8 
REMARK    3  A    between atoms: N_8  and  C_9 
REMARK    4  A    between atoms: C_9  and  C_10 
REMARK    5  A    between atoms: C_10  and  C_11 
REMARK    6  A    between atoms: C_22  and  O_23 
ROOT
HETATM    1  C   UNL     1      43.795 -11.020   7.803  1.00  0.00     0.158 A 
HETATM    2  N   UNL     1      42.789 -10.222   7.426  1.00  0.00    -0.111 NA
HETATM    3  O   UNL     1      42.172 -10.947   6.406  1.00  0.00    -0.189 OA
HETATM    4  C   UNL     1      42.864 -12.123   6.278  1.00  0.00     0.223 A 
HETATM    5  C   UNL     1      42.528 -13.143   5.343  1.00  0.00     0.089 A 
HETATM    6  N   UNL     1      43.278 -14.284   5.211  1.00  0.00    -0.352 N 
HETATM    7  H   UNL     1      44.111 -14.484   5.748  1.00  0.00     0.166 HD
HETATM    8  C   UNL     1      42.732 -15.109   4.255  1.00  0.00     0.045 A 
HETATM    9  C   UNL     1      41.599 -14.468   3.759  1.00  0.00    -0.007 A 
HETATM   10  C   UNL     1      41.482 -13.228   4.446  1.00  0.00     0.048 A 
HETATM   11  C   UNL     1      43.148 -16.365   3.794  1.00  0.00     0.067 A 
HETATM   12  C   UNL     1      42.384 -16.994   2.803  1.00  0.00     0.070 A 
HETATM   13  C   UNL     1      41.247 -16.370   2.290  1.00  0.00     0.038 A 
HETATM   14  C   UNL     1      40.845 -15.109   2.758  1.00  0.00     0.016 A 
HETATM   15  N   UNL     1      43.869 -12.213   7.126  1.00  0.00    -0.203 NA
ENDROOT
BRANCH   1  16
HETATM   16  C   UNL     1      44.705 -10.656   8.918  1.00  0.00     0.103 C 
BRANCH  16  17
HETATM   17  C   UNL     1      44.530  -9.212   9.390  1.00  0.00     0.133 C 
BRANCH  17  18
HETATM   18  N   UNL     1      43.785  -9.119  10.650  1.00  0.00    -0.352 N 
HETATM   19  C   UNL     1      43.173  -7.903  10.954  1.00  0.00     0.253 C 
HETATM   20  O   UNL     1      43.141  -6.959  10.166  1.00  0.00    -0.267 OA
HETATM   21  C   UNL     1      43.583 -10.360  11.389  1.00  0.00     0.152 C 
BRANCH  19  22
HETATM   22  C   UNL     1      42.533  -7.717  12.275  1.00  0.00     0.032 A 
HETATM   23  C   UNL     1      41.155  -7.844  12.439  1.00  0.00     0.019 A 
HETATM   24  C   UNL     1      40.585  -7.683  13.710  1.00  0.00     0.030 A 
HETATM   25  C   UNL     1      41.366  -7.426  14.853  1.00  0.00     0.029 A 
HETATM   26  C   UNL     1      42.756  -7.318  14.649  1.00  0.00     0.030 A 
HETATM   27  C   UNL     1      43.339  -7.471  13.385  1.00  0.00     0.019 A 
BRANCH  25  28
HETATM   28  N   UNL     1      40.809  -7.249  16.126  1.00  0.00    -0.390 N 
HETATM   29  C   UNL     1      41.688  -7.218  17.293  1.00  0.00     0.149 C 
HETATM   30  C   UNL     1      39.641  -6.366  16.210  1.00  0.00     0.149 C 
ENDBRANCH  25  28
ENDBRANCH  19  22
ENDBRANCH  17  18
ENDBRANCH  16  17
ENDBRANCH   1  16
BRANCH  12  31
HETATM   31  O   UNL     1      42.864 -18.219   2.421  1.00  0.00    -0.356 OA
HETATM   32  C   UNL     1      43.868 -18.801   3.241  1.00  0.00     0.210 C 
ENDBRANCH  12  31
TORSDOF 6
ENDMDL
MODEL 6
REMARK VINA RESULT:      -8.2      2.564     11.400
REMARK  6 active torsions:
REMARK  status: ('A' for Active; 'I' for Inactive)
REMARK    1  A    between atoms: N_2  and  C_3 
REMARK    2  A    between atoms: C_6  and  C_7 
REMARK       I    between atoms: C_7  and  N_8 
REMARK    3  A    between atoms: N_8  and  C_9 
REMARK    4  A    between atoms: C_9  and  C_10 
REMARK    5  A    between atoms: C_10  and  C_11 
REMARK    6  A    between atoms: C_22  and  O_23 
ROOT
HETATM    1  C   UNL     1      42.323 -11.544   5.591  1.00  0.00     0.158 A 
HETATM    2  N   UNL     1      41.957 -11.162   4.362  1.00  0.00    -0.111 NA
HETATM    3  O   UNL     1      42.120 -12.322   3.605  1.00  0.00    -0.189 OA
HETATM    4  C   UNL     1      42.559 -13.298   4.461  1.00  0.00     0.223 A 
HETATM    5  C   UNL     1      42.829 -14.639   4.064  1.00  0.00     0.089 A 
HETATM    6  N   UNL     1      43.317 -15.573   4.942  1.00  0.00    -0.352 N 
HETATM    7  H   UNL     1      43.523 -15.388   5.914  1.00  0.00     0.166 HD
HETATM    8  C   UNL     1      43.474 -16.786   4.312  1.00  0.00     0.045 A 
HETATM    9  C   UNL     1      43.079 -16.616   2.987  1.00  0.00    -0.007 A 
HETATM   10  C   UNL     1      42.679 -15.258   2.839  1.00  0.00     0.048 A 
HETATM   11  C   UNL     1      43.932 -18.014   4.808  1.00  0.00     0.067 A 
HETATM   12  C   UNL     1      43.982 -19.106   3.933  1.00  0.00     0.070 A 
HETATM   13  C   UNL     1      43.592 -18.957   2.601  1.00  0.00     0.038 A 
HETATM   14  C   UNL     1      43.140 -17.720   2.117  1.00  0.00     0.016 A 
HETATM   15  N   UNL     1      42.691 -12.863   5.698  1.00  0.00    -0.203 NA
ENDROOT
BRANCH   1  16
HETATM   16  C   UNL     1      42.261 -10.617   6.749  1.00  0.00     0.103 C 
BRANCH  16  17
HETATM   17  C   UNL     1      40.870 -10.017   6.964  1.00  0.00     0.133 C 
BRANCH  17  18
HETATM   18  N   UNL     1      40.733  -9.375   8.276  1.00  0.00    -0.352 N 
HETATM   19  C   UNL     1      39.569  -9.626   9.003  1.00  0.00     0.253 C 
HETATM   20  O   UNL     1      38.721 -10.441   8.641  1.00  0.00    -0.267 OA
HETATM   21  C   UNL     1      41.905  -8.682   8.796  1.00  0.00     0.152 C 
BRANCH  19  22
HETATM   22  C   UNL     1      39.321  -8.890  10.263  1.00  0.00     0.032 A 
HETATM   23  C   UNL     1      39.841  -9.334  11.477  1.00  0.00     0.019 A 
HETATM   24  C   UNL     1      39.605  -8.601  12.648  1.00  0.00     0.030 A 
HETATM   25  C   UNL     1      38.879  -7.395  12.641  1.00  0.00     0.029 A 
HETATM   26  C   UNL     1      38.382  -6.972  11.393  1.00  0.00     0.030 A 
HETATM   27  C   UNL     1      38.605  -7.697  10.216  1.00  0.00     0.019 A 
BRANCH  25  28
HETATM   28  N   UNL     1      38.623  -6.658  13.806  1.00  0.00    -0.390 N 
HETATM   29  C   UNL     1      39.675  -6.524  14.812  1.00  0.00     0.149 C 
HETATM   30  C   UNL     1      37.757  -5.485  13.658  1.00  0.00     0.149 C 
ENDBRANCH  25  28
ENDBRANCH  19  22
ENDBRANCH  17  18
ENDBRANCH  16  17
ENDBRANCH   1  16
BRANCH  12  31
HETATM   31  O   UNL     1      44.435 -20.264   4.508  1.00  0.00    -0.356 OA
HETATM   32  C   UNL     1      43.825 -20.657   5.730  1.00  0.00     0.210 C 
ENDBRANCH  12  31
TORSDOF 6
ENDMDL
MODEL 7
REMARK VINA RESULT:      -8.1      2.715     11.232
REMARK  6 active torsions:
REMARK  status: ('A' for Active; 'I' for Inactive)
REMARK    1  A    between atoms: N_2  and  C_3 
REMARK    2  A    between atoms: C_6  and  C_7 
REMARK       I    between atoms: C_7  and  N_8 
REMARK    3  A    between atoms: N_8  and  C_9 
REMARK    4  A    between atoms: C_9  and  C_10 
REMARK    5  A    between atoms: C_10  and  C_11 
REMARK    6  A    between atoms: C_22  and  O_23 
ROOT
HETATM    1  C   UNL     1      44.113  -9.625   8.243  1.00  0.00     0.158 A 
HETATM    2  N   UNL     1      45.182 -10.258   8.738  1.00  0.00    -0.111 NA
HETATM    3  O   UNL     1      45.069 -11.541   8.202  1.00  0.00    -0.189 OA
HETATM    4  C   UNL     1      43.943 -11.550   7.423  1.00  0.00     0.223 A 
HETATM    5  C   UNL     1      43.494 -12.686   6.690  1.00  0.00     0.089 A 
HETATM    6  N   UNL     1      42.331 -12.668   5.961  1.00  0.00    -0.352 N 
HETATM    7  H   UNL     1      41.714 -11.870   5.893  1.00  0.00     0.166 HD
HETATM    8  C   UNL     1      42.136 -13.880   5.340  1.00  0.00     0.045 A 
HETATM    9  C   UNL     1      43.208 -14.698   5.690  1.00  0.00    -0.007 A 
HETATM   10  C   UNL     1      44.055 -13.938   6.546  1.00  0.00     0.048 A 
HETATM   11  C   UNL     1      41.103 -14.314   4.500  1.00  0.00     0.067 A 
HETATM   12  C   UNL     1      41.164 -15.618   3.992  1.00  0.00     0.070 A 
HETATM   13  C   UNL     1      42.227 -16.454   4.332  1.00  0.00     0.038 A 
HETATM   14  C   UNL     1      43.253 -16.008   5.178  1.00  0.00     0.016 A 
HETATM   15  N   UNL     1      43.326 -10.386   7.413  1.00  0.00    -0.203 NA
ENDROOT
BRANCH   1  16
HETATM   16  C   UNL     1      43.855  -8.190   8.523  1.00  0.00     0.103 C 
BRANCH  16  17
HETATM   17  C   UNL     1      42.417  -7.912   8.963  1.00  0.00     0.133 C 
BRANCH  17  18
HETATM   18  N   UNL     1      42.344  -7.325  10.305  1.00  0.00    -0.352 N 
HETATM   19  C   UNL     1      42.200  -8.193  11.387  1.00  0.00     0.253 C 
HETATM   20  O   UNL     1      42.245  -9.416  11.269  1.00  0.00    -0.267 OA
HETATM   21  C   UNL     1      42.620  -5.897  10.415  1.00  0.00     0.152 C 
BRANCH  19  22
HETATM   22  C   UNL     1      41.978  -7.641  12.743  1.00  0.00     0.032 A 
HETATM   23  C   UNL     1      40.707  -7.268  13.176  1.00  0.00     0.019 A 
HETATM   24  C   UNL     1      40.530  -6.769  14.474  1.00  0.00     0.030 A 
HETATM   25  C   UNL     1      41.597  -6.660  15.385  1.00  0.00     0.029 A 
HETATM   26  C   UNL     1      42.864  -7.061  14.915  1.00  0.00     0.030 A 
HETATM   27  C   UNL     1      43.057  -7.556  13.620  1.00  0.00     0.019 A 
BRANCH  25  28
HETATM   28  N   UNL     1      41.438  -6.150  16.681  1.00  0.00    -0.390 N 
HETATM   29  C   UNL     1      42.101  -6.819  17.798  1.00  0.00     0.149 C 
HETATM   30  C   UNL     1      41.345  -4.692  16.800  1.00  0.00     0.149 C 
ENDBRANCH  25  28
ENDBRANCH  19  22
ENDBRANCH  17  18
ENDBRANCH  16  17
ENDBRANCH   1  16
BRANCH  12  31
HETATM   31  O   UNL     1      40.115 -15.950   3.176  1.00  0.00    -0.356 OA
HETATM   32  C   UNL     1      39.936 -15.163   2.006  1.00  0.00     0.210 C 
ENDBRANCH  12  31
TORSDOF 6
ENDMDL
MODEL 8
REMARK VINA RESULT:      -8.0      3.217     11.215
REMARK  6 active torsions:
REMARK  status: ('A' for Active; 'I' for Inactive)
REMARK    1  A    between atoms: N_2  and  C_3 
REMARK    2  A    between atoms: C_6  and  C_7 
REMARK       I    between atoms: C_7  and  N_8 
REMARK    3  A    between atoms: N_8  and  C_9 
REMARK    4  A    between atoms: C_9  and  C_10 
REMARK    5  A    between atoms: C_10  and  C_11 
REMARK    6  A    between atoms: C_22  and  O_23 
ROOT
HETATM    1  C   UNL     1      39.479 -12.045   4.004  1.00  0.00     0.158 A 
HETATM    2  N   UNL     1      39.092 -12.098   2.724  1.00  0.00    -0.111 NA
HETATM    3  O   UNL     1      39.723 -13.247   2.247  1.00  0.00    -0.189 OA
HETATM    4  C   UNL     1      40.421 -13.783   3.296  1.00  0.00     0.223 A 
HETATM    5  C   UNL     1      41.191 -14.978   3.210  1.00  0.00     0.089 A 
HETATM    6  N   UNL     1      41.918 -15.453   4.271  1.00  0.00    -0.352 N 
HETATM    7  H   UNL     1      41.970 -15.002   5.174  1.00  0.00     0.166 HD
HETATM    8  C   UNL     1      42.554 -16.625   3.930  1.00  0.00     0.045 A 
HETATM    9  C   UNL     1      42.224 -16.901   2.605  1.00  0.00    -0.007 A 
HETATM   10  C   UNL     1      41.370 -15.854   2.159  1.00  0.00     0.048 A 
HETATM   11  C   UNL     1      43.389 -17.458   4.686  1.00  0.00     0.067 A 
HETATM   12  C   UNL     1      43.900 -18.613   4.079  1.00  0.00     0.070 A 
HETATM   13  C   UNL     1      43.583 -18.907   2.753  1.00  0.00     0.038 A 
HETATM   14  C   UNL     1      42.749 -18.060   2.006  1.00  0.00     0.016 A 
HETATM   15  N   UNL     1      40.293 -13.077   4.402  1.00  0.00    -0.203 NA
ENDROOT
BRANCH   1  16
HETATM   16  C   UNL     1      38.996 -10.984   4.923  1.00  0.00     0.103 C 
BRANCH  16  17
HETATM   17  C   UNL     1      39.055 -11.393   6.396  1.00  0.00     0.133 C 
BRANCH  17  18
HETATM   18  N   UNL     1      39.635 -10.348   7.246  1.00  0.00    -0.352 N 
HETATM   19  C   UNL     1      39.137 -10.214   8.542  1.00  0.00     0.253 C 
HETATM   20  O   UNL     1      38.324 -10.999   9.027  1.00  0.00    -0.267 OA
HETATM   21  C   UNL     1      40.815  -9.662   6.733  1.00  0.00     0.152 C 
BRANCH  19  22
HETATM   22  C   UNL     1      39.589  -9.084   9.386  1.00  0.00     0.032 A 
HETATM   23  C   UNL     1      39.073  -7.801   9.218  1.00  0.00     0.019 A 
HETATM   24  C   UNL     1      39.508  -6.759  10.049  1.00  0.00     0.030 A 
HETATM   25  C   UNL     1      40.435  -6.968  11.087  1.00  0.00     0.029 A 
HETATM   26  C   UNL     1      40.923  -8.282  11.234  1.00  0.00     0.030 A 
HETATM   27  C   UNL     1      40.502  -9.331  10.408  1.00  0.00     0.019 A 
BRANCH  25  28
HETATM   28  N   UNL     1      40.890  -5.934  11.916  1.00  0.00    -0.390 N 
HETATM   29  C   UNL     1      41.764  -6.253  13.043  1.00  0.00     0.149 C 
HETATM   30  C   UNL     1      41.166  -4.650  11.265  1.00  0.00     0.149 C 
ENDBRANCH  25  28
ENDBRANCH  19  22
ENDBRANCH  17  18
ENDBRANCH  16  17
ENDBRANCH   1  16
BRANCH  12  31
HETATM   31  O   UNL     1      44.699 -19.367   4.896  1.00  0.00    -0.356 OA
HETATM   32  C   UNL     1      44.210 -20.648   5.271  1.00  0.00     0.210 C 
ENDBRANCH  12  31
TORSDOF 6
ENDMDL
MODEL 9
REMARK VINA RESULT:      -8.0      1.708      2.690
REMARK  6 active torsions:
REMARK  status: ('A' for Active; 'I' for Inactive)
REMARK    1  A    between atoms: N_2  and  C_3 
REMARK    2  A    between atoms: C_6  and  C_7 
REMARK       I    between atoms: C_7  and  N_8 
REMARK    3  A    between atoms: N_8  and  C_9 
REMARK    4  A    between atoms: C_9  and  C_10 
REMARK    5  A    between atoms: C_10  and  C_11 
REMARK    6  A    between atoms: C_22  and  O_23 
ROOT
HETATM    1  C   UNL     1      43.524 -10.216   8.667  1.00  0.00     0.158 A 
HETATM    2  N   UNL     1      44.227 -11.117   9.363  1.00  0.00    -0.111 NA
HETATM    3  O   UNL     1      43.924 -10.804  10.688  1.00  0.00    -0.189 OA
HETATM    4  C   UNL     1      43.053  -9.747  10.659  1.00  0.00     0.223 A 
HETATM    5  C   UNL     1      42.498  -9.143  11.824  1.00  0.00     0.089 A 
HETATM    6  N   UNL     1      41.670  -8.052  11.753  1.00  0.00    -0.352 N 
HETATM    7  H   UNL     1      41.399  -7.597  10.892  1.00  0.00     0.166 HD
HETATM    8  C   UNL     1      41.263  -7.677  13.012  1.00  0.00     0.045 A 
HETATM    9  C   UNL     1      41.857  -8.556  13.915  1.00  0.00    -0.007 A 
HETATM   10  C   UNL     1      42.638  -9.472  13.156  1.00  0.00     0.048 A 
HETATM   11  C   UNL     1      40.419  -6.636  13.422  1.00  0.00     0.067 A 
HETATM   12  C   UNL     1      40.164  -6.488  14.791  1.00  0.00     0.070 A 
HETATM   13  C   UNL     1      40.751  -7.356  15.712  1.00  0.00     0.038 A 
HETATM   14  C   UNL     1      41.598  -8.391  15.288  1.00  0.00     0.016 A 
HETATM   15  N   UNL     1      42.773  -9.356   9.432  1.00  0.00    -0.203 NA
ENDROOT
BRANCH   1  16
HETATM   16  C   UNL     1      43.514 -10.209   7.183  1.00  0.00     0.103 C 
BRANCH  16  17
HETATM   17  C   UNL     1      42.386 -11.053   6.585  1.00  0.00     0.133 C 
BRANCH  17  18
HETATM   18  N   UNL     1      42.864 -12.336   6.060  1.00  0.00    -0.352 N 
HETATM   19  C   UNL     1      41.926 -13.189   5.478  1.00  0.00     0.253 C 
HETATM   20  O   UNL     1      40.756 -12.861   5.290  1.00  0.00    -0.267 OA
HETATM   21  C   UNL     1      44.308 -12.534   6.017  1.00  0.00     0.152 C 
BRANCH  19  22
HETATM   22  C   UNL     1      42.334 -14.551   5.065  1.00  0.00     0.032 A 
HETATM   23  C   UNL     1      42.287 -15.624   5.953  1.00  0.00     0.019 A 
HETATM   24  C   UNL     1      42.659 -16.904   5.521  1.00  0.00     0.030 A 
HETATM   25  C   UNL     1      43.054 -17.161   4.195  1.00  0.00     0.029 A 
HETATM   26  C   UNL     1      43.075 -16.054   3.324  1.00  0.00     0.030 A 
HETATM   27  C   UNL     1      42.711 -14.768   3.742  1.00  0.00     0.019 A 
BRANCH  25  28
HETATM   28  N   UNL     1      43.443 -18.433   3.754  1.00  0.00    -0.390 N 
HETATM   29  C   UNL     1      43.468 -18.715   2.320  1.00  0.00     0.149 C 
HETATM   30  C   UNL     1      44.490 -19.101   4.532  1.00  0.00     0.149 C 
ENDBRANCH  25  28
ENDBRANCH  19  22
ENDBRANCH  17  18
ENDBRANCH  16  17
ENDBRANCH   1  16
BRANCH  12  31
HETATM   31  O   UNL     1      39.325  -5.449  15.095  1.00  0.00    -0.356 OA
HETATM   32  C   UNL     1      39.288  -5.026  16.451  1.00  0.00     0.210 C 
ENDBRANCH  12  31
TORSDOF 6
ENDMDL
MODEL 10
REMARK VINA RESULT:      -8.0     18.162     21.228
REMARK  6 active torsions:
REMARK  status: ('A' for Active; 'I' for Inactive)
REMARK    1  A    between atoms: N_2  and  C_3 
REMARK    2  A    between atoms: C_6  and  C_7 
REMARK       I    between atoms: C_7  and  N_8 
REMARK    3  A    between atoms: N_8  and  C_9 
REMARK    4  A    between atoms: C_9  and  C_10 
REMARK    5  A    between atoms: C_10  and  C_11 
REMARK    6  A    between atoms: C_22  and  O_23 
ROOT
HETATM    1  C   UNL     1      47.466 -29.383   2.773  1.00  0.00     0.158 A 
HETATM    2  N   UNL     1      47.725 -28.077   2.644  1.00  0.00    -0.111 NA
HETATM    3  O   UNL     1      47.303 -27.795   1.345  1.00  0.00    -0.189 OA
HETATM    4  C   UNL     1      46.817 -28.963   0.821  1.00  0.00     0.223 A 
HETATM    5  C   UNL     1      46.277 -29.081  -0.492  1.00  0.00     0.089 A 
HETATM    6  N   UNL     1      45.848 -30.282  -0.997  1.00  0.00    -0.352 N 
HETATM    7  H   UNL     1      45.885 -31.158  -0.494  1.00  0.00     0.166 HD
HETATM    8  C   UNL     1      45.359 -30.118  -2.273  1.00  0.00     0.045 A 
HETATM    9  C   UNL     1      45.487 -28.768  -2.591  1.00  0.00    -0.007 A 
HETATM   10  C   UNL     1      46.072 -28.124  -1.465  1.00  0.00     0.048 A 
HETATM   11  C   UNL     1      44.816 -31.052  -3.164  1.00  0.00     0.067 A 
HETATM   12  C   UNL     1      44.381 -30.600  -4.416  1.00  0.00     0.070 A 
HETATM   13  C   UNL     1      44.501 -29.253  -4.756  1.00  0.00     0.038 A 
HETATM   14  C   UNL     1      45.052 -28.328  -3.855  1.00  0.00     0.016 A 
HETATM   15  N   UNL     1      46.891 -29.968   1.671  1.00  0.00    -0.203 NA
ENDROOT
BRANCH   1  16
HETATM   16  C   UNL     1      47.721 -30.109   4.043  1.00  0.00     0.103 C 
BRANCH  16  17
HETATM   17  C   UNL     1      49.089 -30.792   4.081  1.00  0.00     0.133 C 
BRANCH  17  18
HETATM   18  N   UNL     1      49.503 -31.291   2.765  1.00  0.00    -0.352 N 
HETATM   19  C   UNL     1      50.483 -30.573   2.078  1.00  0.00     0.253 C 
HETATM   20  O   UNL     1      51.081 -29.621   2.575  1.00  0.00    -0.267 OA
HETATM   21  C   UNL     1      48.997 -32.600   2.367  1.00  0.00     0.152 C 
BRANCH  19  22
HETATM   22  C   UNL     1      50.829 -30.955   0.690  1.00  0.00     0.032 A 
HETATM   23  C   UNL     1      51.737 -31.978   0.423  1.00  0.00     0.019 A 
HETATM   24  C   UNL     1      52.025 -32.327  -0.904  1.00  0.00     0.030 A 
HETATM   25  C   UNL     1      51.399 -31.697  -1.995  1.00  0.00     0.029 A 
HETATM   26  C   UNL     1      50.477 -30.678  -1.685  1.00  0.00     0.030 A 
HETATM   27  C   UNL     1      50.183 -30.315  -0.365  1.00  0.00     0.019 A 
BRANCH  25  28
HETATM   28  N   UNL     1      51.688 -32.026  -3.327  1.00  0.00    -0.390 N 
HETATM   29  C   UNL     1      53.016 -32.533  -3.665  1.00  0.00     0.149 C 
HETATM   30  C   UNL     1      50.589 -32.601  -4.110  1.00  0.00     0.149 C 
ENDBRANCH  25  28
ENDBRANCH  19  22
ENDBRANCH  17  18
ENDBRANCH  16  17
ENDBRANCH   1  16
BRANCH  12  31
HETATM   31  O   UNL     1      43.860 -31.583  -5.216  1.00  0.00    -0.356 OA
HETATM   32  C   UNL     1      44.228 -32.922  -4.913  1.00  0.00     0.210 C 
ENDBRANCH  12  31
TORSDOF 6
ENDMDL
