MODEL 1
REMARK VINA RESULT:      -8.8      0.000      0.000
REMARK  7 active torsions:
REMARK  status: ('A' for Active; 'I' for Inactive)
REMARK    1  A    between atoms: C_2  and  O_3 
REMARK    2  A    between atoms: O_3  and  C_4 
REMARK    3  A    between atoms: C_5  and  O_6 
REMARK    4  A    between atoms: C_9  and  C_10 
REMARK    5  A    between atoms: C_14  and  C_15 
REMARK       I    between atoms: C_15  and  N_16 
REMARK    6  A    between atoms: N_16  and  N_17 
REMARK    7  A    between atoms: C_18  and  C_19 
ROOT
HETATM    1  C   UNL     1      43.877  -9.843  10.503  1.00  0.00     0.089 A 
HETATM    2  N   UNL     1      45.203  -9.707  10.351  1.00  0.00    -0.174 NA
HETATM    3  N   UNL     1      45.473 -10.262   9.162  1.00  0.00    -0.272 N 
HETATM    4  H   UNL     1      46.434 -10.277   8.829  1.00  0.00     0.189 HD
HETATM    5  C   UNL     1      44.379 -10.761   8.514  1.00  0.00     0.121 A 
HETATM    6  C   UNL     1      43.322 -10.500   9.365  1.00  0.00     0.071 A 
ENDROOT
BRANCH   5   7
HETATM    7  C   UNL     1      44.499 -11.397   7.226  1.00  0.00     0.289 C 
HETATM    8  N   UNL     1      43.403 -12.163   6.856  1.00  0.00    -0.242 N 
HETATM    9  H   UNL     1      42.604 -12.239   7.469  1.00  0.00     0.192 HD
HETATM   10  O   UNL     1      45.506 -11.250   6.538  1.00  0.00    -0.264 OA
BRANCH   8  11
HETATM   11  N   UNL     1      43.397 -12.832   5.663  1.00  0.00    -0.183 NA
HETATM   12  C   UNL     1      42.874 -14.014   5.687  1.00  0.00     0.152 C 
BRANCH  12  13
HETATM   13  C   UNL     1      42.824 -14.805   4.476  1.00  0.00     0.011 A 
HETATM   14  C   UNL     1      43.299 -16.146   4.294  1.00  0.00     0.004 A 
HETATM   15  C   UNL     1      43.046 -16.499   2.966  1.00  0.00     0.043 A 
HETATM   16  C   UNL     1      43.921 -17.095   5.133  1.00  0.00     0.014 A 
HETATM   17  C   UNL     1      43.384 -17.750   2.437  1.00  0.00     0.030 A 
HETATM   18  N   UNL     1      42.442 -15.419   2.366  1.00  0.00    -0.364 N 
HETATM   19  C   UNL     1      43.999 -18.671   3.290  1.00  0.00     0.002 A 
HETATM   20  C   UNL     1      44.265 -18.351   4.618  1.00  0.00     0.001 A 
HETATM   21  H   UNL     1      42.144 -15.389   1.400  1.00  0.00     0.165 HD
HETATM   22  C   UNL     1      42.304 -14.397   3.263  1.00  0.00     0.102 A 
ENDBRANCH  12  13
ENDBRANCH   8  11
ENDBRANCH   5   7
BRANCH   1  23
HETATM   23  C   UNL     1      43.186  -9.357  11.708  1.00  0.00    -0.003 A 
HETATM   24  C   UNL     1      42.007  -9.967  12.174  1.00  0.00     0.053 A 
HETATM   25  C   UNL     1      41.351  -9.507  13.327  1.00  0.00     0.102 A 
HETATM   26  C   UNL     1      41.903  -8.431  14.040  1.00  0.00     0.102 A 
HETATM   27  C   UNL     1      43.055  -7.799  13.568  1.00  0.00     0.040 A 
HETATM   28  C   UNL     1      43.695  -8.260  12.417  1.00  0.00     0.017 A 
BRANCH  25  29
HETATM   29  O   UNL     1      40.179 -10.036  13.802  1.00  0.00    -0.353 OA
HETATM   30  C   UNL     1      39.431 -10.887  12.944  1.00  0.00     0.210 C 
ENDBRANCH  25  29
BRANCH  26  31
HETATM   31  O   UNL     1      41.377  -7.866  15.173  1.00  0.00    -0.349 OA
BRANCH  31  32
HETATM   32  C   UNL     1      42.130  -6.775  15.709  1.00  0.00     0.171 C 
HETATM   33  C   UNL     1      41.969  -6.796  17.219  1.00  0.00     0.034 C 
ENDBRANCH  31  32
ENDBRANCH  26  31
ENDBRANCH   1  23
TORSDOF 7
ENDMDL
MODEL 2
REMARK VINA RESULT:      -8.4      1.979      2.602
REMARK  7 active torsions:
REMARK  status: ('A' for Active; 'I' for Inactive)
REMARK    1  A    between atoms: C_2  and  O_3 
REMARK    2  A    between atoms: O_3  and  C_4 
REMARK    3  A    between atoms: C_5  and  O_6 
REMARK    4  A    between atoms: C_9  and  C_10 
REMARK    5  A    between atoms: C_14  and  C_15 
REMARK       I    between atoms: C_15  and  N_16 
REMARK    6  A    between atoms: N_16  and  N_17 
REMARK    7  A    between atoms: C_18  and  C_19 
ROOT
HETATM    1  C   UNL     1      43.274  -8.936   9.712  1.00  0.00     0.089 A 
HETATM    2  N   UNL     1      42.928  -8.495   8.493  1.00  0.00    -0.174 NA
HETATM    3  N   UNL     1      43.325  -9.459   7.651  1.00  0.00    -0.272 N 
HETATM    4  H   UNL     1      43.167  -9.342   6.653  1.00  0.00     0.189 HD
HETATM    5  C   UNL     1      43.921 -10.526   8.261  1.00  0.00     0.121 A 
HETATM    6  C   UNL     1      43.899 -10.214   9.606  1.00  0.00     0.071 A 
ENDROOT
BRANCH   5   7
HETATM    7  C   UNL     1      44.410 -11.646   7.496  1.00  0.00     0.289 C 
HETATM    8  N   UNL     1      43.530 -12.715   7.411  1.00  0.00    -0.242 N 
HETATM    9  H   UNL     1      42.626 -12.669   7.860  1.00  0.00     0.192 HD
HETATM   10  O   UNL     1      45.523 -11.621   6.976  1.00  0.00    -0.264 OA
BRANCH   8  11
HETATM   11  N   UNL     1      43.879 -13.846   6.726  1.00  0.00    -0.183 NA
HETATM   12  C   UNL     1      43.033 -14.823   6.789  1.00  0.00     0.152 C 
BRANCH  12  13
HETATM   13  C   UNL     1      43.314 -16.065   6.103  1.00  0.00     0.011 A 
HETATM   14  C   UNL     1      43.272 -16.306   4.691  1.00  0.00     0.004 A 
HETATM   15  C   UNL     1      43.612 -17.646   4.487  1.00  0.00     0.043 A 
HETATM   16  C   UNL     1      42.977 -15.512   3.562  1.00  0.00     0.014 A 
HETATM   17  C   UNL     1      43.670 -18.229   3.216  1.00  0.00     0.030 A 
HETATM   18  N   UNL     1      43.851 -18.197   5.725  1.00  0.00    -0.364 N 
HETATM   19  C   UNL     1      43.373 -17.419   2.116  1.00  0.00     0.002 A 
HETATM   20  C   UNL     1      43.031 -16.080   2.284  1.00  0.00     0.001 A 
HETATM   21  H   UNL     1      44.118 -19.159   5.884  1.00  0.00     0.165 HD
HETATM   22  C   UNL     1      43.675 -17.257   6.701  1.00  0.00     0.102 A 
ENDBRANCH  12  13
ENDBRANCH   8  11
ENDBRANCH   5   7
BRANCH   1  23
HETATM   23  C   UNL     1      43.009  -8.142  10.922  1.00  0.00    -0.003 A 
HETATM   24  C   UNL     1      42.272  -6.945  10.866  1.00  0.00     0.053 A 
HETATM   25  C   UNL     1      42.012  -6.189  12.021  1.00  0.00     0.102 A 
HETATM   26  C   UNL     1      42.479  -6.660  13.259  1.00  0.00     0.102 A 
HETATM   27  C   UNL     1      43.238  -7.830  13.320  1.00  0.00     0.040 A 
HETATM   28  C   UNL     1      43.495  -8.568  12.165  1.00  0.00     0.017 A 
BRANCH  25  29
HETATM   29  O   UNL     1      41.338  -4.997  12.019  1.00  0.00    -0.353 OA
HETATM   30  C   UNL     1      39.923  -5.026  11.890  1.00  0.00     0.210 C 
ENDBRANCH  25  29
BRANCH  26  31
HETATM   31  O   UNL     1      42.314  -6.033  14.468  1.00  0.00    -0.349 OA
BRANCH  31  32
HETATM   32  C   UNL     1      42.279  -6.907  15.600  1.00  0.00     0.171 C 
HETATM   33  C   UNL     1      40.829  -7.054  16.028  1.00  0.00     0.034 C 
ENDBRANCH  31  32
ENDBRANCH  26  31
ENDBRANCH   1  23
TORSDOF 7
ENDMDL
MODEL 3
REMARK VINA RESULT:      -8.2      8.046     11.874
REMARK  7 active torsions:
REMARK  status: ('A' for Active; 'I' for Inactive)
REMARK    1  A    between atoms: C_2  and  O_3 
REMARK    2  A    between atoms: O_3  and  C_4 
REMARK    3  A    between atoms: C_5  and  O_6 
REMARK    4  A    between atoms: C_9  and  C_10 
REMARK    5  A    between atoms: C_14  and  C_15 
REMARK       I    between atoms: C_15  and  N_16 
REMARK    6  A    between atoms: N_16  and  N_17 
REMARK    7  A    between atoms: C_18  and  C_19 
ROOT
HETATM    1  C   UNL     1      41.384 -15.744   2.037  1.00  0.00     0.089 A 
HETATM    2  N   UNL     1      40.058 -15.829   2.225  1.00  0.00    -0.174 NA
HETATM    3  N   UNL     1      39.536 -14.877   1.440  1.00  0.00    -0.272 N 
HETATM    4  H   UNL     1      38.527 -14.750   1.420  1.00  0.00     0.189 HD
HETATM    5  C   UNL     1      40.461 -14.162   0.735  1.00  0.00     0.121 A 
HETATM    6  C   UNL     1      41.676 -14.707   1.102  1.00  0.00     0.071 A 
ENDROOT
BRANCH   5   7
HETATM    7  C   UNL     1      40.063 -13.096  -0.152  1.00  0.00     0.289 C 
HETATM    8  N   UNL     1      41.049 -12.685  -1.037  1.00  0.00    -0.242 N 
HETATM    9  H   UNL     1      41.958 -13.127  -1.031  1.00  0.00     0.192 HD
HETATM   10  O   UNL     1      38.935 -12.615  -0.098  1.00  0.00    -0.264 OA
BRANCH   8  11
HETATM   11  N   UNL     1      40.805 -11.671  -1.922  1.00  0.00    -0.183 NA
HETATM   12  C   UNL     1      41.463 -10.576  -1.714  1.00  0.00     0.152 C 
BRANCH  12  13
HETATM   13  C   UNL     1      41.270  -9.442  -2.592  1.00  0.00     0.011 A 
HETATM   14  C   UNL     1      41.911  -8.162  -2.510  1.00  0.00     0.004 A 
HETATM   15  C   UNL     1      41.417  -7.384  -3.560  1.00  0.00     0.043 A 
HETATM   16  C   UNL     1      42.864  -7.589  -1.642  1.00  0.00     0.014 A 
HETATM   17  C   UNL     1      41.828  -6.064  -3.784  1.00  0.00     0.030 A 
HETATM   18  N   UNL     1      40.515  -8.158  -4.252  1.00  0.00    -0.364 N 
HETATM   19  C   UNL     1      42.774  -5.522  -2.909  1.00  0.00     0.002 A 
HETATM   20  C   UNL     1      43.286  -6.271  -1.853  1.00  0.00     0.001 A 
HETATM   21  H   UNL     1      39.999  -7.852  -5.066  1.00  0.00     0.165 HD
HETATM   22  C   UNL     1      40.420  -9.396  -3.679  1.00  0.00     0.102 A 
ENDBRANCH  12  13
ENDBRANCH   8  11
ENDBRANCH   5   7
BRANCH   1  23
HETATM   23  C   UNL     1      42.321 -16.634   2.741  1.00  0.00    -0.003 A 
HETATM   24  C   UNL     1      42.934 -16.246   3.947  1.00  0.00     0.053 A 
HETATM   25  C   UNL     1      43.823 -17.097   4.623  1.00  0.00     0.102 A 
HETATM   26  C   UNL     1      44.080 -18.372   4.092  1.00  0.00     0.102 A 
HETATM   27  C   UNL     1      43.502 -18.753   2.880  1.00  0.00     0.040 A 
HETATM   28  C   UNL     1      42.625 -17.896   2.214  1.00  0.00     0.017 A 
BRANCH  25  29
HETATM   29  O   UNL     1      44.480 -16.756   5.776  1.00  0.00    -0.353 OA
HETATM   30  C   UNL     1      43.777 -16.859   7.005  1.00  0.00     0.210 C 
ENDBRANCH  25  29
BRANCH  26  31
HETATM   31  O   UNL     1      44.927 -19.308   4.629  1.00  0.00    -0.349 OA
BRANCH  31  32
HETATM   32  C   UNL     1      44.326 -20.574   4.910  1.00  0.00     0.171 C 
HETATM   33  C   UNL     1      43.518 -20.432   6.189  1.00  0.00     0.034 C 
ENDBRANCH  31  32
ENDBRANCH  26  31
ENDBRANCH   1  23
TORSDOF 7
ENDMDL
MODEL 4
REMARK VINA RESULT:      -8.2      1.649      2.085
REMARK  7 active torsions:
REMARK  status: ('A' for Active; 'I' for Inactive)
REMARK    1  A    between atoms: C_2  and  O_3 
REMARK    2  A    between atoms: O_3  and  C_4 
REMARK    3  A    between atoms: C_5  and  O_6 
REMARK    4  A    between atoms: C_9  and  C_10 
REMARK    5  A    between atoms: C_14  and  C_15 
REMARK       I    between atoms: C_15  and  N_16 
REMARK    6  A    between atoms: N_16  and  N_17 
REMARK    7  A    between atoms: C_18  and  C_19 
ROOT
HETATM    1  C   UNL     1      43.867  -9.467   9.071  1.00  0.00     0.089 A 
HETATM    2  N   UNL     1      45.012 -10.152   9.214  1.00  0.00    -0.174 NA
HETATM    3  N   UNL     1      45.101 -10.911   8.114  1.00  0.00    -0.272 N 
HETATM    4  H   UNL     1      45.901 -11.528   8.001  1.00  0.00     0.189 HD
HETATM    5  C   UNL     1      44.061 -10.758   7.241  1.00  0.00     0.121 A 
HETATM    6  C   UNL     1      43.242  -9.819   7.839  1.00  0.00     0.071 A 
ENDROOT
BRANCH   5   7
HETATM    7  C   UNL     1      44.002 -11.507   6.011  1.00  0.00     0.289 C 
HETATM    8  N   UNL     1      43.087 -12.550   6.015  1.00  0.00    -0.242 N 
HETATM    9  H   UNL     1      42.524 -12.733   6.834  1.00  0.00     0.192 HD
HETATM   10  O   UNL     1      44.719 -11.217   5.057  1.00  0.00    -0.264 OA
BRANCH   8  11
HETATM   11  N   UNL     1      42.944 -13.349   4.914  1.00  0.00    -0.183 NA
HETATM   12  C   UNL     1      42.840 -14.616   5.151  1.00  0.00     0.152 C 
BRANCH  12  13
HETATM   13  C   UNL     1      42.691 -15.546   4.052  1.00  0.00     0.011 A 
HETATM   14  C   UNL     1      43.230 -16.870   3.955  1.00  0.00     0.004 A 
HETATM   15  C   UNL     1      42.833 -17.391   2.721  1.00  0.00     0.043 A 
HETATM   16  C   UNL     1      44.020 -17.679   4.800  1.00  0.00     0.014 A 
HETATM   17  C   UNL     1      43.186 -18.675   2.291  1.00  0.00     0.030 A 
HETATM   18  N   UNL     1      42.083 -16.423   2.094  1.00  0.00    -0.364 N 
HETATM   19  C   UNL     1      43.969 -19.455   3.148  1.00  0.00     0.002 A 
HETATM   20  C   UNL     1      44.381 -18.966   4.384  1.00  0.00     0.001 A 
HETATM   21  H   UNL     1      41.662 -16.524   1.180  1.00  0.00     0.165 HD
HETATM   22  C   UNL     1      41.991 -15.312   2.885  1.00  0.00     0.102 A 
ENDBRANCH  12  13
ENDBRANCH   8  11
ENDBRANCH   5   7
BRANCH   1  23
HETATM   23  C   UNL     1      43.406  -8.515  10.094  1.00  0.00    -0.003 A 
HETATM   24  C   UNL     1      43.452  -8.832  11.464  1.00  0.00     0.053 A 
HETATM   25  C   UNL     1      43.018  -7.922  12.442  1.00  0.00     0.102 A 
HETATM   26  C   UNL     1      42.554  -6.660  12.037  1.00  0.00     0.102 A 
HETATM   27  C   UNL     1      42.475  -6.348  10.678  1.00  0.00     0.040 A 
HETATM   28  C   UNL     1      42.903  -7.263   9.716  1.00  0.00     0.017 A 
BRANCH  25  29
HETATM   29  O   UNL     1      43.001  -8.193  13.785  1.00  0.00    -0.353 OA
HETATM   30  C   UNL     1      41.897  -8.916  14.309  1.00  0.00     0.210 C 
ENDBRANCH  25  29
BRANCH  26  31
HETATM   31  O   UNL     1      42.091  -5.672  12.867  1.00  0.00    -0.349 OA
BRANCH  31  32
HETATM   32  C   UNL     1      40.746  -5.255  12.617  1.00  0.00     0.171 C 
HETATM   33  C   UNL     1      39.850  -5.939  13.636  1.00  0.00     0.034 C 
ENDBRANCH  31  32
ENDBRANCH  26  31
ENDBRANCH   1  23
TORSDOF 7
ENDMDL
MODEL 5
REMARK VINA RESULT:      -8.1      8.831     12.176
REMARK  7 active torsions:
REMARK  status: ('A' for Active; 'I' for Inactive)
REMARK    1  A    between atoms: C_2  and  O_3 
REMARK    2  A    between atoms: O_3  and  C_4 
REMARK    3  A    between atoms: C_5  and  O_6 
REMARK    4  A    between atoms: C_9  and  C_10 
REMARK    5  A    between atoms: C_14  and  C_15 
REMARK       I    between atoms: C_15  and  N_16 
REMARK    6  A    between atoms: N_16  and  N_17 
REMARK    7  A    between atoms: C_18  and  C_19 
ROOT
HETATM    1  C   UNL     1      41.106 -15.432   2.087  1.00  0.00     0.089 A 
HETATM    2  N   UNL     1      39.859 -15.097   2.452  1.00  0.00    -0.174 NA
HETATM    3  N   UNL     1      39.422 -14.282   1.483  1.00  0.00    -0.272 N 
HETATM    4  H   UNL     1      38.484 -13.894   1.548  1.00  0.00     0.189 HD
HETATM    5  C   UNL     1      40.328 -14.061   0.485  1.00  0.00     0.121 A 
HETATM    6  C   UNL     1      41.435 -14.801   0.851  1.00  0.00     0.071 A 
ENDROOT
BRANCH   5   7
HETATM    7  C   UNL     1      40.015 -13.201  -0.630  1.00  0.00     0.289 C 
HETATM    8  N   UNL     1      41.110 -12.551  -1.181  1.00  0.00    -0.242 N 
HETATM    9  H   UNL     1      42.035 -12.699  -0.802  1.00  0.00     0.192 HD
HETATM   10  O   UNL     1      38.861 -13.079  -1.033  1.00  0.00    -0.264 OA
BRANCH   8  11
HETATM   11  N   UNL     1      40.948 -11.694  -2.234  1.00  0.00    -0.183 NA
HETATM   12  C   UNL     1      41.354 -10.482  -2.038  1.00  0.00     0.152 C 
BRANCH  12  13
HETATM   13  C   UNL     1      41.221  -9.498  -3.091  1.00  0.00     0.011 A 
HETATM   14  C   UNL     1      41.752  -8.167  -3.108  1.00  0.00     0.004 A 
HETATM   15  C   UNL     1      41.372  -7.583  -4.319  1.00  0.00     0.043 A 
HETATM   16  C   UNL     1      42.520  -7.399  -2.207  1.00  0.00     0.014 A 
HETATM   17  C   UNL     1      41.721  -6.275  -4.673  1.00  0.00     0.030 A 
HETATM   18  N   UNL     1      40.641  -8.521  -5.011  1.00  0.00    -0.364 N 
HETATM   19  C   UNL     1      42.483  -5.537  -3.762  1.00  0.00     0.002 A 
HETATM   20  C   UNL     1      42.878  -6.089  -2.546  1.00  0.00     0.001 A 
HETATM   21  H   UNL     1      40.236  -8.375  -5.926  1.00  0.00     0.165 HD
HETATM   22  C   UNL     1      40.545  -9.674  -4.283  1.00  0.00     0.102 A 
ENDBRANCH  12  13
ENDBRANCH   8  11
ENDBRANCH   5   7
BRANCH   1  23
HETATM   23  C   UNL     1      41.937 -16.324   2.910  1.00  0.00    -0.003 A 
HETATM   24  C   UNL     1      42.705 -17.351   2.332  1.00  0.00     0.053 A 
HETATM   25  C   UNL     1      43.503 -18.200   3.117  1.00  0.00     0.102 A 
HETATM   26  C   UNL     1      43.551 -17.995   4.506  1.00  0.00     0.102 A 
HETATM   27  C   UNL     1      42.767 -17.000   5.092  1.00  0.00     0.040 A 
HETATM   28  C   UNL     1      41.973 -16.167   4.303  1.00  0.00     0.017 A 
BRANCH  25  29
HETATM   29  O   UNL     1      44.238 -19.241   2.612  1.00  0.00    -0.353 OA
HETATM   30  C   UNL     1      43.547 -20.289   1.949  1.00  0.00     0.210 C 
ENDBRANCH  25  29
BRANCH  26  31
HETATM   31  O   UNL     1      44.272 -18.743   5.401  1.00  0.00    -0.349 OA
BRANCH  31  32
HETATM   32  C   UNL     1      43.525 -19.756   6.080  1.00  0.00     0.171 C 
HETATM   33  C   UNL     1      43.911 -21.097   5.482  1.00  0.00     0.034 C 
ENDBRANCH  31  32
ENDBRANCH  26  31
ENDBRANCH   1  23
TORSDOF 7
ENDMDL
MODEL 6
REMARK VINA RESULT:      -8.1      2.875     11.506
REMARK  7 active torsions:
REMARK  status: ('A' for Active; 'I' for Inactive)
REMARK    1  A    between atoms: C_2  and  O_3 
REMARK    2  A    between atoms: O_3  and  C_4 
REMARK    3  A    between atoms: C_5  and  O_6 
REMARK    4  A    between atoms: C_9  and  C_10 
REMARK    5  A    between atoms: C_14  and  C_15 
REMARK       I    between atoms: C_15  and  N_16 
REMARK    6  A    between atoms: N_16  and  N_17 
REMARK    7  A    between atoms: C_18  and  C_19 
ROOT
HETATM    1  C   UNL     1      42.967 -13.551   5.200  1.00  0.00     0.089 A 
HETATM    2  N   UNL     1      42.541 -12.377   4.709  1.00  0.00    -0.174 NA
HETATM    3  N   UNL     1      42.826 -11.480   5.662  1.00  0.00    -0.272 N 
HETATM    4  H   UNL     1      42.587 -10.503   5.511  1.00  0.00     0.189 HD
HETATM    5  C   UNL     1      43.426 -12.009   6.769  1.00  0.00     0.121 A 
HETATM    6  C   UNL     1      43.534 -13.359   6.494  1.00  0.00     0.071 A 
ENDROOT
BRANCH   5   7
HETATM    7  C   UNL     1      43.792 -11.178   7.890  1.00  0.00     0.289 C 
HETATM    8  N   UNL     1      42.782 -10.341   8.340  1.00  0.00    -0.242 N 
HETATM    9  H   UNL     1      41.876 -10.347   7.892  1.00  0.00     0.192 HD
HETATM   10  O   UNL     1      44.917 -11.235   8.380  1.00  0.00    -0.264 OA
BRANCH   8  11
HETATM   11  N   UNL     1      43.004  -9.490   9.388  1.00  0.00    -0.183 NA
HETATM   12  C   UNL     1      42.108  -8.575   9.566  1.00  0.00     0.152 C 
BRANCH  12  13
HETATM   13  C   UNL     1      42.255  -7.622  10.645  1.00  0.00     0.011 A 
HETATM   14  C   UNL     1      42.255  -7.896  12.052  1.00  0.00     0.004 A 
HETATM   15  C   UNL     1      42.422  -6.677  12.712  1.00  0.00     0.043 A 
HETATM   16  C   UNL     1      42.129  -9.067  12.829  1.00  0.00     0.014 A 
HETATM   17  C   UNL     1      42.468  -6.570  14.107  1.00  0.00     0.030 A 
HETATM   18  N   UNL     1      42.519  -5.701  11.747  1.00  0.00    -0.364 N 
HETATM   19  C   UNL     1      42.340  -7.746  14.853  1.00  0.00     0.002 A 
HETATM   20  C   UNL     1      42.173  -8.977  14.225  1.00  0.00     0.001 A 
HETATM   21  H   UNL     1      42.646  -4.716  11.936  1.00  0.00     0.165 HD
HETATM   22  C   UNL     1      42.421  -6.258  10.503  1.00  0.00     0.102 A 
ENDBRANCH  12  13
ENDBRANCH   8  11
ENDBRANCH   5   7
BRANCH   1  23
HETATM   23  C   UNL     1      42.823 -14.802   4.439  1.00  0.00    -0.003 A 
HETATM   24  C   UNL     1      41.873 -14.928   3.408  1.00  0.00     0.053 A 
HETATM   25  C   UNL     1      41.739 -16.119   2.677  1.00  0.00     0.102 A 
HETATM   26  C   UNL     1      42.593 -17.195   2.968  1.00  0.00     0.102 A 
HETATM   27  C   UNL     1      43.517 -17.091   4.009  1.00  0.00     0.040 A 
HETATM   28  C   UNL     1      43.636 -15.904   4.734  1.00  0.00     0.017 A 
BRANCH  25  29
HETATM   29  O   UNL     1      40.804 -16.311   1.693  1.00  0.00    -0.353 OA
HETATM   30  C   UNL     1      40.193 -15.166   1.116  1.00  0.00     0.210 C 
ENDBRANCH  25  29
BRANCH  26  31
HETATM   31  O   UNL     1      42.578 -18.420   2.351  1.00  0.00    -0.349 OA
BRANCH  31  32
HETATM   32  C   UNL     1      43.718 -19.242   2.615  1.00  0.00     0.171 C 
HETATM   33  C   UNL     1      43.585 -20.503   1.780  1.00  0.00     0.034 C 
ENDBRANCH  31  32
ENDBRANCH  26  31
ENDBRANCH   1  23
TORSDOF 7
ENDMDL
MODEL 7
REMARK VINA RESULT:      -8.1      1.763      2.526
REMARK  7 active torsions:
REMARK  status: ('A' for Active; 'I' for Inactive)
REMARK    1  A    between atoms: C_2  and  O_3 
REMARK    2  A    between atoms: O_3  and  C_4 
REMARK    3  A    between atoms: C_5  and  O_6 
REMARK    4  A    between atoms: C_9  and  C_10 
REMARK    5  A    between atoms: C_14  and  C_15 
REMARK       I    between atoms: C_15  and  N_16 
REMARK    6  A    between atoms: N_16  and  N_17 
REMARK    7  A    between atoms: C_18  and  C_19 
ROOT
HETATM    1  C   UNL     1      43.846  -9.171  10.183  1.00  0.00     0.089 A 
HETATM    2  N   UNL     1      45.105  -9.537  10.466  1.00  0.00    -0.174 NA
HETATM    3  N   UNL     1      45.443 -10.396   9.495  1.00  0.00    -0.272 N 
HETATM    4  H   UNL     1      46.370 -10.814   9.503  1.00  0.00     0.189 HD
HETATM    5  C   UNL     1      44.458 -10.616   8.573  1.00  0.00     0.121 A 
HETATM    6  C   UNL     1      43.406  -9.827   8.995  1.00  0.00     0.071 A 
ENDROOT
BRANCH   5   7
HETATM    7  C   UNL     1      44.659 -11.519   7.467  1.00  0.00     0.289 C 
HETATM    8  N   UNL     1      43.798 -12.606   7.448  1.00  0.00    -0.242 N 
HETATM    9  H   UNL     1      43.098 -12.716   8.168  1.00  0.00     0.192 HD
HETATM   10  O   UNL     1      45.532 -11.310   6.629  1.00  0.00    -0.264 OA
BRANCH   8  11
HETATM   11  N   UNL     1      43.893 -13.547   6.459  1.00  0.00    -0.183 NA
HETATM   12  C   UNL     1      43.204 -14.625   6.643  1.00  0.00     0.152 C 
BRANCH  12  13
HETATM   13  C   UNL     1      43.242 -15.683   5.657  1.00  0.00     0.011 A 
HETATM   14  C   UNL     1      43.167 -15.545   4.232  1.00  0.00     0.004 A 
HETATM   15  C   UNL     1      43.239 -16.829   3.686  1.00  0.00     0.043 A 
HETATM   16  C   UNL     1      43.042 -14.449   3.352  1.00  0.00     0.014 A 
HETATM   17  C   UNL     1      43.193 -17.071   2.308  1.00  0.00     0.030 A 
HETATM   18  N   UNL     1      43.355 -17.711   4.736  1.00  0.00    -0.364 N 
HETATM   19  C   UNL     1      43.070 -15.967   1.459  1.00  0.00     0.002 A 
HETATM   20  C   UNL     1      42.996 -14.675   1.971  1.00  0.00     0.001 A 
HETATM   21  H   UNL     1      43.427 -18.715   4.638  1.00  0.00     0.165 HD
HETATM   22  C   UNL     1      43.358 -17.033   5.923  1.00  0.00     0.102 A 
ENDBRANCH  12  13
ENDBRANCH   8  11
ENDBRANCH   5   7
BRANCH   1  23
HETATM   23  C   UNL     1      43.108  -8.226  11.035  1.00  0.00    -0.003 A 
HETATM   24  C   UNL     1      43.190  -8.287  12.439  1.00  0.00     0.053 A 
HETATM   25  C   UNL     1      42.491  -7.381  13.254  1.00  0.00     0.102 A 
HETATM   26  C   UNL     1      41.717  -6.379  12.646  1.00  0.00     0.102 A 
HETATM   27  C   UNL     1      41.604  -6.330  11.256  1.00  0.00     0.040 A 
HETATM   28  C   UNL     1      42.298  -7.239  10.457  1.00  0.00     0.017 A 
BRANCH  25  29
HETATM   29  O   UNL     1      42.500  -7.421  14.623  1.00  0.00    -0.353 OA
HETATM   30  C   UNL     1      41.595  -8.301  15.275  1.00  0.00     0.210 C 
ENDBRANCH  25  29
BRANCH  26  31
HETATM   31  O   UNL     1      40.974  -5.432  13.304  1.00  0.00    -0.349 OA
BRANCH  31  32
HETATM   32  C   UNL     1      39.595  -5.382  12.930  1.00  0.00     0.171 C 
HETATM   33  C   UNL     1      38.816  -6.248  13.906  1.00  0.00     0.034 C 
ENDBRANCH  31  32
ENDBRANCH  26  31
ENDBRANCH   1  23
TORSDOF 7
ENDMDL
MODEL 8
REMARK VINA RESULT:      -8.0      8.760     12.804
REMARK  7 active torsions:
REMARK  status: ('A' for Active; 'I' for Inactive)
REMARK    1  A    between atoms: C_2  and  O_3 
REMARK    2  A    between atoms: O_3  and  C_4 
REMARK    3  A    between atoms: C_5  and  O_6 
REMARK    4  A    between atoms: C_9  and  C_10 
REMARK    5  A    between atoms: C_14  and  C_15 
REMARK       I    between atoms: C_15  and  N_16 
REMARK    6  A    between atoms: N_16  and  N_17 
REMARK    7  A    between atoms: C_18  and  C_19 
ROOT
HETATM    1  C   UNL     1      40.201 -11.700  -2.404  1.00  0.00     0.089 A 
HETATM    2  N   UNL     1      40.595 -12.860  -2.954  1.00  0.00    -0.174 NA
HETATM    3  N   UNL     1      40.739 -13.701  -1.921  1.00  0.00    -0.272 N 
HETATM    4  H   UNL     1      41.040 -14.656  -2.098  1.00  0.00     0.189 HD
HETATM    5  C   UNL     1      40.456 -13.148  -0.704  1.00  0.00     0.121 A 
HETATM    6  C   UNL     1      40.099 -11.845  -0.989  1.00  0.00     0.071 A 
ENDROOT
BRANCH   5   7
HETATM    7  C   UNL     1      40.569 -13.918   0.510  1.00  0.00     0.289 C 
HETATM    8  N   UNL     1      41.579 -14.868   0.498  1.00  0.00    -0.242 N 
HETATM    9  H   UNL     1      42.169 -14.977  -0.315  1.00  0.00     0.192 HD
HETATM   10  O   UNL     1      39.813 -13.721   1.458  1.00  0.00    -0.264 OA
BRANCH   8  11
HETATM   11  N   UNL     1      41.782 -15.676   1.583  1.00  0.00    -0.183 NA
HETATM   12  C   UNL     1      43.018 -15.901   1.890  1.00  0.00     0.152 C 
BRANCH  12  13
HETATM   13  C   UNL     1      43.338 -16.749   3.019  1.00  0.00     0.011 A 
HETATM   14  C   UNL     1      43.488 -18.174   3.020  1.00  0.00     0.004 A 
HETATM   15  C   UNL     1      43.792 -18.558   4.328  1.00  0.00     0.043 A 
HETATM   16  C   UNL     1      43.392 -19.177   2.032  1.00  0.00     0.014 A 
HETATM   17  C   UNL     1      44.005 -19.892   4.697  1.00  0.00     0.030 A 
HETATM   18  N   UNL     1      43.827 -17.414   5.091  1.00  0.00    -0.364 N 
HETATM   19  C   UNL     1      43.904 -20.865   3.698  1.00  0.00     0.002 A 
HETATM   20  C   UNL     1      43.603 -20.516   2.385  1.00  0.00     0.001 A 
HETATM   21  H   UNL     1      44.025 -17.389   6.082  1.00  0.00     0.165 HD
HETATM   22  C   UNL     1      43.556 -16.322   4.314  1.00  0.00     0.102 A 
ENDBRANCH  12  13
ENDBRANCH   8  11
ENDBRANCH   5   7
BRANCH   1  23
HETATM   23  C   UNL     1      39.940 -10.508  -3.226  1.00  0.00    -0.003 A 
HETATM   24  C   UNL     1      40.984  -9.662  -3.643  1.00  0.00     0.053 A 
HETATM   25  C   UNL     1      40.736  -8.527  -4.432  1.00  0.00     0.102 A 
HETATM   26  C   UNL     1      39.419  -8.252  -4.832  1.00  0.00     0.102 A 
HETATM   27  C   UNL     1      38.373  -9.068  -4.398  1.00  0.00     0.040 A 
HETATM   28  C   UNL     1      38.630 -10.189  -3.608  1.00  0.00     0.017 A 
BRANCH  25  29
HETATM   29  O   UNL     1      41.708  -7.647  -4.830  1.00  0.00    -0.353 OA
HETATM   30  C   UNL     1      42.479  -7.000  -3.828  1.00  0.00     0.210 C 
ENDBRANCH  25  29
BRANCH  26  31
HETATM   31  O   UNL     1      39.019  -7.183  -5.592  1.00  0.00    -0.349 OA
BRANCH  31  32
HETATM   32  C   UNL     1      38.506  -6.074  -4.849  1.00  0.00     0.171 C 
HETATM   33  C   UNL     1      39.446  -4.899  -5.059  1.00  0.00     0.034 C 
ENDBRANCH  31  32
ENDBRANCH  26  31
ENDBRANCH   1  23
TORSDOF 7
ENDMDL
MODEL 9
REMARK VINA RESULT:      -7.8      8.776     12.545
REMARK  7 active torsions:
REMARK  status: ('A' for Active; 'I' for Inactive)
REMARK    1  A    between atoms: C_2  and  O_3 
REMARK    2  A    between atoms: O_3  and  C_4 
REMARK    3  A    between atoms: C_5  and  O_6 
REMARK    4  A    between atoms: C_9  and  C_10 
REMARK    5  A    between atoms: C_14  and  C_15 
REMARK       I    between atoms: C_15  and  N_16 
REMARK    6  A    between atoms: N_16  and  N_17 
REMARK    7  A    between atoms: C_18  and  C_19 
ROOT
HETATM    1  C   UNL     1      40.968 -15.376   1.977  1.00  0.00     0.089 A 
HETATM    2  N   UNL     1      39.876 -14.779   2.478  1.00  0.00    -0.174 NA
HETATM    3  N   UNL     1      39.361 -14.084   1.455  1.00  0.00    -0.272 N 
HETATM    4  H   UNL     1      38.515 -13.539   1.601  1.00  0.00     0.189 HD
HETATM    5  C   UNL     1      40.067 -14.196   0.290  1.00  0.00     0.121 A 
HETATM    6  C   UNL     1      41.119 -15.035   0.600  1.00  0.00     0.071 A 
ENDROOT
BRANCH   5   7
HETATM    7  C   UNL     1      39.649 -13.504  -0.905  1.00  0.00     0.289 C 
HETATM    8  N   UNL     1      38.433 -12.846  -0.794  1.00  0.00    -0.242 N 
HETATM    9  H   UNL     1      37.916 -12.871   0.073  1.00  0.00     0.192 HD
HETATM   10  O   UNL     1      40.341 -13.519  -1.920  1.00  0.00    -0.264 OA
BRANCH   8  11
HETATM   11  N   UNL     1      37.917 -12.164  -1.862  1.00  0.00    -0.183 NA
HETATM   12  C   UNL     1      37.257 -11.089  -1.573  1.00  0.00     0.152 C 
BRANCH  12  13
HETATM   13  C   UNL     1      36.666 -10.300  -2.633  1.00  0.00     0.011 A 
HETATM   14  C   UNL     1      35.680 -10.722  -3.583  1.00  0.00     0.004 A 
HETATM   15  C   UNL     1      35.411  -9.632  -4.414  1.00  0.00     0.043 A 
HETATM   16  C   UNL     1      34.988 -11.930  -3.818  1.00  0.00     0.014 A 
HETATM   17  C   UNL     1      34.488  -9.689  -5.465  1.00  0.00     0.030 A 
HETATM   18  N   UNL     1      36.201  -8.590  -3.987  1.00  0.00    -0.364 N 
HETATM   19  C   UNL     1      33.817 -10.897  -5.675  1.00  0.00     0.002 A 
HETATM   20  C   UNL     1      34.061 -12.002  -4.865  1.00  0.00     0.001 A 
HETATM   21  H   UNL     1      36.216  -7.670  -4.406  1.00  0.00     0.165 HD
HETATM   22  C   UNL     1      36.958  -8.981  -2.917  1.00  0.00     0.102 A 
ENDBRANCH  12  13
ENDBRANCH   8  11
ENDBRANCH   5   7
BRANCH   1  23
HETATM   23  C   UNL     1      41.825 -16.237   2.807  1.00  0.00    -0.003 A 
HETATM   24  C   UNL     1      42.573 -17.288   2.245  1.00  0.00     0.053 A 
HETATM   25  C   UNL     1      43.396 -18.107   3.036  1.00  0.00     0.102 A 
HETATM   26  C   UNL     1      43.489 -17.848   4.413  1.00  0.00     0.102 A 
HETATM   27  C   UNL     1      42.726 -16.828   4.985  1.00  0.00     0.040 A 
HETATM   28  C   UNL     1      41.907 -16.026   4.190  1.00  0.00     0.017 A 
BRANCH  25  29
HETATM   29  O   UNL     1      44.112 -19.168   2.549  1.00  0.00    -0.353 OA
HETATM   30  C   UNL     1      43.400 -20.232   1.933  1.00  0.00     0.210 C 
ENDBRANCH  25  29
BRANCH  26  31
HETATM   31  O   UNL     1      44.239 -18.561   5.314  1.00  0.00    -0.349 OA
BRANCH  31  32
HETATM   32  C   UNL     1      43.542 -19.622   5.972  1.00  0.00     0.171 C 
HETATM   33  C   UNL     1      44.136 -20.935   5.492  1.00  0.00     0.034 C 
ENDBRANCH  31  32
ENDBRANCH  26  31
ENDBRANCH   1  23
TORSDOF 7
ENDMDL
MODEL 10
REMARK VINA RESULT:      -7.6      1.628      1.745
REMARK  7 active torsions:
REMARK  status: ('A' for Active; 'I' for Inactive)
REMARK    1  A    between atoms: C_2  and  O_3 
REMARK    2  A    between atoms: O_3  and  C_4 
REMARK    3  A    between atoms: C_5  and  O_6 
REMARK    4  A    between atoms: C_9  and  C_10 
REMARK    5  A    between atoms: C_14  and  C_15 
REMARK       I    between atoms: C_15  and  N_16 
REMARK    6  A    between atoms: N_16  and  N_17 
REMARK    7  A    between atoms: C_18  and  C_19 
ROOT
HETATM    1  C   UNL     1      43.252  -8.802  10.215  1.00  0.00     0.089 A 
HETATM    2  N   UNL     1      44.086  -8.188   9.361  1.00  0.00    -0.174 NA
HETATM    3  N   UNL     1      44.333  -9.095   8.407  1.00  0.00    -0.272 N 
HETATM    4  H   UNL     1      44.954  -8.850   7.639  1.00  0.00     0.189 HD
HETATM    5  C   UNL     1      43.697 -10.290   8.589  1.00  0.00     0.121 A 
HETATM    6  C   UNL     1      42.981 -10.127   9.760  1.00  0.00     0.071 A 
ENDROOT
BRANCH   5   7
HETATM    7  C   UNL     1      43.863 -11.375   7.655  1.00  0.00     0.289 C 
HETATM    8  N   UNL     1      42.711 -11.721   6.962  1.00  0.00    -0.242 N 
HETATM    9  H   UNL     1      41.847 -11.223   7.128  1.00  0.00     0.192 HD
HETATM   10  O   UNL     1      44.951 -11.926   7.509  1.00  0.00    -0.264 OA
BRANCH   8  11
HETATM   11  N   UNL     1      42.729 -12.745   6.056  1.00  0.00    -0.183 NA
HETATM   12  C   UNL     1      42.803 -12.393   4.814  1.00  0.00     0.152 C 
BRANCH  12  13
HETATM   13  C   UNL     1      42.823 -13.403   3.778  1.00  0.00     0.011 A 
HETATM   14  C   UNL     1      43.039 -14.810   3.941  1.00  0.00     0.004 A 
HETATM   15  C   UNL     1      42.975 -15.391   2.672  1.00  0.00     0.043 A 
HETATM   16  C   UNL     1      43.284 -15.649   5.050  1.00  0.00     0.014 A 
HETATM   17  C   UNL     1      43.144 -16.763   2.456  1.00  0.00     0.030 A 
HETATM   18  N   UNL     1      42.730 -14.378   1.774  1.00  0.00    -0.364 N 
HETATM   19  C   UNL     1      43.385 -17.571   3.572  1.00  0.00     0.002 A 
HETATM   20  C   UNL     1      43.454 -17.025   4.850  1.00  0.00     0.001 A 
HETATM   21  H   UNL     1      42.633 -14.505   0.776  1.00  0.00     0.165 HD
HETATM   22  C   UNL     1      42.637 -13.181   2.428  1.00  0.00     0.102 A 
ENDBRANCH  12  13
ENDBRANCH   8  11
ENDBRANCH   5   7
BRANCH   1  23
HETATM   23  C   UNL     1      42.748  -8.125  11.419  1.00  0.00    -0.003 A 
HETATM   24  C   UNL     1      41.493  -7.488  11.431  1.00  0.00     0.053 A 
HETATM   25  C   UNL     1      41.008  -6.847  12.583  1.00  0.00     0.102 A 
HETATM   26  C   UNL     1      41.786  -6.870  13.752  1.00  0.00     0.102 A 
HETATM   27  C   UNL     1      43.045  -7.472  13.741  1.00  0.00     0.040 A 
HETATM   28  C   UNL     1      43.520  -8.100  12.589  1.00  0.00     0.017 A 
BRANCH  25  29
HETATM   29  O   UNL     1      39.815  -6.176  12.638  1.00  0.00    -0.353 OA
HETATM   30  C   UNL     1      38.630  -6.929  12.851  1.00  0.00     0.210 C 
ENDBRANCH  25  29
BRANCH  26  31
HETATM   31  O   UNL     1      41.454  -6.284  14.947  1.00  0.00    -0.349 OA
BRANCH  31  32
HETATM   32  C   UNL     1      42.063  -6.875  16.098  1.00  0.00     0.171 C 
HETATM   33  C   UNL     1      41.017  -7.737  16.785  1.00  0.00     0.034 C 
ENDBRANCH  31  32
ENDBRANCH  26  31
ENDBRANCH   1  23
TORSDOF 7
ENDMDL
