MODEL 1
REMARK VINA RESULT:      -8.3      0.000      0.000
REMARK  11 active torsions:
REMARK  status: ('A' for Active; 'I' for Inactive)
REMARK    1  A    between atoms: N_13  and  C_14 
REMARK    2  A    between atoms: C_14  and  C_15 
REMARK    3  A    between atoms: N_20  and  C_21 
REMARK    4  A    between atoms: C_21  and  C_22 
REMARK    5  A    between atoms: C_22  and  O_23 
REMARK    6  A    between atoms: C_22  and  C_24 
REMARK    7  A    between atoms: C_24  and  N_25 
REMARK    8  A    between atoms: N_25  and  C_27 
REMARK    9  A    between atoms: N_25  and  C_34 
REMARK   10  A    between atoms: C_27  and  C_28 
REMARK   11  A    between atoms: C_34  and  C_35 
ROOT
HETATM    1  C   UNL     1      45.573 -10.497   8.549  1.00  0.00     0.163 C 
HETATM    2  N   UNL     1      44.699 -10.626   7.394  1.00  0.00    -0.285 N 
HETATM    3  C   UNL     1      45.187 -11.144   6.193  1.00  0.00     0.332 A 
HETATM    4  O   UNL     1      46.363 -11.497   6.068  1.00  0.00    -0.246 OA
HETATM    5  N   UNL     1      44.272 -11.252   5.125  1.00  0.00    -0.269 N 
HETATM    6  C   UNL     1      44.753 -11.789   3.865  1.00  0.00     0.164 C 
HETATM    7  C   UNL     1      42.926 -10.885   5.172  1.00  0.00     0.282 A 
HETATM    8  O   UNL     1      42.137 -11.012   4.238  1.00  0.00    -0.265 OA
HETATM    9  C   UNL     1      42.526 -10.364   6.431  1.00  0.00     0.166 A 
HETATM   10  C   UNL     1      43.383 -10.242   7.479  1.00  0.00     0.186 A 
HETATM   11  N   UNL     1      42.767  -9.729   8.575  1.00  0.00    -0.044 NA
HETATM   12  C   UNL     1      41.523  -9.513   8.209  1.00  0.00     0.705 A 
HETATM   13  N   UNL     1      40.536  -8.997   8.963  1.00  0.00    -0.218 N 
HETATM   14  N   UNL     1      41.315  -9.930   6.907  1.00  0.00    -0.170 N 
HETATM   15  H   UNL     1      39.713  -8.561   8.559  1.00  0.00     0.178 HD
ENDROOT
BRANCH  14  16
HETATM   16  C   UNL     1      40.041  -9.995   6.202  1.00  0.00     0.181 C 
BRANCH  16  17
HETATM   17  C   UNL     1      39.351 -11.358   6.369  1.00  0.00     0.163 C 
BRANCH  17  18
HETATM   18  O   UNL     1      38.003 -11.181   6.830  1.00  0.00    -0.392 OA
HETATM   19  H   UNL     1      37.704 -11.972   7.321  1.00  0.00     0.210 HD
ENDBRANCH  17  18
BRANCH  17  20
HETATM   20  C   UNL     1      39.222 -12.161   5.054  1.00  0.00     0.268 C 
BRANCH  20  21
HETATM   21  N   UNL     1      40.154 -13.338   4.856  1.00  0.00    -0.061 N 
HETATM   22  H   UNL     1      41.100 -12.966   4.731  1.00  0.00     0.280 HD
BRANCH  21  23
HETATM   23  C   UNL     1      40.235 -14.312   6.019  1.00  0.00     0.273 C 
BRANCH  23  24
HETATM   24  C   UNL     1      41.565 -14.980   6.245  1.00  0.00    -0.033 A 
HETATM   25  C   UNL     1      41.653 -16.374   6.385  1.00  0.00     0.009 A 
HETATM   26  C   UNL     1      42.885 -16.990   6.612  1.00  0.00     0.001 A 
HETATM   27  C   UNL     1      44.044 -16.224   6.691  1.00  0.00     0.000 A 
HETATM   28  C   UNL     1      43.976 -14.843   6.531  1.00  0.00     0.001 A 
HETATM   29  C   UNL     1      42.746 -14.224   6.304  1.00  0.00     0.009 A 
ENDBRANCH  23  24
ENDBRANCH  21  23
BRANCH  21  30
HETATM   30  C   UNL     1      39.856 -14.067   3.552  1.00  0.00     0.273 C 
BRANCH  30  31
HETATM   31  C   UNL     1      41.030 -14.834   3.002  1.00  0.00    -0.033 A 
HETATM   32  C   UNL     1      40.973 -16.227   2.842  1.00  0.00     0.009 A 
HETATM   33  C   UNL     1      42.080 -16.924   2.354  1.00  0.00     0.001 A 
HETATM   34  C   UNL     1      43.248 -16.242   2.021  1.00  0.00     0.000 A 
HETATM   35  C   UNL     1      43.314 -14.859   2.170  1.00  0.00     0.001 A 
HETATM   36  C   UNL     1      42.211 -14.157   2.655  1.00  0.00     0.009 A 
ENDBRANCH  30  31
ENDBRANCH  21  30
ENDBRANCH  20  21
ENDBRANCH  17  20
ENDBRANCH  16  17
ENDBRANCH  14  16
BRANCH  13  37
HETATM   37  C   UNL     1      40.903  -8.314  10.204  1.00  0.00     0.203 C 
BRANCH  37  38
HETATM   38  C   UNL     1      40.530  -9.081  11.434  1.00  0.00     0.070 A 
HETATM   39  O   UNL     1      41.147  -8.723  12.604  1.00  0.00    -0.325 OA
HETATM   40  C   UNL     1      40.676  -9.554  13.569  1.00  0.00     0.142 A 
HETATM   41  C   UNL     1      39.774 -10.446  13.040  1.00  0.00     0.027 A 
HETATM   42  C   UNL     1      39.678 -10.142  11.661  1.00  0.00     0.036 A 
ENDBRANCH  37  38
ENDBRANCH  13  37
TORSDOF 11
ENDMDL
MODEL 2
REMARK VINA RESULT:      -8.0      4.064      6.998
REMARK  11 active torsions:
REMARK  status: ('A' for Active; 'I' for Inactive)
REMARK    1  A    between atoms: N_13  and  C_14 
REMARK    2  A    between atoms: C_14  and  C_15 
REMARK    3  A    between atoms: N_20  and  C_21 
REMARK    4  A    between atoms: C_21  and  C_22 
REMARK    5  A    between atoms: C_22  and  O_23 
REMARK    6  A    between atoms: C_22  and  C_24 
REMARK    7  A    between atoms: C_24  and  N_25 
REMARK    8  A    between atoms: N_25  and  C_27 
REMARK    9  A    between atoms: N_25  and  C_34 
REMARK   10  A    between atoms: C_27  and  C_28 
REMARK   11  A    between atoms: C_34  and  C_35 
ROOT
HETATM    1  C   UNL     1      39.491  -8.155   0.135  1.00  0.00     0.163 C 
HETATM    2  N   UNL     1      39.388  -9.551  -0.257  1.00  0.00    -0.285 N 
HETATM    3  C   UNL     1      38.525  -9.934  -1.286  1.00  0.00     0.332 A 
HETATM    4  O   UNL     1      37.823  -9.115  -1.884  1.00  0.00    -0.246 OA
HETATM    5  N   UNL     1      38.495 -11.306  -1.617  1.00  0.00    -0.269 N 
HETATM    6  C   UNL     1      37.608 -11.731  -2.685  1.00  0.00     0.164 C 
HETATM    7  C   UNL     1      39.254 -12.303  -1.003  1.00  0.00     0.282 A 
HETATM    8  O   UNL     1      39.233 -13.489  -1.324  1.00  0.00    -0.265 OA
HETATM    9  C   UNL     1      40.094 -11.817   0.034  1.00  0.00     0.166 A 
HETATM   10  C   UNL     1      40.143 -10.504   0.382  1.00  0.00     0.186 A 
HETATM   11  N   UNL     1      41.025 -10.284   1.390  1.00  0.00    -0.044 NA
HETATM   12  C   UNL     1      41.519 -11.466   1.689  1.00  0.00     0.705 A 
HETATM   13  N   UNL     1      42.426 -11.746   2.641  1.00  0.00    -0.218 N 
HETATM   14  N   UNL     1      41.007 -12.438   0.849  1.00  0.00    -0.170 N 
HETATM   15  H   UNL     1      42.529 -12.674   3.039  1.00  0.00     0.178 HD
ENDROOT
BRANCH  14  16
HETATM   16  C   UNL     1      41.423 -13.831   0.768  1.00  0.00     0.181 C 
BRANCH  16  17
HETATM   17  C   UNL     1      40.686 -14.721   1.780  1.00  0.00     0.163 C 
BRANCH  17  18
HETATM   18  O   UNL     1      39.302 -14.846   1.421  1.00  0.00    -0.392 OA
HETATM   19  H   UNL     1      38.755 -14.236   1.956  1.00  0.00     0.210 HD
ENDBRANCH  17  18
BRANCH  17  20
HETATM   20  C   UNL     1      41.215 -16.173   1.841  1.00  0.00     0.268 C 
BRANCH  20  21
HETATM   21  N   UNL     1      42.242 -16.501   2.904  1.00  0.00    -0.061 N 
HETATM   22  H   UNL     1      41.776 -17.062   3.623  1.00  0.00     0.280 HD
BRANCH  21  23
HETATM   23  C   UNL     1      43.432 -17.322   2.436  1.00  0.00     0.273 C 
BRANCH  23  24
HETATM   24  C   UNL     1      43.657 -18.636   3.132  1.00  0.00    -0.033 A 
HETATM   25  C   UNL     1      43.620 -19.844   2.416  1.00  0.00     0.009 A 
HETATM   26  C   UNL     1      43.813 -21.063   3.067  1.00  0.00     0.001 A 
HETATM   27  C   UNL     1      44.054 -21.093   4.437  1.00  0.00     0.000 A 
HETATM   28  C   UNL     1      44.116 -19.904   5.157  1.00  0.00     0.001 A 
HETATM   29  C   UNL     1      43.924 -18.682   4.510  1.00  0.00     0.009 A 
ENDBRANCH  23  24
ENDBRANCH  21  23
BRANCH  21  30
HETATM   30  C   UNL     1      42.698 -15.247   3.639  1.00  0.00     0.273 C 
BRANCH  30  31
HETATM   31  C   UNL     1      42.818 -15.424   5.129  1.00  0.00    -0.033 A 
HETATM   32  C   UNL     1      44.065 -15.644   5.735  1.00  0.00     0.009 A 
HETATM   33  C   UNL     1      44.153 -15.831   7.116  1.00  0.00     0.001 A 
HETATM   34  C   UNL     1      43.004 -15.799   7.903  1.00  0.00     0.000 A 
HETATM   35  C   UNL     1      41.762 -15.575   7.315  1.00  0.00     0.001 A 
HETATM   36  C   UNL     1      41.668 -15.387   5.936  1.00  0.00     0.009 A 
ENDBRANCH  30  31
ENDBRANCH  21  30
ENDBRANCH  20  21
ENDBRANCH  17  20
ENDBRANCH  16  17
ENDBRANCH  14  16
BRANCH  13  37
HETATM   37  C   UNL     1      42.686 -10.733   3.664  1.00  0.00     0.203 C 
BRANCH  37  38
HETATM   38  C   UNL     1      43.365 -11.281   4.880  1.00  0.00     0.070 A 
HETATM   39  O   UNL     1      44.731 -11.183   4.929  1.00  0.00    -0.325 OA
HETATM   40  C   UNL     1      45.126 -11.753   6.096  1.00  0.00     0.142 A 
HETATM   41  C   UNL     1      44.040 -12.223   6.796  1.00  0.00     0.027 A 
HETATM   42  C   UNL     1      42.901 -11.919   6.012  1.00  0.00     0.036 A 
ENDBRANCH  37  38
ENDBRANCH  13  37
TORSDOF 11
ENDMDL
MODEL 3
REMARK VINA RESULT:      -7.9      2.495      4.424
REMARK  11 active torsions:
REMARK  status: ('A' for Active; 'I' for Inactive)
REMARK    1  A    between atoms: N_13  and  C_14 
REMARK    2  A    between atoms: C_14  and  C_15 
REMARK    3  A    between atoms: N_20  and  C_21 
REMARK    4  A    between atoms: C_21  and  C_22 
REMARK    5  A    between atoms: C_22  and  O_23 
REMARK    6  A    between atoms: C_22  and  C_24 
REMARK    7  A    between atoms: C_24  and  N_25 
REMARK    8  A    between atoms: N_25  and  C_27 
REMARK    9  A    between atoms: N_25  and  C_34 
REMARK   10  A    between atoms: C_27  and  C_28 
REMARK   11  A    between atoms: C_34  and  C_35 
ROOT
HETATM    1  C   UNL     1      41.700  -7.495   5.857  1.00  0.00     0.163 C 
HETATM    2  N   UNL     1      41.364  -8.865   5.501  1.00  0.00    -0.285 N 
HETATM    3  C   UNL     1      40.178  -9.148   4.820  1.00  0.00     0.332 A 
HETATM    4  O   UNL     1      39.381  -8.260   4.509  1.00  0.00    -0.246 OA
HETATM    5  N   UNL     1      39.935 -10.499   4.497  1.00  0.00    -0.269 N 
HETATM    6  C   UNL     1      38.710 -10.821   3.788  1.00  0.00     0.164 C 
HETATM    7  C   UNL     1      40.778 -11.569   4.801  1.00  0.00     0.282 A 
HETATM    8  O   UNL     1      40.560 -12.737   4.487  1.00  0.00    -0.265 OA
HETATM    9  C   UNL     1      41.952 -11.183   5.499  1.00  0.00     0.166 A 
HETATM   10  C   UNL     1      42.217  -9.891   5.830  1.00  0.00     0.186 A 
HETATM   11  N   UNL     1      43.401  -9.771   6.482  1.00  0.00    -0.044 NA
HETATM   12  C   UNL     1      43.875 -10.994   6.576  1.00  0.00     0.705 A 
HETATM   13  N   UNL     1      45.026 -11.372   7.159  1.00  0.00    -0.218 N 
HETATM   14  N   UNL     1      43.037 -11.895   5.945  1.00  0.00    -0.170 N 
HETATM   15  H   UNL     1      45.187 -12.321   7.484  1.00  0.00     0.178 HD
ENDROOT
BRANCH  14  16
HETATM   16  C   UNL     1      43.294 -13.308   5.705  1.00  0.00     0.181 C 
BRANCH  16  17
HETATM   17  C   UNL     1      42.767 -14.199   6.841  1.00  0.00     0.163 C 
BRANCH  17  18
HETATM   18  O   UNL     1      41.332 -14.236   6.821  1.00  0.00    -0.392 OA
HETATM   19  H   UNL     1      40.997 -14.823   7.528  1.00  0.00     0.210 HD
ENDBRANCH  17  18
BRANCH  17  20
HETATM   20  C   UNL     1      43.206 -15.678   6.733  1.00  0.00     0.268 C 
BRANCH  20  21
HETATM   21  N   UNL     1      43.442 -16.240   5.347  1.00  0.00    -0.061 N 
HETATM   22  H   UNL     1      43.661 -15.455   4.727  1.00  0.00     0.280 HD
BRANCH  21  23
HETATM   23  C   UNL     1      44.603 -17.212   5.222  1.00  0.00     0.273 C 
BRANCH  23  24
HETATM   24  C   UNL     1      44.295 -18.553   4.614  1.00  0.00    -0.033 A 
HETATM   25  C   UNL     1      44.047 -19.670   5.428  1.00  0.00     0.009 A 
HETATM   26  C   UNL     1      43.777 -20.917   4.862  1.00  0.00     0.001 A 
HETATM   27  C   UNL     1      43.743 -21.063   3.479  1.00  0.00     0.000 A 
HETATM   28  C   UNL     1      43.965 -19.962   2.658  1.00  0.00     0.001 A 
HETATM   29  C   UNL     1      44.234 -18.713   3.221  1.00  0.00     0.009 A 
ENDBRANCH  23  24
ENDBRANCH  21  23
BRANCH  21  30
HETATM   30  C   UNL     1      42.166 -16.837   4.767  1.00  0.00     0.273 C 
BRANCH  30  31
HETATM   31  C   UNL     1      41.671 -16.131   3.532  1.00  0.00    -0.033 A 
HETATM   32  C   UNL     1      40.298 -16.030   3.257  1.00  0.00     0.009 A 
HETATM   33  C   UNL     1      39.859 -15.394   2.095  1.00  0.00     0.001 A 
HETATM   34  C   UNL     1      40.779 -14.853   1.200  1.00  0.00     0.000 A 
HETATM   35  C   UNL     1      42.143 -14.941   1.465  1.00  0.00     0.001 A 
HETATM   36  C   UNL     1      42.588 -15.574   2.625  1.00  0.00     0.009 A 
ENDBRANCH  30  31
ENDBRANCH  21  30
ENDBRANCH  20  21
ENDBRANCH  17  20
ENDBRANCH  16  17
ENDBRANCH  14  16
BRANCH  13  37
HETATM   37  C   UNL     1      45.693 -10.421   8.049  1.00  0.00     0.203 C 
BRANCH  37  38
HETATM   38  C   UNL     1      44.976 -10.225   9.349  1.00  0.00     0.070 A 
HETATM   39  O   UNL     1      44.072 -11.188   9.714  1.00  0.00    -0.325 OA
HETATM   40  C   UNL     1      43.538 -10.799  10.900  1.00  0.00     0.142 A 
HETATM   41  C   UNL     1      44.076  -9.599  11.301  1.00  0.00     0.027 A 
HETATM   42  C   UNL     1      45.005  -9.227  10.300  1.00  0.00     0.036 A 
ENDBRANCH  37  38
ENDBRANCH  13  37
TORSDOF 11
ENDMDL
MODEL 4
REMARK VINA RESULT:      -7.7      2.237      3.691
REMARK  11 active torsions:
REMARK  status: ('A' for Active; 'I' for Inactive)
REMARK    1  A    between atoms: N_13  and  C_14 
REMARK    2  A    between atoms: C_14  and  C_15 
REMARK    3  A    between atoms: N_20  and  C_21 
REMARK    4  A    between atoms: C_21  and  C_22 
REMARK    5  A    between atoms: C_22  and  O_23 
REMARK    6  A    between atoms: C_22  and  C_24 
REMARK    7  A    between atoms: C_24  and  N_25 
REMARK    8  A    between atoms: N_25  and  C_27 
REMARK    9  A    between atoms: N_25  and  C_34 
REMARK   10  A    between atoms: C_27  and  C_28 
REMARK   11  A    between atoms: C_34  and  C_35 
ROOT
HETATM    1  C   UNL     1      39.305  -8.091   4.543  1.00  0.00     0.163 C 
HETATM    2  N   UNL     1      40.363  -9.021   4.180  1.00  0.00    -0.285 N 
HETATM    3  C   UNL     1      40.511  -9.443   2.857  1.00  0.00     0.332 A 
HETATM    4  O   UNL     1      39.755  -9.054   1.963  1.00  0.00    -0.246 OA
HETATM    5  N   UNL     1      41.572 -10.332   2.585  1.00  0.00    -0.269 N 
HETATM    6  C   UNL     1      41.749 -10.785   1.217  1.00  0.00     0.164 C 
HETATM    7  C   UNL     1      42.480 -10.821   3.526  1.00  0.00     0.282 A 
HETATM    8  O   UNL     1      43.414 -11.575   3.264  1.00  0.00    -0.265 OA
HETATM    9  C   UNL     1      42.244 -10.342   4.842  1.00  0.00     0.166 A 
HETATM   10  C   UNL     1      41.229  -9.488   5.139  1.00  0.00     0.186 A 
HETATM   11  N   UNL     1      41.213  -9.165   6.458  1.00  0.00    -0.044 NA
HETATM   12  C   UNL     1      42.212  -9.832   6.994  1.00  0.00     0.705 A 
HETATM   13  N   UNL     1      42.581  -9.834   8.287  1.00  0.00    -0.218 N 
HETATM   14  N   UNL     1      42.905 -10.538   6.028  1.00  0.00    -0.170 N 
HETATM   15  H   UNL     1      43.129 -10.585   8.696  1.00  0.00     0.178 HD
ENDROOT
BRANCH  14  16
HETATM   16  C   UNL     1      44.153 -11.268   6.204  1.00  0.00     0.181 C 
BRANCH  16  17
HETATM   17  C   UNL     1      43.937 -12.652   6.836  1.00  0.00     0.163 C 
BRANCH  17  18
HETATM   18  O   UNL     1      43.701 -12.525   8.246  1.00  0.00    -0.392 OA
HETATM   19  H   UNL     1      42.744 -12.591   8.439  1.00  0.00     0.210 HD
ENDBRANCH  17  18
BRANCH  17  20
HETATM   20  C   UNL     1      42.701 -13.404   6.290  1.00  0.00     0.268 C 
BRANCH  20  21
HETATM   21  N   UNL     1      42.925 -14.775   5.688  1.00  0.00    -0.061 N 
HETATM   22  H   UNL     1      43.487 -14.654   4.841  1.00  0.00     0.280 HD
BRANCH  21  23
HETATM   23  C   UNL     1      43.685 -15.759   6.560  1.00  0.00     0.273 C 
BRANCH  23  24
HETATM   24  C   UNL     1      43.822 -17.161   6.031  1.00  0.00    -0.033 A 
HETATM   25  C   UNL     1      43.337 -18.256   6.765  1.00  0.00     0.009 A 
HETATM   26  C   UNL     1      43.480 -19.557   6.279  1.00  0.00     0.001 A 
HETATM   27  C   UNL     1      44.100 -19.780   5.054  1.00  0.00     0.000 A 
HETATM   28  C   UNL     1      44.566 -18.705   4.304  1.00  0.00     0.001 A 
HETATM   29  C   UNL     1      44.424 -17.402   4.786  1.00  0.00     0.009 A 
ENDBRANCH  23  24
ENDBRANCH  21  23
BRANCH  21  30
HETATM   30  C   UNL     1      41.618 -15.382   5.192  1.00  0.00     0.273 C 
BRANCH  30  31
HETATM   31  C   UNL     1      41.444 -15.313   3.698  1.00  0.00    -0.033 A 
HETATM   32  C   UNL     1      40.229 -15.674   3.093  1.00  0.00     0.009 A 
HETATM   33  C   UNL     1      40.094 -15.628   1.705  1.00  0.00     0.001 A 
HETATM   34  C   UNL     1      41.162 -15.221   0.908  1.00  0.00     0.000 A 
HETATM   35  C   UNL     1      42.369 -14.853   1.497  1.00  0.00     0.001 A 
HETATM   36  C   UNL     1      42.510 -14.896   2.884  1.00  0.00     0.009 A 
ENDBRANCH  30  31
ENDBRANCH  21  30
ENDBRANCH  20  21
ENDBRANCH  17  20
ENDBRANCH  16  17
ENDBRANCH  14  16
BRANCH  13  37
HETATM   37  C   UNL     1      41.634  -9.314   9.274  1.00  0.00     0.203 C 
BRANCH  37  38
HETATM   38  C   UNL     1      42.289  -8.869  10.544  1.00  0.00     0.070 A 
HETATM   39  O   UNL     1      41.543  -8.091  11.390  1.00  0.00    -0.325 OA
HETATM   40  C   UNL     1      42.334  -7.794  12.454  1.00  0.00     0.142 A 
HETATM   41  C   UNL     1      43.578  -8.360  12.303  1.00  0.00     0.027 A 
HETATM   42  C   UNL     1      43.550  -9.055  11.070  1.00  0.00     0.036 A 
ENDBRANCH  37  38
ENDBRANCH  13  37
TORSDOF 11
ENDMDL
MODEL 5
REMARK VINA RESULT:      -7.7      1.790      2.510
REMARK  11 active torsions:
REMARK  status: ('A' for Active; 'I' for Inactive)
REMARK    1  A    between atoms: N_13  and  C_14 
REMARK    2  A    between atoms: C_14  and  C_15 
REMARK    3  A    between atoms: N_20  and  C_21 
REMARK    4  A    between atoms: C_21  and  C_22 
REMARK    5  A    between atoms: C_22  and  O_23 
REMARK    6  A    between atoms: C_22  and  C_24 
REMARK    7  A    between atoms: C_24  and  N_25 
REMARK    8  A    between atoms: N_25  and  C_27 
REMARK    9  A    between atoms: N_25  and  C_34 
REMARK   10  A    between atoms: C_27  and  C_28 
REMARK   11  A    between atoms: C_34  and  C_35 
ROOT
HETATM    1  C   UNL     1      44.027  -9.727  10.898  1.00  0.00     0.163 C 
HETATM    2  N   UNL     1      43.753  -9.967   9.490  1.00  0.00    -0.285 N 
HETATM    3  C   UNL     1      44.744 -10.490   8.656  1.00  0.00     0.332 A 
HETATM    4  O   UNL     1      45.873 -10.754   9.077  1.00  0.00    -0.246 OA
HETATM    5  N   UNL     1      44.394 -10.708   7.307  1.00  0.00    -0.269 N 
HETATM    6  C   UNL     1      45.405 -11.253   6.419  1.00  0.00     0.164 C 
HETATM    7  C   UNL     1      43.145 -10.446   6.743  1.00  0.00     0.282 A 
HETATM    8  O   UNL     1      42.851 -10.669   5.571  1.00  0.00    -0.265 OA
HETATM    9  C   UNL     1      42.208  -9.911   7.666  1.00  0.00     0.166 A 
HETATM   10  C   UNL     1      42.513  -9.683   8.971  1.00  0.00     0.186 A 
HETATM   11  N   UNL     1      41.455  -9.180   9.655  1.00  0.00    -0.044 NA
HETATM   12  C   UNL     1      40.485  -9.075   8.772  1.00  0.00     0.705 A 
HETATM   13  N   UNL     1      39.242  -8.610   8.989  1.00  0.00    -0.218 N 
HETATM   14  N   UNL     1      40.889  -9.555   7.540  1.00  0.00    -0.170 N 
HETATM   15  H   UNL     1      38.655  -8.255   8.240  1.00  0.00     0.178 HD
ENDROOT
BRANCH  14  16
HETATM   16  C   UNL     1      40.057  -9.746   6.360  1.00  0.00     0.181 C 
BRANCH  16  17
HETATM   17  C   UNL     1      39.450 -11.156   6.295  1.00  0.00     0.163 C 
BRANCH  17  18
HETATM   18  O   UNL     1      38.051 -11.113   6.612  1.00  0.00    -0.392 OA
HETATM   19  H   UNL     1      37.784 -10.204   6.853  1.00  0.00     0.210 HD
ENDBRANCH  17  18
BRANCH  17  20
HETATM   20  C   UNL     1      39.522 -11.806   4.893  1.00  0.00     0.268 C 
BRANCH  20  21
HETATM   21  N   UNL     1      40.342 -13.070   4.748  1.00  0.00    -0.061 N 
HETATM   22  H   UNL     1      41.320 -12.792   4.623  1.00  0.00     0.280 HD
BRANCH  21  23
HETATM   23  C   UNL     1      40.320 -14.008   5.943  1.00  0.00     0.273 C 
BRANCH  23  24
HETATM   24  C   UNL     1      41.584 -14.778   6.217  1.00  0.00    -0.033 A 
HETATM   25  C   UNL     1      42.830 -14.131   6.227  1.00  0.00     0.009 A 
HETATM   26  C   UNL     1      44.003 -14.850   6.465  1.00  0.00     0.001 A 
HETATM   27  C   UNL     1      43.946 -16.219   6.703  1.00  0.00     0.000 A 
HETATM   28  C   UNL     1      42.717 -16.871   6.717  1.00  0.00     0.001 A 
HETATM   29  C   UNL     1      41.542 -16.156   6.481  1.00  0.00     0.009 A 
ENDBRANCH  23  24
ENDBRANCH  21  23
BRANCH  21  30
HETATM   30  C   UNL     1      39.992 -13.813   3.465  1.00  0.00     0.273 C 
BRANCH  30  31
HETATM   31  C   UNL     1      41.098 -14.698   2.953  1.00  0.00    -0.033 A 
HETATM   32  C   UNL     1      40.934 -16.090   2.874  1.00  0.00     0.009 A 
HETATM   33  C   UNL     1      41.979 -16.896   2.421  1.00  0.00     0.001 A 
HETATM   34  C   UNL     1      43.192 -16.326   2.040  1.00  0.00     0.000 A 
HETATM   35  C   UNL     1      43.364 -14.946   2.106  1.00  0.00     0.001 A 
HETATM   36  C   UNL     1      42.323 -14.135   2.558  1.00  0.00     0.009 A 
ENDBRANCH  30  31
ENDBRANCH  21  30
ENDBRANCH  20  21
ENDBRANCH  17  20
ENDBRANCH  16  17
ENDBRANCH  14  16
BRANCH  13  37
HETATM   37  C   UNL     1      38.993  -7.855  10.217  1.00  0.00     0.203 C 
BRANCH  37  38
HETATM   38  C   UNL     1      38.737  -6.400   9.977  1.00  0.00     0.070 A 
HETATM   39  O   UNL     1      38.384  -5.641  11.061  1.00  0.00    -0.325 OA
HETATM   40  C   UNL     1      38.186  -4.376  10.610  1.00  0.00     0.142 A 
HETATM   41  C   UNL     1      38.398  -4.309   9.254  1.00  0.00     0.027 A 
HETATM   42  C   UNL     1      38.754  -5.615   8.842  1.00  0.00     0.036 A 
ENDBRANCH  37  38
ENDBRANCH  13  37
TORSDOF 11
ENDMDL
MODEL 6
REMARK VINA RESULT:      -7.6      3.018      5.801
REMARK  11 active torsions:
REMARK  status: ('A' for Active; 'I' for Inactive)
REMARK    1  A    between atoms: N_13  and  C_14 
REMARK    2  A    between atoms: C_14  and  C_15 
REMARK    3  A    between atoms: N_20  and  C_21 
REMARK    4  A    between atoms: C_21  and  C_22 
REMARK    5  A    between atoms: C_22  and  O_23 
REMARK    6  A    between atoms: C_22  and  C_24 
REMARK    7  A    between atoms: C_24  and  N_25 
REMARK    8  A    between atoms: N_25  and  C_27 
REMARK    9  A    between atoms: N_25  and  C_34 
REMARK   10  A    between atoms: C_27  and  C_28 
REMARK   11  A    between atoms: C_34  and  C_35 
ROOT
HETATM    1  C   UNL     1      41.226  -8.140   7.866  1.00  0.00     0.163 C 
HETATM    2  N   UNL     1      42.122  -9.214   7.467  1.00  0.00    -0.285 N 
HETATM    3  C   UNL     1      43.359  -9.373   8.096  1.00  0.00     0.332 A 
HETATM    4  O   UNL     1      43.734  -8.613   8.993  1.00  0.00    -0.246 OA
HETATM    5  N   UNL     1      44.162 -10.449   7.663  1.00  0.00    -0.269 N 
HETATM    6  C   UNL     1      45.452 -10.638   8.301  1.00  0.00     0.164 C 
HETATM    7  C   UNL     1      43.822 -11.362   6.664  1.00  0.00     0.282 A 
HETATM    8  O   UNL     1      44.524 -12.309   6.319  1.00  0.00    -0.265 OA
HETATM    9  C   UNL     1      42.551 -11.114   6.080  1.00  0.00     0.166 A 
HETATM   10  C   UNL     1      41.754 -10.084   6.470  1.00  0.00     0.186 A 
HETATM   11  N   UNL     1      40.588 -10.059   5.776  1.00  0.00    -0.044 NA
HETATM   12  C   UNL     1      40.660 -11.068   4.934  1.00  0.00     0.705 A 
HETATM   13  N   UNL     1      39.735 -11.432   4.029  1.00  0.00    -0.218 N 
HETATM   14  N   UNL     1      41.834 -11.775   5.115  1.00  0.00    -0.170 N 
HETATM   15  H   UNL     1      39.963 -11.991   3.212  1.00  0.00     0.178 HD
ENDROOT
BRANCH  14  16
HETATM   16  C   UNL     1      42.203 -13.034   4.483  1.00  0.00     0.181 C 
BRANCH  16  17
HETATM   17  C   UNL     1      42.762 -12.835   3.065  1.00  0.00     0.163 C 
BRANCH  17  18
HETATM   18  O   UNL     1      44.042 -12.188   3.120  1.00  0.00    -0.392 OA
HETATM   19  H   UNL     1      44.692 -12.755   3.581  1.00  0.00     0.210 HD
ENDBRANCH  17  18
BRANCH  17  20
HETATM   20  C   UNL     1      43.014 -14.154   2.299  1.00  0.00     0.268 C 
BRANCH  20  21
HETATM   21  N   UNL     1      41.811 -14.872   1.724  1.00  0.00    -0.061 N 
HETATM   22  H   UNL     1      42.072 -15.219   0.796  1.00  0.00     0.280 HD
BRANCH  21  23
HETATM   23  C   UNL     1      41.332 -16.082   2.507  1.00  0.00     0.273 C 
BRANCH  23  24
HETATM   24  C   UNL     1      42.398 -16.979   3.077  1.00  0.00    -0.033 A 
HETATM   25  C   UNL     1      43.006 -17.964   2.283  1.00  0.00     0.009 A 
HETATM   26  C   UNL     1      43.983 -18.806   2.819  1.00  0.00     0.001 A 
HETATM   27  C   UNL     1      44.370 -18.669   4.148  1.00  0.00     0.000 A 
HETATM   28  C   UNL     1      43.792 -17.683   4.941  1.00  0.00     0.001 A 
HETATM   29  C   UNL     1      42.816 -16.838   4.409  1.00  0.00     0.009 A 
ENDBRANCH  23  24
ENDBRANCH  21  23
BRANCH  21  30
HETATM   30  C   UNL     1      40.665 -13.904   1.458  1.00  0.00     0.273 C 
BRANCH  30  31
HETATM   31  C   UNL     1      40.419 -13.637  -0.003  1.00  0.00    -0.033 A 
HETATM   32  C   UNL     1      39.727 -14.562  -0.802  1.00  0.00     0.009 A 
HETATM   33  C   UNL     1      39.532 -14.308  -2.161  1.00  0.00     0.001 A 
HETATM   34  C   UNL     1      40.020 -13.136  -2.734  1.00  0.00     0.000 A 
HETATM   35  C   UNL     1      40.701 -12.209  -1.951  1.00  0.00     0.001 A 
HETATM   36  C   UNL     1      40.899 -12.456  -0.592  1.00  0.00     0.009 A 
ENDBRANCH  30  31
ENDBRANCH  21  30
ENDBRANCH  20  21
ENDBRANCH  17  20
ENDBRANCH  16  17
ENDBRANCH  14  16
BRANCH  13  37
HETATM   37  C   UNL     1      38.679 -10.475   3.698  1.00  0.00     0.203 C 
BRANCH  37  38
HETATM   38  C   UNL     1      38.232 -10.555   2.272  1.00  0.00     0.070 A 
HETATM   39  O   UNL     1      38.312  -9.407   1.528  1.00  0.00    -0.325 OA
HETATM   40  C   UNL     1      37.843  -9.707   0.289  1.00  0.00     0.142 A 
HETATM   41  C   UNL     1      37.455 -11.025   0.226  1.00  0.00     0.027 A 
HETATM   42  C   UNL     1      37.706 -11.574   1.506  1.00  0.00     0.036 A 
ENDBRANCH  37  38
ENDBRANCH  13  37
TORSDOF 11
ENDMDL
MODEL 7
REMARK VINA RESULT:      -7.6      2.134      5.095
REMARK  11 active torsions:
REMARK  status: ('A' for Active; 'I' for Inactive)
REMARK    1  A    between atoms: N_13  and  C_14 
REMARK    2  A    between atoms: C_14  and  C_15 
REMARK    3  A    between atoms: N_20  and  C_21 
REMARK    4  A    between atoms: C_21  and  C_22 
REMARK    5  A    between atoms: C_22  and  O_23 
REMARK    6  A    between atoms: C_22  and  C_24 
REMARK    7  A    between atoms: C_24  and  N_25 
REMARK    8  A    between atoms: N_25  and  C_27 
REMARK    9  A    between atoms: N_25  and  C_34 
REMARK   10  A    between atoms: C_27  and  C_28 
REMARK   11  A    between atoms: C_34  and  C_35 
ROOT
HETATM    1  C   UNL     1      44.870  -9.906  10.568  1.00  0.00     0.163 C 
HETATM    2  N   UNL     1      43.675  -9.427   9.893  1.00  0.00    -0.285 N 
HETATM    3  C   UNL     1      42.942  -8.363  10.423  1.00  0.00     0.332 A 
HETATM    4  O   UNL     1      43.272  -7.806  11.473  1.00  0.00    -0.246 OA
HETATM    5  N   UNL     1      41.805  -7.947   9.699  1.00  0.00    -0.269 N 
HETATM    6  C   UNL     1      41.026  -6.842  10.227  1.00  0.00     0.164 C 
HETATM    7  C   UNL     1      41.357  -8.510   8.503  1.00  0.00     0.282 A 
HETATM    8  O   UNL     1      40.378  -8.115   7.872  1.00  0.00    -0.265 OA
HETATM    9  C   UNL     1      42.162  -9.587   8.048  1.00  0.00     0.166 A 
HETATM   10  C   UNL     1      43.261 -10.017   8.723  1.00  0.00     0.186 A 
HETATM   11  N   UNL     1      43.870 -11.050   8.088  1.00  0.00    -0.044 NA
HETATM   12  C   UNL     1      43.141 -11.282   7.018  1.00  0.00     0.705 A 
HETATM   13  N   UNL     1      43.352 -12.229   6.086  1.00  0.00    -0.218 N 
HETATM   14  N   UNL     1      42.101 -10.376   6.927  1.00  0.00    -0.170 N 
HETATM   15  H   UNL     1      42.612 -12.570   5.480  1.00  0.00     0.178 HD
ENDROOT
BRANCH  14  16
HETATM   16  C   UNL     1      41.176 -10.215   5.813  1.00  0.00     0.181 C 
BRANCH  16  17
HETATM   17  C   UNL     1      39.946 -11.128   5.937  1.00  0.00     0.163 C 
BRANCH  17  18
HETATM   18  O   UNL     1      38.926 -10.487   6.717  1.00  0.00    -0.392 OA
HETATM   19  H   UNL     1      38.508  -9.765   6.206  1.00  0.00     0.210 HD
ENDBRANCH  17  18
BRANCH  17  20
HETATM   20  C   UNL     1      39.270 -11.456   4.586  1.00  0.00     0.268 C 
BRANCH  20  21
HETATM   21  N   UNL     1      39.954 -12.462   3.685  1.00  0.00    -0.061 N 
HETATM   22  H   UNL     1      40.728 -11.981   3.216  1.00  0.00     0.280 HD
BRANCH  21  23
HETATM   23  C   UNL     1      40.568 -13.661   4.388  1.00  0.00     0.273 C 
BRANCH  23  24
HETATM   24  C   UNL     1      41.395 -14.587   3.538  1.00  0.00    -0.033 A 
HETATM   25  C   UNL     1      42.572 -14.135   2.919  1.00  0.00     0.009 A 
HETATM   26  C   UNL     1      43.329 -14.991   2.117  1.00  0.00     0.001 A 
HETATM   27  C   UNL     1      42.926 -16.309   1.931  1.00  0.00     0.000 A 
HETATM   28  C   UNL     1      41.775 -16.779   2.554  1.00  0.00     0.001 A 
HETATM   29  C   UNL     1      41.016 -15.926   3.358  1.00  0.00     0.009 A 
ENDBRANCH  23  24
ENDBRANCH  21  23
BRANCH  21  30
HETATM   30  C   UNL     1      39.038 -12.904   2.552  1.00  0.00     0.273 C 
BRANCH  30  31
HETATM   31  C   UNL     1      39.653 -12.767   1.184  1.00  0.00    -0.033 A 
HETATM   32  C   UNL     1      39.768 -13.875   0.327  1.00  0.00     0.009 A 
HETATM   33  C   UNL     1      40.363 -13.734  -0.927  1.00  0.00     0.001 A 
HETATM   34  C   UNL     1      40.847 -12.495  -1.340  1.00  0.00     0.000 A 
HETATM   35  C   UNL     1      40.732 -11.388  -0.503  1.00  0.00     0.001 A 
HETATM   36  C   UNL     1      40.137 -11.522   0.751  1.00  0.00     0.009 A 
ENDBRANCH  30  31
ENDBRANCH  21  30
ENDBRANCH  20  21
ENDBRANCH  17  20
ENDBRANCH  16  17
ENDBRANCH  14  16
BRANCH  13  37
HETATM   37  C   UNL     1      44.276 -13.317   6.406  1.00  0.00     0.203 C 
BRANCH  37  38
HETATM   38  C   UNL     1      43.605 -14.650   6.515  1.00  0.00     0.070 A 
HETATM   39  O   UNL     1      44.164 -15.689   5.818  1.00  0.00    -0.325 OA
HETATM   40  C   UNL     1      43.390 -16.780   6.046  1.00  0.00     0.142 A 
HETATM   41  C   UNL     1      42.337 -16.461   6.871  1.00  0.00     0.027 A 
HETATM   42  C   UNL     1      42.475 -15.086   7.175  1.00  0.00     0.036 A 
ENDBRANCH  37  38
ENDBRANCH  13  37
TORSDOF 11
ENDMDL
MODEL 8
REMARK VINA RESULT:      -7.5      3.840      6.681
REMARK  11 active torsions:
REMARK  status: ('A' for Active; 'I' for Inactive)
REMARK    1  A    between atoms: N_13  and  C_14 
REMARK    2  A    between atoms: C_14  and  C_15 
REMARK    3  A    between atoms: N_20  and  C_21 
REMARK    4  A    between atoms: C_21  and  C_22 
REMARK    5  A    between atoms: C_22  and  O_23 
REMARK    6  A    between atoms: C_22  and  C_24 
REMARK    7  A    between atoms: C_24  and  N_25 
REMARK    8  A    between atoms: N_25  and  C_27 
REMARK    9  A    between atoms: N_25  and  C_34 
REMARK   10  A    between atoms: C_27  and  C_28 
REMARK   11  A    between atoms: C_34  and  C_35 
ROOT
HETATM    1  C   UNL     1      43.563 -18.252   7.095  1.00  0.00     0.163 C 
HETATM    2  N   UNL     1      43.516 -18.030   5.659  1.00  0.00    -0.285 N 
HETATM    3  C   UNL     1      43.792 -19.074   4.773  1.00  0.00     0.332 A 
HETATM    4  O   UNL     1      44.091 -20.202   5.171  1.00  0.00    -0.246 OA
HETATM    5  N   UNL     1      43.709 -18.780   3.395  1.00  0.00    -0.269 N 
HETATM    6  C   UNL     1      43.990 -19.848   2.452  1.00  0.00     0.164 C 
HETATM    7  C   UNL     1      43.375 -17.540   2.851  1.00  0.00     0.282 A 
HETATM    8  O   UNL     1      43.282 -17.311   1.647  1.00  0.00    -0.265 OA
HETATM    9  C   UNL     1      43.119 -16.543   3.829  1.00  0.00     0.166 A 
HETATM   10  C   UNL     1      43.195 -16.790   5.164  1.00  0.00     0.186 A 
HETATM   11  N   UNL     1      42.898 -15.687   5.897  1.00  0.00    -0.044 NA
HETATM   12  C   UNL     1      42.651 -14.738   5.020  1.00  0.00     0.705 A 
HETATM   13  N   UNL     1      42.323 -13.461   5.281  1.00  0.00    -0.218 N 
HETATM   14  N   UNL     1      42.732 -15.230   3.730  1.00  0.00    -0.170 N 
HETATM   15  H   UNL     1      42.457 -12.715   4.605  1.00  0.00     0.178 HD
ENDROOT
BRANCH  14  16
HETATM   16  C   UNL     1      42.379 -14.530   2.502  1.00  0.00     0.181 C 
BRANCH  16  17
HETATM   17  C   UNL     1      40.928 -14.795   2.075  1.00  0.00     0.163 C 
BRANCH  17  18
HETATM   18  O   UNL     1      40.490 -16.073   2.561  1.00  0.00    -0.392 OA
HETATM   19  H   UNL     1      41.206 -16.510   3.063  1.00  0.00     0.210 HD
ENDBRANCH  17  18
BRANCH  17  20
HETATM   20  C   UNL     1      39.910 -13.780   2.647  1.00  0.00     0.268 C 
BRANCH  20  21
HETATM   21  N   UNL     1      39.185 -12.885   1.664  1.00  0.00    -0.061 N 
HETATM   22  H   UNL     1      38.327 -13.367   1.381  1.00  0.00     0.280 HD
BRANCH  21  23
HETATM   23  C   UNL     1      38.750 -11.533   2.204  1.00  0.00     0.273 C 
BRANCH  23  24
HETATM   24  C   UNL     1      39.615 -10.930   3.278  1.00  0.00    -0.033 A 
HETATM   25  C   UNL     1      40.877 -10.398   2.969  1.00  0.00     0.009 A 
HETATM   26  C   UNL     1      41.684  -9.854   3.970  1.00  0.00     0.001 A 
HETATM   27  C   UNL     1      41.239  -9.826   5.287  1.00  0.00     0.000 A 
HETATM   28  C   UNL     1      39.981 -10.328   5.606  1.00  0.00     0.001 A 
HETATM   29  C   UNL     1      39.171 -10.872   4.609  1.00  0.00     0.009 A 
ENDBRANCH  23  24
ENDBRANCH  21  23
BRANCH  21  30
HETATM   30  C   UNL     1      39.975 -12.728   0.371  1.00  0.00     0.273 C 
BRANCH  30  31
HETATM   31  C   UNL     1      39.233 -13.190  -0.855  1.00  0.00    -0.033 A 
HETATM   32  C   UNL     1      38.089 -12.513  -1.307  1.00  0.00     0.009 A 
HETATM   33  C   UNL     1      37.399 -12.971  -2.431  1.00  0.00     0.001 A 
HETATM   34  C   UNL     1      37.843 -14.101  -3.115  1.00  0.00     0.000 A 
HETATM   35  C   UNL     1      38.981 -14.776  -2.681  1.00  0.00     0.001 A 
HETATM   36  C   UNL     1      39.674 -14.323  -1.559  1.00  0.00     0.009 A 
ENDBRANCH  30  31
ENDBRANCH  21  30
ENDBRANCH  20  21
ENDBRANCH  17  20
ENDBRANCH  16  17
ENDBRANCH  14  16
BRANCH  13  37
HETATM   37  C   UNL     1      42.550 -12.954   6.634  1.00  0.00     0.203 C 
BRANCH  37  38
HETATM   38  C   UNL     1      43.819 -12.174   6.769  1.00  0.00     0.070 A 
HETATM   39  O   UNL     1      44.165 -11.759   8.029  1.00  0.00    -0.325 OA
HETATM   40  C   UNL     1      45.326 -11.063   7.910  1.00  0.00     0.142 A 
HETATM   41  C   UNL     1      45.728 -11.016   6.596  1.00  0.00     0.027 A 
HETATM   42  C   UNL     1      44.756 -11.733   5.858  1.00  0.00     0.036 A 
ENDBRANCH  37  38
ENDBRANCH  13  37
TORSDOF 11
ENDMDL
MODEL 9
REMARK VINA RESULT:      -7.5      2.549      5.498
REMARK  11 active torsions:
REMARK  status: ('A' for Active; 'I' for Inactive)
REMARK    1  A    between atoms: N_13  and  C_14 
REMARK    2  A    between atoms: C_14  and  C_15 
REMARK    3  A    between atoms: N_20  and  C_21 
REMARK    4  A    between atoms: C_21  and  C_22 
REMARK    5  A    between atoms: C_22  and  O_23 
REMARK    6  A    between atoms: C_22  and  C_24 
REMARK    7  A    between atoms: C_24  and  N_25 
REMARK    8  A    between atoms: N_25  and  C_27 
REMARK    9  A    between atoms: N_25  and  C_34 
REMARK   10  A    between atoms: C_27  and  C_28 
REMARK   11  A    between atoms: C_34  and  C_35 
ROOT
HETATM    1  C   UNL     1      41.349  -7.814   8.064  1.00  0.00     0.163 C 
HETATM    2  N   UNL     1      42.269  -8.933   7.934  1.00  0.00    -0.285 N 
HETATM    3  C   UNL     1      43.449  -8.967   8.679  1.00  0.00     0.332 A 
HETATM    4  O   UNL     1      43.754  -8.059   9.456  1.00  0.00    -0.246 OA
HETATM    5  N   UNL     1      44.279 -10.095   8.508  1.00  0.00    -0.269 N 
HETATM    6  C   UNL     1      45.512 -10.157   9.273  1.00  0.00     0.164 C 
HETATM    7  C   UNL     1      44.017 -11.172   7.661  1.00  0.00     0.282 A 
HETATM    8  O   UNL     1      44.741 -12.159   7.546  1.00  0.00    -0.265 OA
HETATM    9  C   UNL     1      42.800 -11.043   6.941  1.00  0.00     0.166 A 
HETATM   10  C   UNL     1      41.979  -9.968   7.078  1.00  0.00     0.186 A 
HETATM   11  N   UNL     1      40.874 -10.076   6.298  1.00  0.00    -0.044 NA
HETATM   12  C   UNL     1      41.009 -11.216   5.655  1.00  0.00     0.705 A 
HETATM   13  N   UNL     1      40.159 -11.742   4.755  1.00  0.00    -0.218 N 
HETATM   14  N   UNL     1      42.161 -11.869   6.052  1.00  0.00    -0.170 N 
HETATM   15  H   UNL     1      40.450 -12.433   4.071  1.00  0.00     0.178 HD
ENDROOT
BRANCH  14  16
HETATM   16  C   UNL     1      42.574 -13.216   5.683  1.00  0.00     0.181 C 
BRANCH  16  17
HETATM   17  C   UNL     1      41.854 -14.295   6.506  1.00  0.00     0.163 C 
BRANCH  17  18
HETATM   18  O   UNL     1      40.441 -14.256   6.253  1.00  0.00    -0.392 OA
HETATM   19  H   UNL     1      40.257 -13.775   5.422  1.00  0.00     0.210 HD
ENDBRANCH  17  18
BRANCH  17  20
HETATM   20  C   UNL     1      42.282 -15.740   6.159  1.00  0.00     0.268 C 
BRANCH  20  21
HETATM   21  N   UNL     1      42.851 -15.989   4.778  1.00  0.00    -0.061 N 
HETATM   22  H   UNL     1      43.071 -15.079   4.364  1.00  0.00     0.280 HD
BRANCH  21  23
HETATM   23  C   UNL     1      44.138 -16.795   4.734  1.00  0.00     0.273 C 
BRANCH  23  24
HETATM   24  C   UNL     1      44.014 -18.241   4.338  1.00  0.00    -0.033 A 
HETATM   25  C   UNL     1      43.977 -19.251   5.312  1.00  0.00     0.009 A 
HETATM   26  C   UNL     1      43.879 -20.594   4.941  1.00  0.00     0.001 A 
HETATM   27  C   UNL     1      43.806 -20.943   3.596  1.00  0.00     0.000 A 
HETATM   28  C   UNL     1      43.818 -19.952   2.620  1.00  0.00     0.001 A 
HETATM   29  C   UNL     1      43.916 -18.608   2.987  1.00  0.00     0.009 A 
ENDBRANCH  23  24
ENDBRANCH  21  23
BRANCH  21  30
HETATM   30  C   UNL     1      41.802 -16.585   3.847  1.00  0.00     0.273 C 
BRANCH  30  31
HETATM   31  C   UNL     1      41.430 -15.688   2.696  1.00  0.00    -0.033 A 
HETATM   32  C   UNL     1      42.161 -14.520   2.422  1.00  0.00     0.009 A 
HETATM   33  C   UNL     1      41.785 -13.688   1.367  1.00  0.00     0.001 A 
HETATM   34  C   UNL     1      40.685 -14.010   0.576  1.00  0.00     0.000 A 
HETATM   35  C   UNL     1      39.957 -15.169   0.833  1.00  0.00     0.001 A 
HETATM   36  C   UNL     1      40.328 -16.005   1.885  1.00  0.00     0.009 A 
ENDBRANCH  30  31
ENDBRANCH  21  30
ENDBRANCH  20  21
ENDBRANCH  17  20
ENDBRANCH  16  17
ENDBRANCH  14  16
BRANCH  13  37
HETATM   37  C   UNL     1      39.139 -10.867   4.177  1.00  0.00     0.203 C 
BRANCH  37  38
HETATM   38  C   UNL     1      39.349 -10.594   2.721  1.00  0.00     0.070 A 
HETATM   39  O   UNL     1      40.370  -9.743   2.386  1.00  0.00    -0.325 OA
HETATM   40  C   UNL     1      40.362  -9.630   1.033  1.00  0.00     0.142 A 
HETATM   41  C   UNL     1      39.350 -10.387   0.491  1.00  0.00     0.027 A 
HETATM   42  C   UNL     1      38.695 -11.010   1.580  1.00  0.00     0.036 A 
ENDBRANCH  37  38
ENDBRANCH  13  37
TORSDOF 11
ENDMDL
MODEL 10
REMARK VINA RESULT:      -7.5      2.821      4.993
REMARK  11 active torsions:
REMARK  status: ('A' for Active; 'I' for Inactive)
REMARK    1  A    between atoms: N_13  and  C_14 
REMARK    2  A    between atoms: C_14  and  C_15 
REMARK    3  A    between atoms: N_20  and  C_21 
REMARK    4  A    between atoms: C_21  and  C_22 
REMARK    5  A    between atoms: C_22  and  O_23 
REMARK    6  A    between atoms: C_22  and  C_24 
REMARK    7  A    between atoms: C_24  and  N_25 
REMARK    8  A    between atoms: N_25  and  C_27 
REMARK    9  A    between atoms: N_25  and  C_34 
REMARK   10  A    between atoms: C_27  and  C_28 
REMARK   11  A    between atoms: C_34  and  C_35 
ROOT
HETATM    1  C   UNL     1      41.695  -6.373   4.340  1.00  0.00     0.163 C 
HETATM    2  N   UNL     1      41.006  -7.602   3.979  1.00  0.00    -0.285 N 
HETATM    3  C   UNL     1      40.421  -7.740   2.718  1.00  0.00     0.332 A 
HETATM    4  O   UNL     1      40.459  -6.834   1.882  1.00  0.00    -0.246 OA
HETATM    5  N   UNL     1      39.787  -8.969   2.440  1.00  0.00    -0.269 N 
HETATM    6  C   UNL     1      39.172  -9.140   1.136  1.00  0.00     0.164 C 
HETATM    7  C   UNL     1      39.698 -10.051   3.317  1.00  0.00     0.282 A 
HETATM    8  O   UNL     1      39.164 -11.124   3.046  1.00  0.00    -0.265 OA
HETATM    9  C   UNL     1      40.315  -9.812   4.574  1.00  0.00     0.166 A 
HETATM   10  C   UNL     1      40.930  -8.639   4.877  1.00  0.00     0.186 A 
HETATM   11  N   UNL     1      41.452  -8.653   6.130  1.00  0.00    -0.044 NA
HETATM   12  C   UNL     1      41.149  -9.834   6.622  1.00  0.00     0.705 A 
HETATM   13  N   UNL     1      41.450 -10.301   7.847  1.00  0.00    -0.218 N 
HETATM   14  N   UNL     1      40.485 -10.602   5.683  1.00  0.00    -0.170 N 
HETATM   15  H   UNL     1      40.934 -11.060   8.283  1.00  0.00     0.178 HD
ENDROOT
BRANCH  14  16
HETATM   16  C   UNL     1      40.123 -12.008   5.800  1.00  0.00     0.181 C 
BRANCH  16  17
HETATM   17  C   UNL     1      41.312 -12.942   5.531  1.00  0.00     0.163 C 
BRANCH  17  18
HETATM   18  O   UNL     1      41.886 -13.388   6.769  1.00  0.00    -0.392 OA
HETATM   19  H   UNL     1      42.725 -12.917   6.945  1.00  0.00     0.210 HD
ENDBRANCH  17  18
BRANCH  17  20
HETATM   20  C   UNL     1      40.935 -14.238   4.777  1.00  0.00     0.268 C 
BRANCH  20  21
HETATM   21  N   UNL     1      41.855 -14.695   3.665  1.00  0.00    -0.061 N 
HETATM   22  H   UNL     1      41.402 -15.483   3.192  1.00  0.00     0.280 HD
BRANCH  21  23
HETATM   23  C   UNL     1      42.142 -13.665   2.586  1.00  0.00     0.273 C 
BRANCH  23  24
HETATM   24  C   UNL     1      41.276 -13.721   1.356  1.00  0.00    -0.033 A 
HETATM   25  C   UNL     1      41.102 -12.585   0.550  1.00  0.00     0.009 A 
HETATM   26  C   UNL     1      40.285 -12.634  -0.581  1.00  0.00     0.001 A 
HETATM   27  C   UNL     1      39.640 -13.818  -0.925  1.00  0.00     0.000 A 
HETATM   28  C   UNL     1      39.820 -14.958  -0.149  1.00  0.00     0.001 A 
HETATM   29  C   UNL     1      40.637 -14.913   0.982  1.00  0.00     0.009 A 
ENDBRANCH  23  24
ENDBRANCH  21  23
BRANCH  21  30
HETATM   30  C   UNL     1      43.148 -15.279   4.221  1.00  0.00     0.273 C 
BRANCH  30  31
HETATM   31  C   UNL     1      43.389 -16.711   3.824  1.00  0.00    -0.033 A 
HETATM   32  C   UNL     1      42.924 -17.211   2.597  1.00  0.00     0.009 A 
HETATM   33  C   UNL     1      43.135 -18.548   2.258  1.00  0.00     0.001 A 
HETATM   34  C   UNL     1      43.810 -19.397   3.133  1.00  0.00     0.000 A 
HETATM   35  C   UNL     1      44.282 -18.911   4.349  1.00  0.00     0.001 A 
HETATM   36  C   UNL     1      44.075 -17.575   4.694  1.00  0.00     0.009 A 
ENDBRANCH  30  31
ENDBRANCH  21  30
ENDBRANCH  20  21
ENDBRANCH  17  20
ENDBRANCH  16  17
ENDBRANCH  14  16
BRANCH  13  37
HETATM   37  C   UNL     1      41.878  -9.340   8.864  1.00  0.00     0.203 C 
BRANCH  37  38
HETATM   38  C   UNL     1      43.301  -9.521   9.288  1.00  0.00     0.070 A 
HETATM   39  O   UNL     1      44.094 -10.308   8.493  1.00  0.00    -0.325 OA
HETATM   40  C   UNL     1      45.321 -10.345   9.073  1.00  0.00     0.142 A 
HETATM   41  C   UNL     1      45.331  -9.603  10.230  1.00  0.00     0.027 A 
HETATM   42  C   UNL     1      44.027  -9.070  10.371  1.00  0.00     0.036 A 
ENDBRANCH  37  38
ENDBRANCH  13  37
TORSDOF 11
ENDMDL
