MODEL 1
REMARK VINA RESULT:      -9.0      0.000      0.000
REMARK  7 active torsions:
REMARK  status: ('A' for Active; 'I' for Inactive)
REMARK    1  A    between atoms: C_5  and  C_6 
REMARK       I    between atoms: C_6  and  N_7 
REMARK    2  A    between atoms: N_10  and  C_11 
REMARK    3  A    between atoms: C_14  and  N_15 
REMARK    4  A    between atoms: N_15  and  C_16 
REMARK    5  A    between atoms: C_16  and  N_17 
REMARK       I    between atoms: N_17  and  C_18 
REMARK    6  A    between atoms: C_18  and  C_19 
REMARK    7  A    between atoms: C_20  and  O_21 
ROOT
HETATM    1  C   UNL     1      43.026 -11.191   5.187  1.00  0.00     0.030 A 
HETATM    2  C   UNL     1      43.929 -11.550   4.178  1.00  0.00     0.031 A 
HETATM    3  C   UNL     1      43.501 -12.065   2.946  1.00  0.00     0.032 A 
HETATM    4  C   UNL     1      42.148 -12.257   2.691  1.00  0.00     0.034 A 
HETATM    5  C   UNL     1      41.227 -11.806   3.636  1.00  0.00     0.032 A 
HETATM    6  C   UNL     1      41.664 -11.297   4.868  1.00  0.00     0.031 A 
ENDROOT
BRANCH   4   7
HETATM    7  N   UNL     1      41.646 -12.877   1.522  1.00  0.00    -0.333 N 
HETATM    8  H   UNL     1      41.187 -12.240   0.881  1.00  0.00     0.168 HD
BRANCH   7   9
HETATM    9  C   UNL     1      41.233 -14.206   1.348  1.00  0.00     0.179 C 
HETATM   10  S   UNL     1      40.094 -14.777   0.262  1.00  0.00    -0.040 SA
BRANCH   9  11
HETATM   11  N   UNL     1      41.964 -15.028   2.220  1.00  0.00    -0.299 N 
HETATM   12  C   UNL     1      41.539 -15.597   3.418  1.00  0.00     0.260 C 
HETATM   13  O   UNL     1      40.407 -15.998   3.658  1.00  0.00    -0.267 OA
HETATM   14  H   UNL     1      42.965 -14.977   2.087  1.00  0.00     0.171 HD
BRANCH  12  15
HETATM   15  C   UNL     1      42.617 -15.824   4.405  1.00  0.00     0.065 A 
HETATM   16  C   UNL     1      43.395 -16.986   4.370  1.00  0.00     0.084 A 
HETATM   17  C   UNL     1      44.389 -17.187   5.330  1.00  0.00     0.038 A 
HETATM   18  C   UNL     1      44.579 -16.247   6.344  1.00  0.00     0.003 A 
HETATM   19  C   UNL     1      43.790 -15.097   6.391  1.00  0.00     0.001 A 
HETATM   20  C   UNL     1      42.808 -14.880   5.423  1.00  0.00     0.020 A 
BRANCH  16  21
HETATM   21  O   UNL     1      43.277 -17.883   3.343  1.00  0.00    -0.355 OA
HETATM   22  C   UNL     1      44.235 -18.935   3.488  1.00  0.00     0.210 C 
ENDBRANCH  16  21
ENDBRANCH  12  15
ENDBRANCH   9  11
ENDBRANCH   7   9
ENDBRANCH   4   7
BRANCH   1  23
HETATM   23  N   UNL     1      43.424 -10.837   6.474  1.00  0.00    -0.378 N 
HETATM   24  C   UNL     1      44.676 -11.422   6.999  1.00  0.00     0.143 C 
HETATM   25  C   UNL     1      45.240 -10.545   8.133  1.00  0.00     0.146 C 
HETATM   26  N   UNL     1      44.251 -10.234   9.171  1.00  0.00    -0.345 N 
HETATM   27  C   UNL     1      44.756  -9.788  10.396  1.00  0.00     0.253 C 
HETATM   28  C   UNL     1      42.964  -9.746   8.649  1.00  0.00     0.146 C 
HETATM   29  O   UNL     1      45.957  -9.672  10.632  1.00  0.00    -0.267 OA
HETATM   30  C   UNL     1      42.403 -10.625   7.518  1.00  0.00     0.143 C 
BRANCH  27  31
HETATM   31  C   UNL     1      43.803  -9.465  11.483  1.00  0.00     0.032 A 
HETATM   32  C   UNL     1      43.053 -10.477  12.089  1.00  0.00     0.017 A 
HETATM   33  C   UNL     1      42.182 -10.162  13.135  1.00  0.00     0.007 A 
HETATM   34  C   UNL     1      42.060  -8.840  13.582  1.00  0.00    -0.062 A 
HETATM   35  C   UNL     1      41.158  -8.510  14.736  1.00  0.00     0.048 C 
HETATM   36  C   UNL     1      42.843  -7.840  12.990  1.00  0.00     0.007 A 
HETATM   37  C   UNL     1      43.716  -8.150  11.945  1.00  0.00     0.017 A 
ENDBRANCH  27  31
ENDBRANCH   1  23
TORSDOF 7
ENDMDL
MODEL 2
REMARK VINA RESULT:      -8.9      1.250      2.206
REMARK  7 active torsions:
REMARK  status: ('A' for Active; 'I' for Inactive)
REMARK    1  A    between atoms: C_5  and  C_6 
REMARK       I    between atoms: C_6  and  N_7 
REMARK    2  A    between atoms: N_10  and  C_11 
REMARK    3  A    between atoms: C_14  and  N_15 
REMARK    4  A    between atoms: N_15  and  C_16 
REMARK    5  A    between atoms: C_16  and  N_17 
REMARK       I    between atoms: N_17  and  C_18 
REMARK    6  A    between atoms: C_18  and  C_19 
REMARK    7  A    between atoms: C_20  and  O_21 
ROOT
HETATM    1  C   UNL     1      42.664 -11.654   4.721  1.00  0.00     0.030 A 
HETATM    2  C   UNL     1      41.341 -11.437   4.317  1.00  0.00     0.031 A 
HETATM    3  C   UNL     1      40.887 -11.785   3.037  1.00  0.00     0.032 A 
HETATM    4  C   UNL     1      41.756 -12.346   2.108  1.00  0.00     0.034 A 
HETATM    5  C   UNL     1      43.047 -12.672   2.522  1.00  0.00     0.032 A 
HETATM    6  C   UNL     1      43.494 -12.315   3.803  1.00  0.00     0.031 A 
ENDROOT
BRANCH   4   7
HETATM    7  N   UNL     1      41.404 -12.618   0.764  1.00  0.00    -0.333 N 
HETATM    8  H   UNL     1      41.244 -11.790   0.202  1.00  0.00     0.168 HD
BRANCH   7   9
HETATM    9  C   UNL     1      40.767 -13.753   0.242  1.00  0.00     0.179 C 
HETATM   10  S   UNL     1      39.569 -13.792  -0.928  1.00  0.00    -0.040 SA
BRANCH   9  11
HETATM   11  N   UNL     1      41.320 -14.900   0.834  1.00  0.00    -0.299 N 
HETATM   12  C   UNL     1      40.773 -15.692   1.841  1.00  0.00     0.260 C 
HETATM   13  O   UNL     1      39.582 -15.936   1.992  1.00  0.00    -0.267 OA
HETATM   14  H   UNL     1      42.316 -14.992   0.693  1.00  0.00     0.171 HD
BRANCH  12  15
HETATM   15  C   UNL     1      41.770 -16.369   2.697  1.00  0.00     0.065 A 
HETATM   16  C   UNL     1      41.987 -15.960   4.016  1.00  0.00     0.084 A 
HETATM   17  C   UNL     1      42.954 -16.599   4.795  1.00  0.00     0.038 A 
HETATM   18  C   UNL     1      43.729 -17.621   4.243  1.00  0.00     0.003 A 
HETATM   19  C   UNL     1      43.527 -18.017   2.920  1.00  0.00     0.001 A 
HETATM   20  C   UNL     1      42.548 -17.395   2.143  1.00  0.00     0.020 A 
BRANCH  16  21
HETATM   21  O   UNL     1      41.189 -15.014   4.600  1.00  0.00    -0.355 OA
HETATM   22  C   UNL     1      41.470 -14.919   6.000  1.00  0.00     0.210 C 
ENDBRANCH  16  21
ENDBRANCH  12  15
ENDBRANCH   9  11
ENDBRANCH   7   9
ENDBRANCH   4   7
BRANCH   1  23
HETATM   23  N   UNL     1      43.184 -11.168   5.919  1.00  0.00    -0.378 N 
HETATM   24  C   UNL     1      44.583 -11.506   6.258  1.00  0.00     0.143 C 
HETATM   25  C   UNL     1      45.150 -10.486   7.263  1.00  0.00     0.146 C 
HETATM   26  N   UNL     1      44.288 -10.289   8.435  1.00  0.00    -0.345 N 
HETATM   27  C   UNL     1      44.886  -9.698   9.553  1.00  0.00     0.253 C 
HETATM   28  C   UNL     1      42.873 -10.053   8.108  1.00  0.00     0.146 C 
HETATM   29  O   UNL     1      46.070  -9.371   9.594  1.00  0.00    -0.267 OA
HETATM   30  C   UNL     1      42.309 -11.073   7.104  1.00  0.00     0.143 C 
BRANCH  27  31
HETATM   31  C   UNL     1      44.065  -9.480  10.766  1.00  0.00     0.032 A 
HETATM   32  C   UNL     1      43.686  -8.188  11.141  1.00  0.00     0.017 A 
HETATM   33  C   UNL     1      42.883  -8.000  12.268  1.00  0.00     0.007 A 
HETATM   34  C   UNL     1      42.453  -9.100  13.023  1.00  0.00    -0.062 A 
HETATM   35  C   UNL     1      41.554  -8.901  14.208  1.00  0.00     0.048 C 
HETATM   36  C   UNL     1      42.811 -10.393  12.617  1.00  0.00     0.007 A 
HETATM   37  C   UNL     1      43.612 -10.585  11.489  1.00  0.00     0.017 A 
ENDBRANCH  27  31
ENDBRANCH   1  23
TORSDOF 7
ENDMDL
MODEL 3
REMARK VINA RESULT:      -8.2      2.290      3.483
REMARK  7 active torsions:
REMARK  status: ('A' for Active; 'I' for Inactive)
REMARK    1  A    between atoms: C_5  and  C_6 
REMARK       I    between atoms: C_6  and  N_7 
REMARK    2  A    between atoms: N_10  and  C_11 
REMARK    3  A    between atoms: C_14  and  N_15 
REMARK    4  A    between atoms: N_15  and  C_16 
REMARK    5  A    between atoms: C_16  and  N_17 
REMARK       I    between atoms: N_17  and  C_18 
REMARK    6  A    between atoms: C_18  and  C_19 
REMARK    7  A    between atoms: C_20  and  O_21 
ROOT
HETATM    1  C   UNL     1      42.218  -9.705   7.585  1.00  0.00     0.030 A 
HETATM    2  C   UNL     1      43.376 -10.364   7.152  1.00  0.00     0.031 A 
HETATM    3  C   UNL     1      43.332 -11.406   6.215  1.00  0.00     0.032 A 
HETATM    4  C   UNL     1      42.117 -11.837   5.694  1.00  0.00     0.034 A 
HETATM    5  C   UNL     1      40.965 -11.125   6.026  1.00  0.00     0.032 A 
HETATM    6  C   UNL     1      41.018 -10.087   6.969  1.00  0.00     0.031 A 
ENDROOT
BRANCH   4   7
HETATM    7  N   UNL     1      41.980 -12.954   4.835  1.00  0.00    -0.333 N 
HETATM    8  H   UNL     1      42.089 -13.849   5.298  1.00  0.00     0.168 HD
BRANCH   7   9
HETATM    9  C   UNL     1      42.226 -13.028   3.456  1.00  0.00     0.179 C 
HETATM   10  S   UNL     1      42.036 -11.806   2.327  1.00  0.00    -0.040 SA
BRANCH   9  11
HETATM   11  N   UNL     1      42.709 -14.310   3.147  1.00  0.00    -0.299 N 
HETATM   12  C   UNL     1      41.987 -15.498   3.057  1.00  0.00     0.260 C 
HETATM   13  O   UNL     1      40.837 -15.608   2.651  1.00  0.00    -0.267 OA
HETATM   14  H   UNL     1      43.708 -14.409   3.263  1.00  0.00     0.171 HD
BRANCH  12  15
HETATM   15  C   UNL     1      42.766 -16.713   3.378  1.00  0.00     0.065 A 
HETATM   16  C   UNL     1      43.459 -16.830   4.587  1.00  0.00     0.084 A 
HETATM   17  C   UNL     1      44.209 -17.977   4.853  1.00  0.00     0.038 A 
HETATM   18  C   UNL     1      44.297 -18.990   3.896  1.00  0.00     0.003 A 
HETATM   19  C   UNL     1      43.622 -18.866   2.680  1.00  0.00     0.001 A 
HETATM   20  C   UNL     1      42.854 -17.730   2.417  1.00  0.00     0.020 A 
BRANCH  16  21
HETATM   21  O   UNL     1      43.326 -15.886   5.569  1.00  0.00    -0.355 OA
HETATM   22  C   UNL     1      42.497 -16.379   6.626  1.00  0.00     0.210 C 
ENDBRANCH  16  21
ENDBRANCH  12  15
ENDBRANCH   9  11
ENDBRANCH   7   9
ENDBRANCH   4   7
BRANCH   1  23
HETATM   23  N   UNL     1      42.212  -8.786   8.632  1.00  0.00    -0.378 N 
HETATM   24  C   UNL     1      43.166  -7.658   8.572  1.00  0.00     0.143 C 
HETATM   25  C   UNL     1      42.672  -6.494   9.453  1.00  0.00     0.146 C 
HETATM   26  N   UNL     1      42.330  -6.908  10.819  1.00  0.00    -0.345 N 
HETATM   27  C   UNL     1      42.251  -5.890  11.775  1.00  0.00     0.253 C 
HETATM   28  C   UNL     1      41.462  -8.094  10.889  1.00  0.00     0.146 C 
HETATM   29  O   UNL     1      42.471  -4.707  11.524  1.00  0.00    -0.267 OA
HETATM   30  C   UNL     1      41.958  -9.255  10.008  1.00  0.00     0.143 C 
BRANCH  27  31
HETATM   31  C   UNL     1      41.915  -6.251  13.171  1.00  0.00     0.032 A 
HETATM   32  C   UNL     1      40.615  -6.076  13.654  1.00  0.00     0.017 A 
HETATM   33  C   UNL     1      40.304  -6.452  14.962  1.00  0.00     0.007 A 
HETATM   34  C   UNL     1      41.288  -7.007  15.792  1.00  0.00    -0.062 A 
HETATM   35  C   UNL     1      40.942  -7.452  17.184  1.00  0.00     0.048 C 
HETATM   36  C   UNL     1      42.578  -7.210  15.286  1.00  0.00     0.007 A 
HETATM   37  C   UNL     1      42.893  -6.837  13.978  1.00  0.00     0.017 A 
ENDBRANCH  27  31
ENDBRANCH   1  23
TORSDOF 7
ENDMDL
MODEL 4
REMARK VINA RESULT:      -8.1      3.801      6.788
REMARK  7 active torsions:
REMARK  status: ('A' for Active; 'I' for Inactive)
REMARK    1  A    between atoms: C_5  and  C_6 
REMARK       I    between atoms: C_6  and  N_7 
REMARK    2  A    between atoms: N_10  and  C_11 
REMARK    3  A    between atoms: C_14  and  N_15 
REMARK    4  A    between atoms: N_15  and  C_16 
REMARK    5  A    between atoms: C_16  and  N_17 
REMARK       I    between atoms: N_17  and  C_18 
REMARK    6  A    between atoms: C_18  and  C_19 
REMARK    7  A    between atoms: C_20  and  O_21 
ROOT
HETATM    1  C   UNL     1      42.780  -8.269  11.869  1.00  0.00     0.030 A 
HETATM    2  C   UNL     1      43.339  -9.531  11.628  1.00  0.00     0.031 A 
HETATM    3  C   UNL     1      43.607  -9.990  10.330  1.00  0.00     0.032 A 
HETATM    4  C   UNL     1      43.303  -9.203   9.225  1.00  0.00     0.034 A 
HETATM    5  C   UNL     1      42.850  -7.902   9.444  1.00  0.00     0.032 A 
HETATM    6  C   UNL     1      42.579  -7.453  10.746  1.00  0.00     0.031 A 
ENDROOT
BRANCH   4   7
HETATM    7  N   UNL     1      43.437  -9.639   7.886  1.00  0.00    -0.333 N 
HETATM    8  H   UNL     1      44.234  -9.244   7.399  1.00  0.00     0.168 HD
BRANCH   7   9
HETATM    9  C   UNL     1      42.436 -10.080   7.008  1.00  0.00     0.179 C 
HETATM   10  S   UNL     1      41.339  -9.133   6.169  1.00  0.00    -0.040 SA
BRANCH   9  11
HETATM   11  N   UNL     1      42.508 -11.478   6.898  1.00  0.00    -0.299 N 
HETATM   12  C   UNL     1      43.649 -12.277   6.876  1.00  0.00     0.260 C 
HETATM   13  O   UNL     1      44.683 -12.066   7.495  1.00  0.00    -0.267 OA
HETATM   14  H   UNL     1      41.664 -11.903   6.540  1.00  0.00     0.171 HD
BRANCH  12  15
HETATM   15  C   UNL     1      43.497 -13.538   6.118  1.00  0.00     0.065 A 
HETATM   16  C   UNL     1      42.989 -13.542   4.816  1.00  0.00     0.084 A 
HETATM   17  C   UNL     1      42.832 -14.750   4.133  1.00  0.00     0.038 A 
HETATM   18  C   UNL     1      43.146 -15.954   4.765  1.00  0.00     0.003 A 
HETATM   19  C   UNL     1      43.635 -15.953   6.072  1.00  0.00     0.001 A 
HETATM   20  C   UNL     1      43.814 -14.747   6.753  1.00  0.00     0.020 A 
BRANCH  16  21
HETATM   21  O   UNL     1      42.746 -12.371   4.150  1.00  0.00    -0.355 OA
HETATM   22  C   UNL     1      42.692 -12.601   2.739  1.00  0.00     0.210 C 
ENDBRANCH  16  21
ENDBRANCH  12  15
ENDBRANCH   9  11
ENDBRANCH   7   9
ENDBRANCH   4   7
BRANCH   1  23
HETATM   23  N   UNL     1      42.350  -7.855  13.128  1.00  0.00    -0.378 N 
HETATM   24  C   UNL     1      42.689  -6.483  13.562  1.00  0.00     0.143 C 
HETATM   25  C   UNL     1      41.714  -6.015  14.659  1.00  0.00     0.146 C 
HETATM   26  N   UNL     1      41.585  -6.971  15.766  1.00  0.00    -0.345 N 
HETATM   27  C   UNL     1      41.045  -6.474  16.956  1.00  0.00     0.253 C 
HETATM   28  C   UNL     1      41.349  -8.359  15.337  1.00  0.00     0.146 C 
HETATM   29  O   UNL     1      40.707  -5.303  17.109  1.00  0.00    -0.267 OA
HETATM   30  C   UNL     1      42.324  -8.824  14.241  1.00  0.00     0.143 C 
BRANCH  27  31
HETATM   31  C   UNL     1      40.897  -7.393  18.107  1.00  0.00     0.032 A 
HETATM   32  C   UNL     1      42.017  -7.786  18.847  1.00  0.00     0.017 A 
HETATM   33  C   UNL     1      41.859  -8.627  19.950  1.00  0.00     0.007 A 
HETATM   34  C   UNL     1      40.585  -9.075  20.323  1.00  0.00    -0.062 A 
HETATM   35  C   UNL     1      40.411  -9.943  21.536  1.00  0.00     0.048 C 
HETATM   36  C   UNL     1      39.466  -8.647  19.595  1.00  0.00     0.007 A 
HETATM   37  C   UNL     1      39.619  -7.805  18.491  1.00  0.00     0.017 A 
ENDBRANCH  27  31
ENDBRANCH   1  23
TORSDOF 7
ENDMDL
MODEL 5
REMARK VINA RESULT:      -7.9      2.038      2.751
REMARK  7 active torsions:
REMARK  status: ('A' for Active; 'I' for Inactive)
REMARK    1  A    between atoms: C_5  and  C_6 
REMARK       I    between atoms: C_6  and  N_7 
REMARK    2  A    between atoms: N_10  and  C_11 
REMARK    3  A    between atoms: C_14  and  N_15 
REMARK    4  A    between atoms: N_15  and  C_16 
REMARK    5  A    between atoms: C_16  and  N_17 
REMARK       I    between atoms: N_17  and  C_18 
REMARK    6  A    between atoms: C_18  and  C_19 
REMARK    7  A    between atoms: C_20  and  O_21 
ROOT
HETATM    1  C   UNL     1      43.063 -10.712   5.081  1.00  0.00     0.030 A 
HETATM    2  C   UNL     1      43.620 -11.691   4.248  1.00  0.00     0.031 A 
HETATM    3  C   UNL     1      43.177 -11.886   2.931  1.00  0.00     0.032 A 
HETATM    4  C   UNL     1      42.144 -11.115   2.411  1.00  0.00     0.034 A 
HETATM    5  C   UNL     1      41.650 -10.064   3.183  1.00  0.00     0.032 A 
HETATM    6  C   UNL     1      42.094  -9.880   4.502  1.00  0.00     0.031 A 
ENDROOT
BRANCH   4   7
HETATM    7  N   UNL     1      41.567 -11.327   1.136  1.00  0.00    -0.333 N 
HETATM    8  H   UNL     1      41.328 -10.475   0.643  1.00  0.00     0.168 HD
BRANCH   7   9
HETATM    9  C   UNL     1      40.832 -12.434   0.685  1.00  0.00     0.179 C 
HETATM   10  S   UNL     1      40.160 -12.651  -0.833  1.00  0.00    -0.040 SA
BRANCH   9  11
HETATM   11  N   UNL     1      40.766 -13.388   1.714  1.00  0.00    -0.299 N 
HETATM   12  C   UNL     1      39.799 -13.508   2.709  1.00  0.00     0.260 C 
HETATM   13  O   UNL     1      38.607 -13.259   2.583  1.00  0.00    -0.267 OA
HETATM   14  H   UNL     1      41.643 -13.857   1.892  1.00  0.00     0.171 HD
BRANCH  12  15
HETATM   15  C   UNL     1      40.289 -14.108   3.969  1.00  0.00     0.065 A 
HETATM   16  C   UNL     1      40.380 -13.352   5.142  1.00  0.00     0.084 A 
HETATM   17  C   UNL     1      40.872 -13.936   6.311  1.00  0.00     0.038 A 
HETATM   18  C   UNL     1      41.306 -15.262   6.298  1.00  0.00     0.003 A 
HETATM   19  C   UNL     1      41.234 -16.012   5.123  1.00  0.00     0.001 A 
HETATM   20  C   UNL     1      40.725 -15.440   3.956  1.00  0.00     0.020 A 
BRANCH  16  21
HETATM   21  O   UNL     1      39.891 -12.074   5.197  1.00  0.00    -0.355 OA
HETATM   22  C   UNL     1      39.240 -11.843   6.450  1.00  0.00     0.210 C 
ENDBRANCH  16  21
ENDBRANCH  12  15
ENDBRANCH   9  11
ENDBRANCH   7   9
ENDBRANCH   4   7
BRANCH   1  23
HETATM   23  N   UNL     1      43.363 -10.608   6.438  1.00  0.00    -0.378 N 
HETATM   24  C   UNL     1      44.168 -11.683   7.056  1.00  0.00     0.143 C 
HETATM   25  C   UNL     1      44.855 -11.167   8.334  1.00  0.00     0.146 C 
HETATM   26  N   UNL     1      43.928 -10.511   9.265  1.00  0.00    -0.345 N 
HETATM   27  C   UNL     1      44.372 -10.365  10.583  1.00  0.00     0.253 C 
HETATM   28  C   UNL     1      43.052  -9.511   8.636  1.00  0.00     0.146 C 
HETATM   29  O   UNL     1      45.461 -10.772  10.980  1.00  0.00    -0.267 OA
HETATM   30  C   UNL     1      42.367 -10.029   7.359  1.00  0.00     0.143 C 
BRANCH  27  31
HETATM   31  C   UNL     1      43.475  -9.716  11.566  1.00  0.00     0.032 A 
HETATM   32  C   UNL     1      42.389 -10.414  12.102  1.00  0.00     0.017 A 
HETATM   33  C   UNL     1      41.571  -9.801  13.054  1.00  0.00     0.007 A 
HETATM   34  C   UNL     1      41.836  -8.491  13.477  1.00  0.00    -0.062 A 
HETATM   35  C   UNL     1      40.983  -7.849  14.532  1.00  0.00     0.048 C 
HETATM   36  C   UNL     1      42.948  -7.814  12.959  1.00  0.00     0.007 A 
HETATM   37  C   UNL     1      43.770  -8.424  12.008  1.00  0.00     0.017 A 
ENDBRANCH  27  31
ENDBRANCH   1  23
TORSDOF 7
ENDMDL
MODEL 6
REMARK VINA RESULT:      -7.7      2.477      3.435
REMARK  7 active torsions:
REMARK  status: ('A' for Active; 'I' for Inactive)
REMARK    1  A    between atoms: C_5  and  C_6 
REMARK       I    between atoms: C_6  and  N_7 
REMARK    2  A    between atoms: N_10  and  C_11 
REMARK    3  A    between atoms: C_14  and  N_15 
REMARK    4  A    between atoms: N_15  and  C_16 
REMARK    5  A    between atoms: C_16  and  N_17 
REMARK       I    between atoms: N_17  and  C_18 
REMARK    6  A    between atoms: C_18  and  C_19 
REMARK    7  A    between atoms: C_20  and  O_21 
ROOT
HETATM    1  C   UNL     1      41.697 -10.797   5.674  1.00  0.00     0.030 A 
HETATM    2  C   UNL     1      42.157 -10.525   4.379  1.00  0.00     0.031 A 
HETATM    3  C   UNL     1      42.229 -11.518   3.392  1.00  0.00     0.032 A 
HETATM    4  C   UNL     1      41.861 -12.827   3.678  1.00  0.00     0.034 A 
HETATM    5  C   UNL     1      41.298 -13.098   4.925  1.00  0.00     0.032 A 
HETATM    6  C   UNL     1      41.235 -12.100   5.909  1.00  0.00     0.031 A 
ENDROOT
BRANCH   4   7
HETATM    7  N   UNL     1      42.013 -13.905   2.773  1.00  0.00    -0.333 N 
HETATM    8  H   UNL     1      42.351 -13.632   1.857  1.00  0.00     0.168 HD
BRANCH   7   9
HETATM    9  C   UNL     1      41.326 -15.128   2.750  1.00  0.00     0.179 C 
HETATM   10  S   UNL     1      39.768 -15.403   2.202  1.00  0.00    -0.040 SA
BRANCH   9  11
HETATM   11  N   UNL     1      42.174 -16.136   3.237  1.00  0.00    -0.299 N 
HETATM   12  C   UNL     1      43.186 -16.806   2.554  1.00  0.00     0.260 C 
HETATM   13  O   UNL     1      43.913 -16.322   1.696  1.00  0.00    -0.267 OA
HETATM   14  H   UNL     1      41.832 -16.587   4.074  1.00  0.00     0.171 HD
BRANCH  12  15
HETATM   15  C   UNL     1      43.440 -18.182   3.033  1.00  0.00     0.065 A 
HETATM   16  C   UNL     1      43.917 -18.421   4.326  1.00  0.00     0.084 A 
HETATM   17  C   UNL     1      44.174 -19.728   4.744  1.00  0.00     0.038 A 
HETATM   18  C   UNL     1      43.989 -20.792   3.858  1.00  0.00     0.003 A 
HETATM   19  C   UNL     1      43.532 -20.553   2.562  1.00  0.00     0.001 A 
HETATM   20  C   UNL     1      43.254 -19.250   2.145  1.00  0.00     0.020 A 
BRANCH  16  21
HETATM   21  O   UNL     1      44.033 -17.403   5.233  1.00  0.00    -0.355 OA
HETATM   22  C   UNL     1      43.438 -17.775   6.480  1.00  0.00     0.210 C 
ENDBRANCH  16  21
ENDBRANCH  12  15
ENDBRANCH   9  11
ENDBRANCH   7   9
ENDBRANCH   4   7
BRANCH   1  23
HETATM   23  N   UNL     1      41.772  -9.876   6.717  1.00  0.00    -0.378 N 
HETATM   24  C   UNL     1      43.046  -9.770   7.460  1.00  0.00     0.143 C 
HETATM   25  C   UNL     1      43.146  -8.399   8.155  1.00  0.00     0.146 C 
HETATM   26  N   UNL     1      41.962  -8.069   8.958  1.00  0.00    -0.345 N 
HETATM   27  C   UNL     1      42.120  -7.056   9.909  1.00  0.00     0.253 C 
HETATM   28  C   UNL     1      40.684  -8.270   8.256  1.00  0.00     0.146 C 
HETATM   29  O   UNL     1      43.182  -6.470  10.104  1.00  0.00    -0.267 OA
HETATM   30  C   UNL     1      40.587  -9.641   7.564  1.00  0.00     0.143 C 
BRANCH  27  31
HETATM   31  C   UNL     1      40.960  -6.687  10.752  1.00  0.00     0.032 A 
HETATM   32  C   UNL     1      40.363  -5.429  10.622  1.00  0.00     0.017 A 
HETATM   33  C   UNL     1      39.248  -5.106  11.399  1.00  0.00     0.007 A 
HETATM   34  C   UNL     1      38.724  -6.037  12.306  1.00  0.00    -0.062 A 
HETATM   35  C   UNL     1      37.499  -5.705  13.109  1.00  0.00     0.048 C 
HETATM   36  C   UNL     1      39.308  -7.307  12.402  1.00  0.00     0.007 A 
HETATM   37  C   UNL     1      40.422  -7.634  11.626  1.00  0.00     0.017 A 
ENDBRANCH  27  31
ENDBRANCH   1  23
TORSDOF 7
ENDMDL
MODEL 7
REMARK VINA RESULT:      -7.6      3.267      4.231
REMARK  7 active torsions:
REMARK  status: ('A' for Active; 'I' for Inactive)
REMARK    1  A    between atoms: C_5  and  C_6 
REMARK       I    between atoms: C_6  and  N_7 
REMARK    2  A    between atoms: N_10  and  C_11 
REMARK    3  A    between atoms: C_14  and  N_15 
REMARK    4  A    between atoms: N_15  and  C_16 
REMARK    5  A    between atoms: C_16  and  N_17 
REMARK       I    between atoms: N_17  and  C_18 
REMARK    6  A    between atoms: C_18  and  C_19 
REMARK    7  A    between atoms: C_20  and  O_21 
ROOT
HETATM    1  C   UNL     1      41.705  -9.521   5.429  1.00  0.00     0.030 A 
HETATM    2  C   UNL     1      40.847  -8.476   5.065  1.00  0.00     0.031 A 
HETATM    3  C   UNL     1      40.441  -8.276   3.737  1.00  0.00     0.032 A 
HETATM    4  C   UNL     1      40.901  -9.109   2.724  1.00  0.00     0.034 A 
HETATM    5  C   UNL     1      41.666 -10.220   3.078  1.00  0.00     0.032 A 
HETATM    6  C   UNL     1      42.073 -10.409   4.408  1.00  0.00     0.031 A 
ENDROOT
BRANCH   4   7
HETATM    7  N   UNL     1      40.629  -8.904   1.350  1.00  0.00    -0.333 N 
HETATM    8  H   UNL     1      41.110  -8.108   0.948  1.00  0.00     0.168 HD
BRANCH   7   9
HETATM    9  C   UNL     1      39.484  -9.264   0.625  1.00  0.00     0.179 C 
HETATM   10  S   UNL     1      38.322  -8.237  -0.006  1.00  0.00    -0.040 SA
BRANCH   9  11
HETATM   11  N   UNL     1      39.466 -10.659   0.464  1.00  0.00    -0.299 N 
HETATM   12  C   UNL     1      38.715 -11.593   1.174  1.00  0.00     0.260 C 
HETATM   13  O   UNL     1      37.583 -11.422   1.608  1.00  0.00    -0.267 OA
HETATM   14  H   UNL     1      40.267 -11.023  -0.033  1.00  0.00     0.171 HD
BRANCH  12  15
HETATM   15  C   UNL     1      39.341 -12.929   1.278  1.00  0.00     0.065 A 
HETATM   16  C   UNL     1      39.698 -13.651   0.135  1.00  0.00     0.084 A 
HETATM   17  C   UNL     1      40.263 -14.922   0.261  1.00  0.00     0.038 A 
HETATM   18  C   UNL     1      40.436 -15.485   1.526  1.00  0.00     0.003 A 
HETATM   19  C   UNL     1      40.063 -14.774   2.667  1.00  0.00     0.001 A 
HETATM   20  C   UNL     1      39.516 -13.495   2.549  1.00  0.00     0.020 A 
BRANCH  16  21
HETATM   21  O   UNL     1      39.607 -13.089  -1.110  1.00  0.00    -0.355 OA
HETATM   22  C   UNL     1      39.694 -14.098  -2.121  1.00  0.00     0.210 C 
ENDBRANCH  16  21
ENDBRANCH  12  15
ENDBRANCH   9  11
ENDBRANCH   7   9
ENDBRANCH   4   7
BRANCH   1  23
HETATM   23  N   UNL     1      42.257  -9.643   6.703  1.00  0.00    -0.378 N 
HETATM   24  C   UNL     1      43.062 -10.847   6.999  1.00  0.00     0.143 C 
HETATM   25  C   UNL     1      44.014 -10.576   8.179  1.00  0.00     0.146 C 
HETATM   26  N   UNL     1      43.336 -10.014   9.353  1.00  0.00    -0.345 N 
HETATM   27  C   UNL     1      44.024 -10.099  10.567  1.00  0.00     0.253 C 
HETATM   28  C   UNL     1      42.452  -8.877   9.050  1.00  0.00     0.146 C 
HETATM   29  O   UNL     1      45.127 -10.627  10.685  1.00  0.00    -0.267 OA
HETATM   30  C   UNL     1      41.502  -9.151   7.871  1.00  0.00     0.143 C 
BRANCH  27  31
HETATM   31  C   UNL     1      43.385  -9.553  11.786  1.00  0.00     0.032 A 
HETATM   32  C   UNL     1      43.739  -8.289  12.265  1.00  0.00     0.017 A 
HETATM   33  C   UNL     1      43.104  -7.773  13.397  1.00  0.00     0.007 A 
HETATM   34  C   UNL     1      42.110  -8.513  14.051  1.00  0.00    -0.062 A 
HETATM   35  C   UNL     1      41.396  -7.939  15.240  1.00  0.00     0.048 C 
HETATM   36  C   UNL     1      41.738  -9.764  13.540  1.00  0.00     0.007 A 
HETATM   37  C   UNL     1      42.370 -10.283  12.408  1.00  0.00     0.017 A 
ENDBRANCH  27  31
ENDBRANCH   1  23
TORSDOF 7
ENDMDL
MODEL 8
REMARK VINA RESULT:      -7.3     17.957     20.399
REMARK  7 active torsions:
REMARK  status: ('A' for Active; 'I' for Inactive)
REMARK    1  A    between atoms: C_5  and  C_6 
REMARK       I    between atoms: C_6  and  N_7 
REMARK    2  A    between atoms: N_10  and  C_11 
REMARK    3  A    between atoms: C_14  and  N_15 
REMARK    4  A    between atoms: N_15  and  C_16 
REMARK    5  A    between atoms: C_16  and  N_17 
REMARK       I    between atoms: N_17  and  C_18 
REMARK    6  A    between atoms: C_18  and  C_19 
REMARK    7  A    between atoms: C_20  and  O_21 
ROOT
HETATM    1  C   UNL     1      48.081 -30.899   3.317  1.00  0.00     0.030 A 
HETATM    2  C   UNL     1      46.921 -31.627   3.022  1.00  0.00     0.031 A 
HETATM    3  C   UNL     1      45.749 -31.007   2.568  1.00  0.00     0.032 A 
HETATM    4  C   UNL     1      45.694 -29.627   2.412  1.00  0.00     0.034 A 
HETATM    5  C   UNL     1      46.867 -28.894   2.593  1.00  0.00     0.032 A 
HETATM    6  C   UNL     1      48.034 -29.522   3.054  1.00  0.00     0.031 A 
ENDROOT
BRANCH   4   7
HETATM    7  N   UNL     1      44.518 -28.918   2.069  1.00  0.00    -0.333 N 
HETATM    8  H   UNL     1      44.388 -28.056   2.586  1.00  0.00     0.168 HD
BRANCH   7   9
HETATM    9  C   UNL     1      43.315 -29.423   1.555  1.00  0.00     0.179 C 
HETATM   10  S   UNL     1      42.002 -29.989   2.426  1.00  0.00    -0.040 SA
BRANCH   9  11
HETATM   11  N   UNL     1      43.351 -29.350   0.153  1.00  0.00    -0.299 N 
HETATM   12  C   UNL     1      43.987 -30.216  -0.733  1.00  0.00     0.260 C 
HETATM   13  O   UNL     1      44.111 -31.426  -0.587  1.00  0.00    -0.267 OA
HETATM   14  H   UNL     1      43.115 -28.439  -0.215  1.00  0.00     0.171 HD
BRANCH  12  15
HETATM   15  C   UNL     1      44.422 -29.587  -1.998  1.00  0.00     0.065 A 
HETATM   16  C   UNL     1      45.199 -28.424  -1.997  1.00  0.00     0.084 A 
HETATM   17  C   UNL     1      45.575 -27.835  -3.206  1.00  0.00     0.038 A 
HETATM   18  C   UNL     1      45.143 -28.387  -4.413  1.00  0.00     0.003 A 
HETATM   19  C   UNL     1      44.352 -29.536  -4.416  1.00  0.00     0.001 A 
HETATM   20  C   UNL     1      43.990 -30.141  -3.211  1.00  0.00     0.020 A 
BRANCH  16  21
HETATM   21  O   UNL     1      45.695 -27.910  -0.830  1.00  0.00    -0.355 OA
HETATM   22  C   UNL     1      47.126 -27.939  -0.840  1.00  0.00     0.210 C 
ENDBRANCH  16  21
ENDBRANCH  12  15
ENDBRANCH   9  11
ENDBRANCH   7   9
ENDBRANCH   4   7
BRANCH   1  23
HETATM   23  N   UNL     1      49.200 -31.463   3.926  1.00  0.00    -0.378 N 
HETATM   24  C   UNL     1      49.336 -32.935   3.900  1.00  0.00     0.143 C 
HETATM   25  C   UNL     1      50.811 -33.338   4.094  1.00  0.00     0.146 C 
HETATM   26  N   UNL     1      51.434 -32.705   5.264  1.00  0.00    -0.345 N 
HETATM   27  C   UNL     1      52.612 -33.294   5.733  1.00  0.00     0.253 C 
HETATM   28  C   UNL     1      51.215 -31.253   5.349  1.00  0.00     0.146 C 
HETATM   29  O   UNL     1      53.114 -34.298   5.233  1.00  0.00    -0.267 OA
HETATM   30  C   UNL     1      49.741 -30.854   5.156  1.00  0.00     0.143 C 
BRANCH  27  31
HETATM   31  C   UNL     1      53.281 -32.700   6.913  1.00  0.00     0.032 A 
HETATM   32  C   UNL     1      54.515 -32.057   6.779  1.00  0.00     0.017 A 
HETATM   33  C   UNL     1      55.118 -31.473   7.895  1.00  0.00     0.007 A 
HETATM   34  C   UNL     1      54.492 -31.525   9.147  1.00  0.00    -0.062 A 
HETATM   35  C   UNL     1      55.119 -30.859  10.337  1.00  0.00     0.048 C 
HETATM   36  C   UNL     1      53.238 -32.142   9.263  1.00  0.00     0.007 A 
HETATM   37  C   UNL     1      52.631 -32.726   8.149  1.00  0.00     0.017 A 
ENDBRANCH  27  31
ENDBRANCH   1  23
TORSDOF 7
ENDMDL
MODEL 9
REMARK VINA RESULT:      -7.3     18.747     22.084
REMARK  7 active torsions:
REMARK  status: ('A' for Active; 'I' for Inactive)
REMARK    1  A    between atoms: C_5  and  C_6 
REMARK       I    between atoms: C_6  and  N_7 
REMARK    2  A    between atoms: N_10  and  C_11 
REMARK    3  A    between atoms: C_14  and  N_15 
REMARK    4  A    between atoms: N_15  and  C_16 
REMARK    5  A    between atoms: C_16  and  N_17 
REMARK       I    between atoms: N_17  and  C_18 
REMARK    6  A    between atoms: C_18  and  C_19 
REMARK    7  A    between atoms: C_20  and  O_21 
ROOT
HETATM    1  C   UNL     1      48.638 -30.237   3.075  1.00  0.00     0.030 A 
HETATM    2  C   UNL     1      48.486 -30.753   4.368  1.00  0.00     0.031 A 
HETATM    3  C   UNL     1      49.587 -31.082   5.172  1.00  0.00     0.032 A 
HETATM    4  C   UNL     1      50.883 -30.923   4.695  1.00  0.00     0.034 A 
HETATM    5  C   UNL     1      51.061 -30.309   3.455  1.00  0.00     0.032 A 
HETATM    6  C   UNL     1      49.953 -29.989   2.655  1.00  0.00     0.031 A 
ENDROOT
BRANCH   4   7
HETATM    7  N   UNL     1      52.039 -31.338   5.399  1.00  0.00    -0.333 N 
HETATM    8  H   UNL     1      52.885 -30.850   5.129  1.00  0.00     0.168 HD
BRANCH   7   9
HETATM    9  C   UNL     1      52.300 -32.584   5.987  1.00  0.00     0.179 C 
HETATM   10  S   UNL     1      52.397 -34.067   5.215  1.00  0.00    -0.040 SA
BRANCH   9  11
HETATM   11  N   UNL     1      52.514 -32.403   7.363  1.00  0.00    -0.299 N 
HETATM   12  C   UNL     1      53.463 -31.593   7.982  1.00  0.00     0.260 C 
HETATM   13  O   UNL     1      53.861 -30.512   7.568  1.00  0.00    -0.267 OA
HETATM   14  H   UNL     1      52.113 -33.131   7.937  1.00  0.00     0.171 HD
BRANCH  12  15
HETATM   15  C   UNL     1      53.903 -32.071   9.311  1.00  0.00     0.065 A 
HETATM   16  C   UNL     1      52.975 -32.418  10.297  1.00  0.00     0.084 A 
HETATM   17  C   UNL     1      53.417 -32.841  11.552  1.00  0.00     0.038 A 
HETATM   18  C   UNL     1      54.784 -32.882  11.832  1.00  0.00     0.003 A 
HETATM   19  C   UNL     1      55.711 -32.518  10.855  1.00  0.00     0.001 A 
HETATM   20  C   UNL     1      55.275 -32.113   9.591  1.00  0.00     0.020 A 
BRANCH  16  21
HETATM   21  O   UNL     1      51.635 -32.457  10.022  1.00  0.00    -0.355 OA
HETATM   22  C   UNL     1      50.881 -32.616  11.228  1.00  0.00     0.210 C 
ENDBRANCH  16  21
ENDBRANCH  12  15
ENDBRANCH   9  11
ENDBRANCH   7   9
ENDBRANCH   4   7
BRANCH   1  23
HETATM   23  N   UNL     1      47.571 -30.059   2.196  1.00  0.00    -0.378 N 
HETATM   24  C   UNL     1      46.200 -30.153   2.740  1.00  0.00     0.143 C 
HETATM   25  C   UNL     1      45.210 -29.412   1.822  1.00  0.00     0.146 C 
HETATM   26  N   UNL     1      45.317 -29.812   0.413  1.00  0.00    -0.345 N 
HETATM   27  C   UNL     1      44.230 -29.494  -0.407  1.00  0.00     0.253 C 
HETATM   28  C   UNL     1      46.693 -29.819  -0.107  1.00  0.00     0.146 C 
HETATM   29  O   UNL     1      43.216 -28.931   0.001  1.00  0.00    -0.267 OA
HETATM   30  C   UNL     1      47.680 -30.561   0.813  1.00  0.00     0.143 C 
BRANCH  27  31
HETATM   31  C   UNL     1      44.281 -29.879  -1.835  1.00  0.00     0.032 A 
HETATM   32  C   UNL     1      44.232 -31.226  -2.207  1.00  0.00     0.017 A 
HETATM   33  C   UNL     1      44.247 -31.573  -3.560  1.00  0.00     0.007 A 
HETATM   34  C   UNL     1      44.307 -30.579  -4.546  1.00  0.00    -0.062 A 
HETATM   35  C   UNL     1      44.279 -30.951  -6.000  1.00  0.00     0.048 C 
HETATM   36  C   UNL     1      44.320 -29.231  -4.162  1.00  0.00     0.007 A 
HETATM   37  C   UNL     1      44.303 -28.880  -2.811  1.00  0.00     0.017 A 
ENDBRANCH  27  31
ENDBRANCH   1  23
TORSDOF 7
ENDMDL
MODEL 10
REMARK VINA RESULT:      -7.3      6.508     10.792
REMARK  7 active torsions:
REMARK  status: ('A' for Active; 'I' for Inactive)
REMARK    1  A    between atoms: C_5  and  C_6 
REMARK       I    between atoms: C_6  and  N_7 
REMARK    2  A    between atoms: N_10  and  C_11 
REMARK    3  A    between atoms: C_14  and  N_15 
REMARK    4  A    between atoms: N_15  and  C_16 
REMARK    5  A    between atoms: C_16  and  N_17 
REMARK       I    between atoms: N_17  and  C_18 
REMARK    6  A    between atoms: C_18  and  C_19 
REMARK    7  A    between atoms: C_20  and  O_21 
ROOT
HETATM    1  C   UNL     1      40.144 -12.860  -0.239  1.00  0.00     0.030 A 
HETATM    2  C   UNL     1      40.847 -12.506   0.920  1.00  0.00     0.031 A 
HETATM    3  C   UNL     1      41.040 -13.408   1.977  1.00  0.00     0.032 A 
HETATM    4  C   UNL     1      40.514 -14.693   1.915  1.00  0.00     0.034 A 
HETATM    5  C   UNL     1      39.907 -15.103   0.729  1.00  0.00     0.032 A 
HETATM    6  C   UNL     1      39.713 -14.192  -0.322  1.00  0.00     0.031 A 
ENDROOT
BRANCH   4   7
HETATM    7  N   UNL     1      40.567 -15.619   2.985  1.00  0.00    -0.333 N 
HETATM    8  H   UNL     1      39.753 -16.219   3.054  1.00  0.00     0.168 HD
BRANCH   7   9
HETATM    9  C   UNL     1      41.258 -15.508   4.200  1.00  0.00     0.179 C 
HETATM   10  S   UNL     1      41.023 -14.360   5.396  1.00  0.00    -0.040 SA
BRANCH   9  11
HETATM   11  N   UNL     1      42.187 -16.558   4.294  1.00  0.00    -0.299 N 
HETATM   12  C   UNL     1      43.062 -17.017   3.313  1.00  0.00     0.260 C 
HETATM   13  O   UNL     1      43.618 -16.326   2.470  1.00  0.00    -0.267 OA
HETATM   14  H   UNL     1      42.006 -17.195   5.057  1.00  0.00     0.171 HD
BRANCH  12  15
HETATM   15  C   UNL     1      43.407 -18.451   3.424  1.00  0.00     0.065 A 
HETATM   16  C   UNL     1      43.823 -19.002   4.639  1.00  0.00     0.084 A 
HETATM   17  C   UNL     1      44.168 -20.354   4.709  1.00  0.00     0.038 A 
HETATM   18  C   UNL     1      44.134 -21.143   3.558  1.00  0.00     0.003 A 
HETATM   19  C   UNL     1      43.737 -20.589   2.340  1.00  0.00     0.001 A 
HETATM   20  C   UNL     1      43.371 -19.243   2.268  1.00  0.00     0.020 A 
BRANCH  16  21
HETATM   21  O   UNL     1      43.792 -18.268   5.794  1.00  0.00    -0.355 OA
HETATM   22  C   UNL     1      43.401 -19.090   6.897  1.00  0.00     0.210 C 
ENDBRANCH  16  21
ENDBRANCH  12  15
ENDBRANCH   9  11
ENDBRANCH   7   9
ENDBRANCH   4   7
BRANCH   1  23
HETATM   23  N   UNL     1      39.794 -11.942  -1.226  1.00  0.00    -0.378 N 
HETATM   24  C   UNL     1      39.017 -12.431  -2.385  1.00  0.00     0.143 C 
HETATM   25  C   UNL     1      38.265 -11.265  -3.054  1.00  0.00     0.146 C 
HETATM   26  N   UNL     1      39.129 -10.119  -3.361  1.00  0.00    -0.345 N 
HETATM   27  C   UNL     1      38.635  -9.201  -4.293  1.00  0.00     0.253 C 
HETATM   28  C   UNL     1      39.980  -9.691  -2.240  1.00  0.00     0.146 C 
HETATM   29  O   UNL     1      37.552  -9.327  -4.859  1.00  0.00    -0.267 OA
HETATM   30  C   UNL     1      40.731 -10.857  -1.575  1.00  0.00     0.143 C 
BRANCH  27  31
HETATM   31  C   UNL     1      39.468  -8.028  -4.645  1.00  0.00     0.032 A 
HETATM   32  C   UNL     1      40.840  -8.176  -4.867  1.00  0.00     0.017 A 
HETATM   33  C   UNL     1      41.607  -7.067  -5.231  1.00  0.00     0.007 A 
HETATM   34  C   UNL     1      41.008  -5.809  -5.379  1.00  0.00    -0.062 A 
HETATM   35  C   UNL     1      41.825  -4.627  -5.814  1.00  0.00     0.048 C 
HETATM   36  C   UNL     1      39.625  -5.680  -5.188  1.00  0.00     0.007 A 
HETATM   37  C   UNL     1      38.854  -6.787  -4.825  1.00  0.00     0.017 A 
ENDBRANCH  27  31
ENDBRANCH   1  23
TORSDOF 7
ENDMDL
