MODEL 1
REMARK VINA RESULT:      -9.5      0.000      0.000
REMARK  5 active torsions:
REMARK  status: ('A' for Active; 'I' for Inactive)
REMARK    1  A    between atoms: C_4  and  C_5 
REMARK    2  A    between atoms: C_5  and  N_6 
REMARK    3  A    between atoms: C_8  and  C_9 
REMARK       I    between atoms: C_9  and  N_10 
REMARK    4  A    between atoms: N_10  and  N_11 
REMARK       I    between atoms: N_11  and  C_12 
REMARK    5  A    between atoms: C_12  and  C_13 
ROOT
HETATM    1  N   UNL     1      42.630 -15.741   5.594  1.00  0.00    -0.229 N 
HETATM    2  N   UNL     1      41.943 -15.316   4.478  1.00  0.00    -0.163 NA
HETATM    3  C   UNL     1      41.939 -16.069   3.417  1.00  0.00     0.157 A 
HETATM    4  C   UNL     1      42.654 -17.352   3.321  1.00  0.00     0.016 A 
HETATM    5  C   UNL     1      43.347 -17.772   4.451  1.00  0.00     0.046 A 
HETATM    6  C   UNL     1      43.338 -16.938   5.668  1.00  0.00     0.275 A 
HETATM    7  O   UNL     1      43.953 -17.318   6.661  1.00  0.00    -0.266 OA
HETATM    8  C   UNL     1      42.687 -18.131   2.158  1.00  0.00     0.015 A 
HETATM    9  C   UNL     1      43.405 -19.331   2.140  1.00  0.00     0.001 A 
HETATM   10  C   UNL     1      44.093 -19.753   3.275  1.00  0.00     0.001 A 
HETATM   11  C   UNL     1      44.066 -18.975   4.432  1.00  0.00     0.018 A 
ENDROOT
BRANCH   3  12
HETATM   12  C   UNL     1      41.173 -15.526   2.220  1.00  0.00     0.291 C 
HETATM   13  N   UNL     1      41.924 -14.674   1.444  1.00  0.00    -0.262 N 
HETATM   14  H   UNL     1      42.813 -14.295   1.776  1.00  0.00     0.190 HD
HETATM   15  O   UNL     1      40.014 -15.847   2.003  1.00  0.00    -0.264 OA
BRANCH  13  16
HETATM   16  N   UNL     1      41.330 -14.046   0.347  1.00  0.00    -0.263 N 
HETATM   17  C   UNL     1      41.009 -12.709   0.465  1.00  0.00     0.270 C 
HETATM   18  O   UNL     1      41.242 -12.063   1.486  1.00  0.00    -0.266 OA
HETATM   19  H   UNL     1      40.986 -14.651  -0.397  1.00  0.00     0.190 HD
BRANCH  17  20
HETATM   20  C   UNL     1      40.341 -12.070  -0.701  1.00  0.00     0.036 A 
HETATM   21  C   UNL     1      39.012 -11.621  -0.632  1.00  0.00     0.051 A 
HETATM   22  C   UNL     1      38.439 -11.053  -1.779  1.00  0.00     0.085 A 
HETATM   23  C   UNL     1      39.188 -10.955  -2.946  1.00  0.00     0.062 A 
HETATM   24  N   UNL     1      37.175 -10.550  -1.963  1.00  0.00    -0.242 NA
HETATM   25  N   UNL     1      38.332 -10.372  -3.847  1.00  0.00    -0.349 N 
HETATM   26  C   UNL     1      40.506 -11.399  -3.052  1.00  0.00     0.033 A 
HETATM   27  H   UNL     1      38.541 -10.152  -4.810  1.00  0.00     0.167 HD
HETATM   28  C   UNL     1      37.142 -10.150  -3.214  1.00  0.00     0.208 A 
HETATM   29  C   UNL     1      41.065 -11.965  -1.900  1.00  0.00     0.019 A 
ENDBRANCH  17  20
ENDBRANCH  13  16
ENDBRANCH   3  12
BRANCH   1  30
HETATM   30  C   UNL     1      42.555 -14.880   6.771  1.00  0.00     0.193 C 
BRANCH  30  31
HETATM   31  C   UNL     1      42.990 -13.463   6.475  1.00  0.00    -0.038 A 
HETATM   32  C   UNL     1      44.333 -13.086   6.619  1.00  0.00     0.009 A 
HETATM   33  C   UNL     1      44.734 -11.776   6.353  1.00  0.00     0.001 A 
HETATM   34  C   UNL     1      43.795 -10.829   5.947  1.00  0.00     0.000 A 
HETATM   35  C   UNL     1      42.455 -11.188   5.813  1.00  0.00     0.001 A 
HETATM   36  C   UNL     1      42.053 -12.498   6.081  1.00  0.00     0.009 A 
ENDBRANCH  30  31
ENDBRANCH   1  30
TORSDOF 5
ENDMDL
MODEL 2
REMARK VINA RESULT:      -9.4      5.230      9.124
REMARK  5 active torsions:
REMARK  status: ('A' for Active; 'I' for Inactive)
REMARK    1  A    between atoms: C_4  and  C_5 
REMARK    2  A    between atoms: C_5  and  N_6 
REMARK    3  A    between atoms: C_8  and  C_9 
REMARK       I    between atoms: C_9  and  N_10 
REMARK    4  A    between atoms: N_10  and  N_11 
REMARK       I    between atoms: N_11  and  C_12 
REMARK    5  A    between atoms: C_12  and  C_13 
ROOT
HETATM    1  N   UNL     1      43.848  -9.450   9.530  1.00  0.00    -0.229 N 
HETATM    2  N   UNL     1      44.181 -10.622   8.886  1.00  0.00    -0.163 NA
HETATM    3  C   UNL     1      43.710 -10.839   7.693  1.00  0.00     0.157 A 
HETATM    4  C   UNL     1      42.809  -9.914   6.987  1.00  0.00     0.016 A 
HETATM    5  C   UNL     1      42.476  -8.736   7.646  1.00  0.00     0.046 A 
HETATM    6  C   UNL     1      43.023  -8.467   8.989  1.00  0.00     0.275 A 
HETATM    7  O   UNL     1      42.723  -7.423   9.562  1.00  0.00    -0.266 OA
HETATM    8  C   UNL     1      42.265 -10.181   5.724  1.00  0.00     0.015 A 
HETATM    9  C   UNL     1      41.401  -9.259   5.126  1.00  0.00     0.001 A 
HETATM   10  C   UNL     1      41.073  -8.076   5.785  1.00  0.00     0.001 A 
HETATM   11  C   UNL     1      41.609  -7.812   7.045  1.00  0.00     0.018 A 
ENDROOT
BRANCH   3  12
HETATM   12  C   UNL     1      44.109 -12.161   7.053  1.00  0.00     0.291 C 
HETATM   13  N   UNL     1      43.118 -13.112   7.123  1.00  0.00    -0.262 N 
HETATM   14  H   UNL     1      42.305 -12.992   7.731  1.00  0.00     0.190 HD
HETATM   15  O   UNL     1      45.204 -12.315   6.533  1.00  0.00    -0.264 OA
BRANCH  13  16
HETATM   16  N   UNL     1      43.367 -14.396   6.633  1.00  0.00    -0.263 N 
HETATM   17  C   UNL     1      42.981 -14.678   5.338  1.00  0.00     0.270 C 
HETATM   18  O   UNL     1      42.447 -13.841   4.612  1.00  0.00    -0.266 OA
HETATM   19  H   UNL     1      43.633 -15.103   7.315  1.00  0.00     0.190 HD
BRANCH  17  20
HETATM   20  C   UNL     1      43.220 -16.064   4.850  1.00  0.00     0.036 A 
HETATM   21  C   UNL     1      43.439 -17.129   5.739  1.00  0.00     0.051 A 
HETATM   22  C   UNL     1      43.684 -18.402   5.206  1.00  0.00     0.085 A 
HETATM   23  C   UNL     1      43.711 -18.578   3.827  1.00  0.00     0.062 A 
HETATM   24  N   UNL     1      43.927 -19.587   5.856  1.00  0.00    -0.242 NA
HETATM   25  N   UNL     1      43.978 -19.915   3.663  1.00  0.00    -0.349 N 
HETATM   26  C   UNL     1      43.507 -17.541   2.917  1.00  0.00     0.033 A 
HETATM   27  H   UNL     1      44.076 -20.399   2.782  1.00  0.00     0.167 HD
HETATM   28  C   UNL     1      44.101 -20.474   4.904  1.00  0.00     0.208 A 
HETATM   29  C   UNL     1      43.265 -16.275   3.462  1.00  0.00     0.019 A 
ENDBRANCH  17  20
ENDBRANCH  13  16
ENDBRANCH   3  12
BRANCH   1  30
HETATM   30  C   UNL     1      44.448  -9.237  10.844  1.00  0.00     0.193 C 
BRANCH  30  31
HETATM   31  C   UNL     1      43.412  -9.149  11.942  1.00  0.00    -0.038 A 
HETATM   32  C   UNL     1      43.459  -8.108  12.881  1.00  0.00     0.009 A 
HETATM   33  C   UNL     1      42.507  -8.030  13.899  1.00  0.00     0.001 A 
HETATM   34  C   UNL     1      41.505  -8.994  13.992  1.00  0.00     0.000 A 
HETATM   35  C   UNL     1      41.457 -10.040  13.072  1.00  0.00     0.001 A 
HETATM   36  C   UNL     1      42.409 -10.120  12.055  1.00  0.00     0.009 A 
ENDBRANCH  30  31
ENDBRANCH   1  30
TORSDOF 5
ENDMDL
MODEL 3
REMARK VINA RESULT:      -9.0      3.661      8.188
REMARK  5 active torsions:
REMARK  status: ('A' for Active; 'I' for Inactive)
REMARK    1  A    between atoms: C_4  and  C_5 
REMARK    2  A    between atoms: C_5  and  N_6 
REMARK    3  A    between atoms: C_8  and  C_9 
REMARK       I    between atoms: C_9  and  N_10 
REMARK    4  A    between atoms: N_10  and  N_11 
REMARK       I    between atoms: N_11  and  C_12 
REMARK    5  A    between atoms: C_12  and  C_13 
ROOT
HETATM    1  N   UNL     1      43.340 -16.010   2.996  1.00  0.00    -0.229 N 
HETATM    2  N   UNL     1      43.067 -15.217   4.090  1.00  0.00    -0.163 NA
HETATM    3  C   UNL     1      43.065 -15.757   5.273  1.00  0.00     0.157 A 
HETATM    4  C   UNL     1      43.311 -17.186   5.522  1.00  0.00     0.016 A 
HETATM    5  C   UNL     1      43.582 -17.980   4.412  1.00  0.00     0.046 A 
HETATM    6  C   UNL     1      43.612 -17.373   3.068  1.00  0.00     0.275 A 
HETATM    7  O   UNL     1      43.853 -18.083   2.094  1.00  0.00    -0.266 OA
HETATM    8  C   UNL     1      43.255 -17.768   6.795  1.00  0.00     0.015 A 
HETATM    9  C   UNL     1      43.484 -19.140   6.947  1.00  0.00     0.001 A 
HETATM   10  C   UNL     1      43.761 -19.932   5.835  1.00  0.00     0.001 A 
HETATM   11  C   UNL     1      43.811 -19.354   4.567  1.00  0.00     0.018 A 
ENDROOT
BRANCH   3  12
HETATM   12  C   UNL     1      42.741 -14.821   6.429  1.00  0.00     0.291 C 
HETATM   13  N   UNL     1      43.594 -13.745   6.503  1.00  0.00    -0.262 N 
HETATM   14  H   UNL     1      44.466 -13.718   5.971  1.00  0.00     0.190 HD
HETATM   15  O   UNL     1      41.804 -15.036   7.183  1.00  0.00    -0.264 OA
BRANCH  13  16
HETATM   16  N   UNL     1      43.457 -12.836   7.555  1.00  0.00    -0.263 N 
HETATM   17  C   UNL     1      44.053 -11.598   7.417  1.00  0.00     0.270 C 
HETATM   18  O   UNL     1      44.676 -11.274   6.407  1.00  0.00    -0.266 OA
HETATM   19  H   UNL     1      43.102 -13.202   8.435  1.00  0.00     0.190 HD
BRANCH  17  20
HETATM   20  C   UNL     1      43.929 -10.659   8.565  1.00  0.00     0.036 A 
HETATM   21  C   UNL     1      42.749  -9.931   8.796  1.00  0.00     0.051 A 
HETATM   22  C   UNL     1      42.714  -9.045   9.881  1.00  0.00     0.085 A 
HETATM   23  C   UNL     1      43.836  -8.902  10.691  1.00  0.00     0.062 A 
HETATM   24  N   UNL     1      41.695  -8.230  10.308  1.00  0.00    -0.242 NA
HETATM   25  N   UNL     1      43.460  -7.971  11.626  1.00  0.00    -0.349 N 
HETATM   26  C   UNL     1      45.025  -9.601  10.485  1.00  0.00     0.033 A 
HETATM   27  H   UNL     1      44.034  -7.617  12.378  1.00  0.00     0.167 HD
HETATM   28  C   UNL     1      42.174  -7.598  11.356  1.00  0.00     0.208 A 
HETATM   29  C   UNL     1      45.047 -10.482   9.397  1.00  0.00     0.019 A 
ENDBRANCH  17  20
ENDBRANCH  13  16
ENDBRANCH   3  12
BRANCH   1  30
HETATM   30  C   UNL     1      43.380 -15.339   1.700  1.00  0.00     0.193 C 
BRANCH  30  31
HETATM   31  C   UNL     1      42.116 -14.560   1.416  1.00  0.00    -0.038 A 
HETATM   32  C   UNL     1      40.992 -15.201   0.876  1.00  0.00     0.009 A 
HETATM   33  C   UNL     1      39.827 -14.481   0.606  1.00  0.00     0.001 A 
HETATM   34  C   UNL     1      39.777 -13.113   0.868  1.00  0.00     0.000 A 
HETATM   35  C   UNL     1      40.893 -12.463   1.393  1.00  0.00     0.001 A 
HETATM   36  C   UNL     1      42.059 -13.181   1.661  1.00  0.00     0.009 A 
ENDBRANCH  30  31
ENDBRANCH   1  30
TORSDOF 5
ENDMDL
MODEL 4
REMARK VINA RESULT:      -9.0     15.640     18.143
REMARK  5 active torsions:
REMARK  status: ('A' for Active; 'I' for Inactive)
REMARK    1  A    between atoms: C_4  and  C_5 
REMARK    2  A    between atoms: C_5  and  N_6 
REMARK    3  A    between atoms: C_8  and  C_9 
REMARK       I    between atoms: C_9  and  N_10 
REMARK    4  A    between atoms: N_10  and  N_11 
REMARK       I    between atoms: N_11  and  C_12 
REMARK    5  A    between atoms: C_12  and  C_13 
ROOT
HETATM    1  N   UNL     1      46.489 -28.555   1.082  1.00  0.00    -0.229 N 
HETATM    2  N   UNL     1      45.479 -29.426   1.428  1.00  0.00    -0.163 NA
HETATM    3  C   UNL     1      44.689 -29.873   0.496  1.00  0.00     0.157 A 
HETATM    4  C   UNL     1      44.788 -29.482  -0.919  1.00  0.00     0.016 A 
HETATM    5  C   UNL     1      45.808 -28.600  -1.258  1.00  0.00     0.046 A 
HETATM    6  C   UNL     1      46.725 -28.106  -0.214  1.00  0.00     0.275 A 
HETATM    7  O   UNL     1      47.623 -27.326  -0.524  1.00  0.00    -0.266 OA
HETATM    8  C   UNL     1      43.900 -29.929  -1.906  1.00  0.00     0.015 A 
HETATM    9  C   UNL     1      44.049 -29.497  -3.228  1.00  0.00     0.001 A 
HETATM   10  C   UNL     1      45.075 -28.618  -3.567  1.00  0.00     0.001 A 
HETATM   11  C   UNL     1      45.956 -28.168  -2.583  1.00  0.00     0.018 A 
ENDROOT
BRANCH   3  12
HETATM   12  C   UNL     1      43.589 -30.819   0.957  1.00  0.00     0.291 C 
HETATM   13  N   UNL     1      42.530 -30.165   1.543  1.00  0.00    -0.262 N 
HETATM   14  H   UNL     1      42.598 -29.185   1.823  1.00  0.00     0.190 HD
HETATM   15  O   UNL     1      43.674 -32.027   0.794  1.00  0.00    -0.264 OA
BRANCH  13  16
HETATM   16  N   UNL     1      41.475 -30.911   2.074  1.00  0.00    -0.263 N 
HETATM   17  C   UNL     1      41.336 -30.943   3.446  1.00  0.00     0.270 C 
HETATM   18  O   UNL     1      42.091 -30.331   4.201  1.00  0.00    -0.266 OA
HETATM   19  H   UNL     1      40.996 -31.545   1.437  1.00  0.00     0.190 HD
BRANCH  17  20
HETATM   20  C   UNL     1      40.230 -31.776   3.993  1.00  0.00     0.036 A 
HETATM   21  C   UNL     1      39.918 -31.778   5.362  1.00  0.00     0.051 A 
HETATM   22  C   UNL     1      38.881 -32.608   5.809  1.00  0.00     0.085 A 
HETATM   23  C   UNL     1      38.197 -33.406   4.899  1.00  0.00     0.062 A 
HETATM   24  N   UNL     1      38.395 -32.788   7.080  1.00  0.00    -0.242 NA
HETATM   25  N   UNL     1      37.276 -34.077   5.664  1.00  0.00    -0.349 N 
HETATM   26  C   UNL     1      38.486 -33.435   3.535  1.00  0.00     0.033 A 
HETATM   27  H   UNL     1      36.605 -34.754   5.331  1.00  0.00     0.167 HD
HETATM   28  C   UNL     1      37.434 -33.676   6.961  1.00  0.00     0.208 A 
HETATM   29  C   UNL     1      39.525 -32.603   3.102  1.00  0.00     0.019 A 
ENDBRANCH  17  20
ENDBRANCH  13  16
ENDBRANCH   3  12
BRANCH   1  30
HETATM   30  C   UNL     1      47.376 -28.128   2.161  1.00  0.00     0.193 C 
BRANCH  30  31
HETATM   31  C   UNL     1      48.443 -29.153   2.468  1.00  0.00    -0.038 A 
HETATM   32  C   UNL     1      49.006 -29.233   3.750  1.00  0.00     0.009 A 
HETATM   33  C   UNL     1      49.996 -30.175   4.032  1.00  0.00     0.001 A 
HETATM   34  C   UNL     1      50.438 -31.042   3.034  1.00  0.00     0.000 A 
HETATM   35  C   UNL     1      49.896 -30.963   1.752  1.00  0.00     0.001 A 
HETATM   36  C   UNL     1      48.907 -30.020   1.469  1.00  0.00     0.009 A 
ENDBRANCH  30  31
ENDBRANCH   1  30
TORSDOF 5
ENDMDL
MODEL 5
REMARK VINA RESULT:      -9.0      4.313      8.427
REMARK  5 active torsions:
REMARK  status: ('A' for Active; 'I' for Inactive)
REMARK    1  A    between atoms: C_4  and  C_5 
REMARK    2  A    between atoms: C_5  and  N_6 
REMARK    3  A    between atoms: C_8  and  C_9 
REMARK       I    between atoms: C_9  and  N_10 
REMARK    4  A    between atoms: N_10  and  N_11 
REMARK       I    between atoms: N_11  and  C_12 
REMARK    5  A    between atoms: C_12  and  C_13 
ROOT
HETATM    1  N   UNL     1      42.551  -9.820   6.972  1.00  0.00    -0.229 N 
HETATM    2  N   UNL     1      42.583 -11.195   6.871  1.00  0.00    -0.163 NA
HETATM    3  C   UNL     1      41.782 -11.782   6.030  1.00  0.00     0.157 A 
HETATM    4  C   UNL     1      40.811 -11.066   5.188  1.00  0.00     0.016 A 
HETATM    5  C   UNL     1      40.783  -9.681   5.299  1.00  0.00     0.046 A 
HETATM    6  C   UNL     1      41.703  -9.002   6.231  1.00  0.00     0.275 A 
HETATM    7  O   UNL     1      41.670  -7.777   6.322  1.00  0.00    -0.266 OA
HETATM    8  C   UNL     1      39.917 -11.712   4.324  1.00  0.00     0.015 A 
HETATM    9  C   UNL     1      39.010 -10.962   3.569  1.00  0.00     0.001 A 
HETATM   10  C   UNL     1      38.987  -9.573   3.677  1.00  0.00     0.001 A 
HETATM   11  C   UNL     1      39.873  -8.930   4.542  1.00  0.00     0.018 A 
ENDROOT
BRANCH   3  12
HETATM   12  C   UNL     1      41.866 -13.301   5.986  1.00  0.00     0.291 C 
HETATM   13  N   UNL     1      43.048 -13.758   5.452  1.00  0.00    -0.262 N 
HETATM   14  H   UNL     1      43.682 -13.134   4.949  1.00  0.00     0.190 HD
HETATM   15  O   UNL     1      40.957 -14.004   6.402  1.00  0.00    -0.264 OA
BRANCH  13  16
HETATM   16  N   UNL     1      43.237 -15.132   5.288  1.00  0.00    -0.263 N 
HETATM   17  C   UNL     1      43.238 -15.633   4.001  1.00  0.00     0.270 C 
HETATM   18  O   UNL     1      43.096 -14.914   3.013  1.00  0.00    -0.266 OA
HETATM   19  H   UNL     1      43.163 -15.708   6.123  1.00  0.00     0.190 HD
BRANCH  17  20
HETATM   20  C   UNL     1      43.402 -17.105   3.851  1.00  0.00     0.036 A 
HETATM   21  C   UNL     1      43.702 -17.927   4.949  1.00  0.00     0.051 A 
HETATM   22  C   UNL     1      43.868 -19.301   4.727  1.00  0.00     0.085 A 
HETATM   23  C   UNL     1      43.741 -19.812   3.440  1.00  0.00     0.062 A 
HETATM   24  N   UNL     1      44.164 -20.299   5.623  1.00  0.00    -0.242 NA
HETATM   25  N   UNL     1      43.970 -21.157   3.587  1.00  0.00    -0.349 N 
HETATM   26  C   UNL     1      43.454 -19.022   2.327  1.00  0.00     0.033 A 
HETATM   27  H   UNL     1      43.963 -21.846   2.849  1.00  0.00     0.167 HD
HETATM   28  C   UNL     1      44.219 -21.400   4.908  1.00  0.00     0.208 A 
HETATM   29  C   UNL     1      43.291 -17.652   2.562  1.00  0.00     0.019 A 
ENDBRANCH  17  20
ENDBRANCH  13  16
ENDBRANCH   3  12
BRANCH   1  30
HETATM   30  C   UNL     1      43.508  -9.214   7.893  1.00  0.00     0.193 C 
BRANCH  30  31
HETATM   31  C   UNL     1      43.235  -9.584   9.333  1.00  0.00    -0.038 A 
HETATM   32  C   UNL     1      42.046  -9.180   9.958  1.00  0.00     0.009 A 
HETATM   33  C   UNL     1      41.796  -9.516  11.290  1.00  0.00     0.001 A 
HETATM   34  C   UNL     1      42.735 -10.251  12.011  1.00  0.00     0.000 A 
HETATM   35  C   UNL     1      43.926 -10.647  11.404  1.00  0.00     0.001 A 
HETATM   36  C   UNL     1      44.177 -10.311  10.073  1.00  0.00     0.009 A 
ENDBRANCH  30  31
ENDBRANCH   1  30
TORSDOF 5
ENDMDL
MODEL 6
REMARK VINA RESULT:      -8.9      5.055      8.754
REMARK  5 active torsions:
REMARK  status: ('A' for Active; 'I' for Inactive)
REMARK    1  A    between atoms: C_4  and  C_5 
REMARK    2  A    between atoms: C_5  and  N_6 
REMARK    3  A    between atoms: C_8  and  C_9 
REMARK       I    between atoms: C_9  and  N_10 
REMARK    4  A    between atoms: N_10  and  N_11 
REMARK       I    between atoms: N_11  and  C_12 
REMARK    5  A    between atoms: C_12  and  C_13 
ROOT
HETATM    1  N   UNL     1      41.384  -9.026   7.995  1.00  0.00    -0.229 N 
HETATM    2  N   UNL     1      41.324 -10.078   7.107  1.00  0.00    -0.163 NA
HETATM    3  C   UNL     1      42.428 -10.674   6.764  1.00  0.00     0.157 A 
HETATM    4  C   UNL     1      43.759 -10.275   7.247  1.00  0.00     0.016 A 
HETATM    5  C   UNL     1      43.810  -9.210   8.140  1.00  0.00     0.046 A 
HETATM    6  C   UNL     1      42.563  -8.542   8.556  1.00  0.00     0.275 A 
HETATM    7  O   UNL     1      42.619  -7.603   9.346  1.00  0.00    -0.266 OA
HETATM    8  C   UNL     1      44.947 -10.889   6.830  1.00  0.00     0.015 A 
HETATM    9  C   UNL     1      46.177 -10.439   7.322  1.00  0.00     0.001 A 
HETATM   10  C   UNL     1      46.226  -9.377   8.222  1.00  0.00     0.001 A 
HETATM   11  C   UNL     1      45.044  -8.760   8.632  1.00  0.00     0.018 A 
ENDROOT
BRANCH   3  12
HETATM   12  C   UNL     1      42.283 -11.816   5.768  1.00  0.00     0.291 C 
HETATM   13  N   UNL     1      42.511 -13.050   6.331  1.00  0.00    -0.262 N 
HETATM   14  H   UNL     1      42.941 -13.145   7.253  1.00  0.00     0.190 HD
HETATM   15  O   UNL     1      41.984 -11.613   4.601  1.00  0.00    -0.264 OA
BRANCH  13  16
HETATM   16  N   UNL     1      42.477 -14.188   5.521  1.00  0.00    -0.263 N 
HETATM   17  C   UNL     1      43.461 -15.139   5.705  1.00  0.00     0.270 C 
HETATM   18  O   UNL     1      44.340 -15.022   6.557  1.00  0.00    -0.266 OA
HETATM   19  H   UNL     1      41.857 -14.158   4.714  1.00  0.00     0.190 HD
BRANCH  17  20
HETATM   20  C   UNL     1      43.430 -16.324   4.804  1.00  0.00     0.036 A 
HETATM   21  C   UNL     1      43.807 -17.599   5.255  1.00  0.00     0.051 A 
HETATM   22  C   UNL     1      43.779 -18.664   4.343  1.00  0.00     0.085 A 
HETATM   23  C   UNL     1      43.388 -18.434   3.028  1.00  0.00     0.062 A 
HETATM   24  N   UNL     1      44.100 -19.985   4.535  1.00  0.00    -0.242 NA
HETATM   25  N   UNL     1      43.484 -19.666   2.429  1.00  0.00    -0.349 N 
HETATM   26  C   UNL     1      43.016 -17.180   2.546  1.00  0.00     0.033 A 
HETATM   27  H   UNL     1      43.279 -19.874   1.462  1.00  0.00     0.167 HD
HETATM   28  C   UNL     1      43.914 -20.559   3.369  1.00  0.00     0.208 A 
HETATM   29  C   UNL     1      43.050 -16.125   3.466  1.00  0.00     0.019 A 
ENDBRANCH  17  20
ENDBRANCH  13  16
ENDBRANCH   3  12
BRANCH   1  30
HETATM   30  C   UNL     1      40.109  -8.431   8.385  1.00  0.00     0.193 C 
BRANCH  30  31
HETATM   31  C   UNL     1      39.834  -8.576   9.864  1.00  0.00    -0.038 A 
HETATM   32  C   UNL     1      39.928  -9.830  10.485  1.00  0.00     0.009 A 
HETATM   33  C   UNL     1      39.668  -9.967  11.849  1.00  0.00     0.001 A 
HETATM   34  C   UNL     1      39.303  -8.853  12.604  1.00  0.00     0.000 A 
HETATM   35  C   UNL     1      39.194  -7.604  11.995  1.00  0.00     0.001 A 
HETATM   36  C   UNL     1      39.452  -7.467  10.630  1.00  0.00     0.009 A 
ENDBRANCH  30  31
ENDBRANCH   1  30
TORSDOF 5
ENDMDL
MODEL 7
REMARK VINA RESULT:      -8.9      2.819      8.591
REMARK  5 active torsions:
REMARK  status: ('A' for Active; 'I' for Inactive)
REMARK    1  A    between atoms: C_4  and  C_5 
REMARK    2  A    between atoms: C_5  and  N_6 
REMARK    3  A    between atoms: C_8  and  C_9 
REMARK       I    between atoms: C_9  and  N_10 
REMARK    4  A    between atoms: N_10  and  N_11 
REMARK       I    between atoms: N_11  and  C_12 
REMARK    5  A    between atoms: C_12  and  C_13 
ROOT
HETATM    1  N   UNL     1      40.344 -14.595   0.753  1.00  0.00    -0.229 N 
HETATM    2  N   UNL     1      41.022 -13.745   1.600  1.00  0.00    -0.163 NA
HETATM    3  C   UNL     1      41.257 -12.526   1.210  1.00  0.00     0.157 A 
HETATM    4  C   UNL     1      40.865 -11.997  -0.105  1.00  0.00     0.016 A 
HETATM    5  C   UNL     1      40.185 -12.863  -0.954  1.00  0.00     0.046 A 
HETATM    6  C   UNL     1      39.891 -14.239  -0.514  1.00  0.00     0.275 A 
HETATM    7  O   UNL     1      39.289 -14.997  -1.271  1.00  0.00    -0.266 OA
HETATM    8  C   UNL     1      41.169 -10.699  -0.536  1.00  0.00     0.015 A 
HETATM    9  C   UNL     1      40.777 -10.275  -1.810  1.00  0.00     0.001 A 
HETATM   10  C   UNL     1      40.090 -11.142  -2.656  1.00  0.00     0.001 A 
HETATM   11  C   UNL     1      39.793 -12.436  -2.231  1.00  0.00     0.018 A 
ENDROOT
BRANCH   3  12
HETATM   12  C   UNL     1      42.023 -11.652   2.193  1.00  0.00     0.291 C 
HETATM   13  N   UNL     1      42.201 -12.251   3.419  1.00  0.00    -0.262 N 
HETATM   14  H   UNL     1      41.680 -13.090   3.683  1.00  0.00     0.190 HD
HETATM   15  O   UNL     1      42.429 -10.542   1.881  1.00  0.00    -0.264 OA
BRANCH  13  16
HETATM   16  N   UNL     1      42.830 -11.539   4.442  1.00  0.00    -0.263 N 
HETATM   17  C   UNL     1      43.435 -12.262   5.451  1.00  0.00     0.270 C 
HETATM   18  O   UNL     1      43.448 -13.492   5.465  1.00  0.00    -0.266 OA
HETATM   19  H   UNL     1      42.637 -10.542   4.494  1.00  0.00     0.190 HD
BRANCH  17  20
HETATM   20  C   UNL     1      44.066 -11.485   6.552  1.00  0.00     0.036 A 
HETATM   21  C   UNL     1      43.294 -10.836   7.531  1.00  0.00     0.051 A 
HETATM   22  C   UNL     1      43.956 -10.100   8.522  1.00  0.00     0.085 A 
HETATM   23  C   UNL     1      45.344 -10.023   8.512  1.00  0.00     0.062 A 
HETATM   24  N   UNL     1      43.433  -9.384   9.571  1.00  0.00    -0.242 NA
HETATM   25  N   UNL     1      45.646  -9.235   9.595  1.00  0.00    -0.349 N 
HETATM   26  C   UNL     1      46.140 -10.646   7.551  1.00  0.00     0.033 A 
HETATM   27  H   UNL     1      46.572  -8.961   9.892  1.00  0.00     0.167 HD
HETATM   28  C   UNL     1      44.472  -8.877  10.195  1.00  0.00     0.208 A 
HETATM   29  C   UNL     1      45.467 -11.378   6.566  1.00  0.00     0.019 A 
ENDBRANCH  17  20
ENDBRANCH  13  16
ENDBRANCH   3  12
BRANCH   1  30
HETATM   30  C   UNL     1      40.063 -15.934   1.265  1.00  0.00     0.193 C 
BRANCH  30  31
HETATM   31  C   UNL     1      40.993 -16.327   2.389  1.00  0.00    -0.038 A 
HETATM   32  C   UNL     1      42.207 -16.974   2.116  1.00  0.00     0.009 A 
HETATM   33  C   UNL     1      43.063 -17.343   3.154  1.00  0.00     0.001 A 
HETATM   34  C   UNL     1      42.711 -17.076   4.476  1.00  0.00     0.000 A 
HETATM   35  C   UNL     1      41.501 -16.446   4.761  1.00  0.00     0.001 A 
HETATM   36  C   UNL     1      40.643 -16.077   3.724  1.00  0.00     0.009 A 
ENDBRANCH  30  31
ENDBRANCH   1  30
TORSDOF 5
ENDMDL
MODEL 8
REMARK VINA RESULT:      -8.9      1.621      2.257
REMARK  5 active torsions:
REMARK  status: ('A' for Active; 'I' for Inactive)
REMARK    1  A    between atoms: C_4  and  C_5 
REMARK    2  A    between atoms: C_5  and  N_6 
REMARK    3  A    between atoms: C_8  and  C_9 
REMARK       I    between atoms: C_9  and  N_10 
REMARK    4  A    between atoms: N_10  and  N_11 
REMARK       I    between atoms: N_11  and  C_12 
REMARK    5  A    between atoms: C_12  and  C_13 
ROOT
HETATM    1  N   UNL     1      43.031 -14.162   5.964  1.00  0.00    -0.229 N 
HETATM    2  N   UNL     1      42.527 -13.391   4.939  1.00  0.00    -0.163 NA
HETATM    3  C   UNL     1      42.410 -13.919   3.756  1.00  0.00     0.157 A 
HETATM    4  C   UNL     1      42.812 -15.296   3.429  1.00  0.00     0.016 A 
HETATM    5  C   UNL     1      43.322 -16.065   4.469  1.00  0.00     0.046 A 
HETATM    6  C   UNL     1      43.436 -15.486   5.820  1.00  0.00     0.275 A 
HETATM    7  O   UNL     1      43.888 -16.175   6.733  1.00  0.00    -0.266 OA
HETATM    8  C   UNL     1      42.730 -15.838   2.140  1.00  0.00     0.015 A 
HETATM    9  C   UNL     1      43.150 -17.151   1.905  1.00  0.00     0.001 A 
HETATM   10  C   UNL     1      43.655 -17.923   2.950  1.00  0.00     0.001 A 
HETATM   11  C   UNL     1      43.742 -17.382   4.232  1.00  0.00     0.018 A 
ENDROOT
BRANCH   3  12
HETATM   12  C   UNL     1      41.861 -13.002   2.672  1.00  0.00     0.291 C 
HETATM   13  N   UNL     1      40.568 -13.308   2.315  1.00  0.00    -0.262 N 
HETATM   14  H   UNL     1      40.131 -14.187   2.598  1.00  0.00     0.190 HD
HETATM   15  O   UNL     1      42.530 -12.093   2.203  1.00  0.00    -0.264 OA
BRANCH  13  16
HETATM   16  N   UNL     1      39.956 -12.590   1.284  1.00  0.00    -0.263 N 
HETATM   17  C   UNL     1      39.938 -13.159   0.027  1.00  0.00     0.270 C 
HETATM   18  O   UNL     1      40.422 -14.266  -0.204  1.00  0.00    -0.266 OA
HETATM   19  H   UNL     1      39.739 -11.614   1.471  1.00  0.00     0.190 HD
BRANCH  17  20
HETATM   20  C   UNL     1      39.316 -12.361  -1.065  1.00  0.00     0.036 A 
HETATM   21  C   UNL     1      40.051 -11.408  -1.790  1.00  0.00     0.051 A 
HETATM   22  C   UNL     1      39.392 -10.674  -2.786  1.00  0.00     0.085 A 
HETATM   23  C   UNL     1      38.041 -10.899  -3.027  1.00  0.00     0.062 A 
HETATM   24  N   UNL     1      39.883  -9.698  -3.617  1.00  0.00    -0.242 NA
HETATM   25  N   UNL     1      37.729 -10.023  -4.037  1.00  0.00    -0.349 N 
HETATM   26  C   UNL     1      37.280 -11.830  -2.321  1.00  0.00     0.033 A 
HETATM   27  H   UNL     1      36.822  -9.907  -4.466  1.00  0.00     0.167 HD
HETATM   28  C   UNL     1      38.861  -9.326  -4.355  1.00  0.00     0.208 A 
HETATM   29  C   UNL     1      37.950 -12.555  -1.328  1.00  0.00     0.019 A 
ENDBRANCH  17  20
ENDBRANCH  13  16
ENDBRANCH   3  12
BRANCH   1  30
HETATM   30  C   UNL     1      43.090 -13.534   7.281  1.00  0.00     0.193 C 
BRANCH  30  31
HETATM   31  C   UNL     1      44.052 -12.369   7.320  1.00  0.00    -0.038 A 
HETATM   32  C   UNL     1      45.129 -12.306   6.424  1.00  0.00     0.009 A 
HETATM   33  C   UNL     1      46.022 -11.234   6.465  1.00  0.00     0.001 A 
HETATM   34  C   UNL     1      45.851 -10.219   7.405  1.00  0.00     0.000 A 
HETATM   35  C   UNL     1      44.791 -10.278   8.309  1.00  0.00     0.001 A 
HETATM   36  C   UNL     1      43.899 -11.350   8.271  1.00  0.00     0.009 A 
ENDBRANCH  30  31
ENDBRANCH   1  30
TORSDOF 5
ENDMDL
MODEL 9
REMARK VINA RESULT:      -8.8      3.915      9.141
REMARK  5 active torsions:
REMARK  status: ('A' for Active; 'I' for Inactive)
REMARK    1  A    between atoms: C_4  and  C_5 
REMARK    2  A    between atoms: C_5  and  N_6 
REMARK    3  A    between atoms: C_8  and  C_9 
REMARK       I    between atoms: C_9  and  N_10 
REMARK    4  A    between atoms: N_10  and  N_11 
REMARK       I    between atoms: N_11  and  C_12 
REMARK    5  A    between atoms: C_12  and  C_13 
ROOT
HETATM    1  N   UNL     1      40.487 -14.355   2.535  1.00  0.00    -0.229 N 
HETATM    2  N   UNL     1      40.520 -13.577   3.672  1.00  0.00    -0.163 NA
HETATM    3  C   UNL     1      40.680 -12.292   3.550  1.00  0.00     0.157 A 
HETATM    4  C   UNL     1      40.859 -11.608   2.260  1.00  0.00     0.016 A 
HETATM    5  C   UNL     1      40.828 -12.401   1.118  1.00  0.00     0.046 A 
HETATM    6  C   UNL     1      40.622 -13.856   1.242  1.00  0.00     0.275 A 
HETATM    7  O   UNL     1      40.596 -14.548   0.227  1.00  0.00    -0.266 OA
HETATM    8  C   UNL     1      41.082 -10.230   2.142  1.00  0.00     0.015 A 
HETATM    9  C   UNL     1      41.262  -9.656   0.879  1.00  0.00     0.001 A 
HETATM   10  C   UNL     1      41.224 -10.451  -0.264  1.00  0.00     0.001 A 
HETATM   11  C   UNL     1      41.007 -11.824  -0.147  1.00  0.00     0.018 A 
ENDROOT
BRANCH   3  12
HETATM   12  C   UNL     1      40.721 -11.502   4.850  1.00  0.00     0.291 C 
HETATM   13  N   UNL     1      41.866 -11.727   5.578  1.00  0.00    -0.262 N 
HETATM   14  H   UNL     1      42.494 -12.502   5.358  1.00  0.00     0.190 HD
HETATM   15  O   UNL     1      39.813 -10.750   5.171  1.00  0.00    -0.264 OA
BRANCH  13  16
HETATM   16  N   UNL     1      42.012 -11.119   6.827  1.00  0.00    -0.263 N 
HETATM   17  C   UNL     1      43.280 -10.732   7.211  1.00  0.00     0.270 C 
HETATM   18  O   UNL     1      44.264 -10.890   6.490  1.00  0.00    -0.266 OA
HETATM   19  H   UNL     1      41.218 -11.177   7.462  1.00  0.00     0.190 HD
BRANCH  17  20
HETATM   20  C   UNL     1      43.420 -10.122   8.562  1.00  0.00     0.036 A 
HETATM   21  C   UNL     1      42.393  -9.349   9.129  1.00  0.00     0.051 A 
HETATM   22  C   UNL     1      42.606  -8.784  10.394  1.00  0.00     0.085 A 
HETATM   23  C   UNL     1      43.815  -8.993  11.048  1.00  0.00     0.062 A 
HETATM   24  N   UNL     1      41.771  -7.997  11.148  1.00  0.00    -0.242 NA
HETATM   25  N   UNL     1      43.684  -8.305  12.228  1.00  0.00    -0.349 N 
HETATM   26  C   UNL     1      44.858  -9.747  10.509  1.00  0.00     0.033 A 
HETATM   27  H   UNL     1      44.380  -8.233  12.956  1.00  0.00     0.167 HD
HETATM   28  C   UNL     1      42.446  -7.726  12.242  1.00  0.00     0.208 A 
HETATM   29  C   UNL     1      44.633 -10.305   9.245  1.00  0.00     0.019 A 
ENDBRANCH  17  20
ENDBRANCH  13  16
ENDBRANCH   3  12
BRANCH   1  30
HETATM   30  C   UNL     1      40.252 -15.783   2.730  1.00  0.00     0.193 C 
BRANCH  30  31
HETATM   31  C   UNL     1      41.499 -16.516   3.170  1.00  0.00    -0.038 A 
HETATM   32  C   UNL     1      42.282 -17.212   2.238  1.00  0.00     0.009 A 
HETATM   33  C   UNL     1      43.429 -17.895   2.645  1.00  0.00     0.001 A 
HETATM   34  C   UNL     1      43.801 -17.894   3.988  1.00  0.00     0.000 A 
HETATM   35  C   UNL     1      43.023 -17.217   4.926  1.00  0.00     0.001 A 
HETATM   36  C   UNL     1      41.875 -16.535   4.521  1.00  0.00     0.009 A 
ENDBRANCH  30  31
ENDBRANCH   1  30
TORSDOF 5
ENDMDL
MODEL 10
REMARK VINA RESULT:      -8.7     15.545     18.414
REMARK  5 active torsions:
REMARK  status: ('A' for Active; 'I' for Inactive)
REMARK    1  A    between atoms: C_4  and  C_5 
REMARK    2  A    between atoms: C_5  and  N_6 
REMARK    3  A    between atoms: C_8  and  C_9 
REMARK       I    between atoms: C_9  and  N_10 
REMARK    4  A    between atoms: N_10  and  N_11 
REMARK       I    between atoms: N_11  and  C_12 
REMARK    5  A    between atoms: C_12  and  C_13 
ROOT
HETATM    1  N   UNL     1      45.711 -28.522   0.108  1.00  0.00    -0.229 N 
HETATM    2  N   UNL     1      44.822 -29.382   0.718  1.00  0.00    -0.163 NA
HETATM    3  C   UNL     1      45.133 -29.891   1.874  1.00  0.00     0.157 A 
HETATM    4  C   UNL     1      46.402 -29.629   2.570  1.00  0.00     0.016 A 
HETATM    5  C   UNL     1      47.294 -28.763   1.946  1.00  0.00     0.046 A 
HETATM    6  C   UNL     1      46.942 -28.160   0.648  1.00  0.00     0.275 A 
HETATM    7  O   UNL     1      47.737 -27.396   0.105  1.00  0.00    -0.266 OA
HETATM    8  C   UNL     1      46.749 -30.224   3.790  1.00  0.00     0.015 A 
HETATM    9  C   UNL     1      47.984 -29.937   4.381  1.00  0.00     0.001 A 
HETATM   10  C   UNL     1      48.874 -29.065   3.757  1.00  0.00     0.001 A 
HETATM   11  C   UNL     1      48.531 -28.477   2.540  1.00  0.00     0.018 A 
ENDROOT
BRANCH   3  12
HETATM   12  C   UNL     1      44.108 -30.842   2.476  1.00  0.00     0.291 C 
HETATM   13  N   UNL     1      43.166 -30.199   3.245  1.00  0.00    -0.262 N 
HETATM   14  H   UNL     1      43.291 -29.229   3.540  1.00  0.00     0.190 HD
HETATM   15  O   UNL     1      44.150 -32.045   2.265  1.00  0.00    -0.264 OA
BRANCH  13  16
HETATM   16  N   UNL     1      42.200 -30.953   3.915  1.00  0.00    -0.263 N 
HETATM   17  C   UNL     1      41.046 -31.275   3.230  1.00  0.00     0.270 C 
HETATM   18  O   UNL     1      40.855 -30.937   2.063  1.00  0.00    -0.266 OA
HETATM   19  H   UNL     1      42.311 -31.050   4.922  1.00  0.00     0.190 HD
BRANCH  17  20
HETATM   20  C   UNL     1      40.013 -32.045   3.975  1.00  0.00     0.036 A 
HETATM   21  C   UNL     1      39.841 -31.895   5.361  1.00  0.00     0.051 A 
HETATM   22  C   UNL     1      38.866 -32.674   6.000  1.00  0.00     0.085 A 
HETATM   23  C   UNL     1      38.105 -33.570   5.258  1.00  0.00     0.062 A 
HETATM   24  N   UNL     1      38.514 -32.712   7.327  1.00  0.00    -0.242 NA
HETATM   25  N   UNL     1      37.276 -34.154   6.183  1.00  0.00    -0.349 N 
HETATM   26  C   UNL     1      38.256 -33.751   3.884  1.00  0.00     0.033 A 
HETATM   27  H   UNL     1      36.584 -34.866   5.997  1.00  0.00     0.167 HD
HETATM   28  C   UNL     1      37.558 -33.610   7.404  1.00  0.00     0.208 A 
HETATM   29  C   UNL     1      39.234 -32.968   3.258  1.00  0.00     0.019 A 
ENDBRANCH  17  20
ENDBRANCH  13  16
ENDBRANCH   3  12
BRANCH   1  30
HETATM   30  C   UNL     1      45.285 -27.940  -1.161  1.00  0.00     0.193 C 
BRANCH  30  31
HETATM   31  C   UNL     1      45.260 -28.956  -2.280  1.00  0.00    -0.038 A 
HETATM   32  C   UNL     1      46.379 -29.763  -2.534  1.00  0.00     0.009 A 
HETATM   33  C   UNL     1      46.359 -30.696  -3.571  1.00  0.00     0.001 A 
HETATM   34  C   UNL     1      45.224 -30.827  -4.369  1.00  0.00     0.000 A 
HETATM   35  C   UNL     1      44.110 -30.022  -4.135  1.00  0.00     0.001 A 
HETATM   36  C   UNL     1      44.130 -29.087  -3.099  1.00  0.00     0.009 A 
ENDBRANCH  30  31
ENDBRANCH   1  30
TORSDOF 5
ENDMDL
