MODEL 1
REMARK VINA RESULT:     -11.1      0.000      0.000
REMARK  6 active torsions:
REMARK  status: ('A' for Active; 'I' for Inactive)
REMARK    1  A    between atoms: C_2  and  N_3 
REMARK    2  A    between atoms: C_2  and  C_32 
REMARK       I    between atoms: N_3  and  C_4 
REMARK    3  A    between atoms: C_4  and  C_5 
REMARK    4  A    between atoms: C_6  and  N_7 
REMARK       I    between atoms: N_7  and  C_8 
REMARK    5  A    between atoms: C_8  and  C_9 
REMARK    6  A    between atoms: C_9  and  N_10 
ROOT
HETATM    1  N   UNL     1      43.012 -11.207   6.657  1.00  0.00    -0.325 N 
HETATM    2  C   UNL     1      42.746 -11.105   5.296  1.00  0.00     0.240 C 
HETATM    3  O   UNL     1      43.555 -10.689   4.467  1.00  0.00    -0.271 OA
HETATM    4  H   UNL     1      42.187 -11.119   7.253  1.00  0.00     0.169 HD
ENDROOT
BRANCH   1   5
HETATM    5  C   UNL     1      44.225 -10.726   7.200  1.00  0.00     0.050 A 
HETATM    6  C   UNL     1      44.309  -9.782   8.242  1.00  0.00     0.058 A 
HETATM    7  C   UNL     1      45.572  -9.348   8.681  1.00  0.00     0.019 A 
HETATM    8  C   UNL     1      46.740  -9.849   8.104  1.00  0.00     0.001 A 
HETATM    9  C   UNL     1      46.655 -10.757   7.053  1.00  0.00     0.002 A 
HETATM   10  C   UNL     1      45.406 -11.178   6.591  1.00  0.00     0.030 A 
BRANCH   6  11
HETATM   11  C   UNL     1      43.157  -9.019   8.786  1.00  0.00     0.254 C 
HETATM   12  N   UNL     1      43.285  -8.497  10.047  1.00  0.00    -0.349 N 
HETATM   13  H   UNL     1      44.199  -8.547  10.493  1.00  0.00     0.163 HD
HETATM   14  O   UNL     1      42.170  -8.840   8.078  1.00  0.00    -0.268 OA
BRANCH  12  15
HETATM   15  C   UNL     1      42.264  -7.651  10.637  1.00  0.00     0.114 C 
HETATM   16  C   UNL     1      42.575  -6.174  10.394  1.00  0.00     0.037 C 
BRANCH  15  17
HETATM   17  C   UNL     1      42.093  -7.950  12.117  1.00  0.00    -0.036 A 
HETATM   18  C   UNL     1      41.137  -8.892  12.531  1.00  0.00     0.009 A 
HETATM   19  C   UNL     1      40.942  -9.164  13.887  1.00  0.00     0.001 A 
HETATM   20  C   UNL     1      41.703  -8.504  14.848  1.00  0.00     0.000 A 
HETATM   21  C   UNL     1      42.659  -7.569  14.454  1.00  0.00     0.001 A 
HETATM   22  C   UNL     1      42.850  -7.291  13.099  1.00  0.00     0.009 A 
ENDBRANCH  15  17
ENDBRANCH  12  15
ENDBRANCH   6  11
ENDBRANCH   1   5
BRANCH   2  23
HETATM   23  C   UNL     1      41.364 -11.612   4.895  1.00  0.00     0.240 C 
BRANCH  23  24
HETATM   24  N   UNL     1      41.088 -12.929   5.431  1.00  0.00    -0.259 N 
HETATM   25  C   UNL     1      39.909 -13.322   5.979  1.00  0.00     0.326 C 
HETATM   26  O   UNL     1      38.898 -12.661   6.132  1.00  0.00    -0.247 OA
HETATM   27  N   UNL     1      40.019 -14.650   6.336  1.00  0.00    -0.324 N 
HETATM   28  C   UNL     1      41.225 -15.263   5.803  1.00  0.00     0.120 C 
HETATM   29  H   UNL     1      39.195 -15.150   6.649  1.00  0.00     0.165 HD
HETATM   30  C   UNL     1      40.899 -16.052   4.527  1.00  0.00     0.080 C 
HETATM   31  C   UNL     1      41.936 -16.125   6.835  1.00  0.00     0.046 C 
HETATM   32  C   UNL     1      41.973 -13.968   5.435  1.00  0.00     0.257 C 
HETATM   33  C   UNL     1      42.048 -16.888   4.025  1.00  0.00    -0.049 A 
HETATM   34  C   UNL     1      43.116 -17.246   4.865  1.00  0.00    -0.052 A 
HETATM   35  C   UNL     1      42.029 -17.341   2.697  1.00  0.00     0.007 A 
HETATM   36  C   UNL     1      43.218 -16.755   6.287  1.00  0.00     0.042 C 
HETATM   37  C   UNL     1      44.162 -18.025   4.345  1.00  0.00     0.007 A 
HETATM   38  C   UNL     1      44.140 -18.457   3.019  1.00  0.00     0.001 A 
HETATM   39  C   UNL     1      43.072 -18.117   2.195  1.00  0.00     0.001 A 
HETATM   40  O   UNL     1      43.161 -13.858   5.160  1.00  0.00    -0.270 OA
ENDBRANCH  23  24
ENDBRANCH   2  23
TORSDOF 6
ENDMDL
MODEL 2
REMARK VINA RESULT:     -11.0      4.075      9.161
REMARK  6 active torsions:
REMARK  status: ('A' for Active; 'I' for Inactive)
REMARK    1  A    between atoms: C_2  and  N_3 
REMARK    2  A    between atoms: C_2  and  C_32 
REMARK       I    between atoms: N_3  and  C_4 
REMARK    3  A    between atoms: C_4  and  C_5 
REMARK    4  A    between atoms: C_6  and  N_7 
REMARK       I    between atoms: N_7  and  C_8 
REMARK    5  A    between atoms: C_8  and  C_9 
REMARK    6  A    between atoms: C_9  and  N_10 
ROOT
HETATM    1  N   UNL     1      41.367 -12.479   0.592  1.00  0.00    -0.325 N 
HETATM    2  C   UNL     1      40.751 -11.527   1.398  1.00  0.00     0.240 C 
HETATM    3  O   UNL     1      39.555 -11.544   1.689  1.00  0.00    -0.271 OA
HETATM    4  H   UNL     1      42.178 -12.131   0.077  1.00  0.00     0.169 HD
ENDROOT
BRANCH   1   5
HETATM    5  C   UNL     1      40.615 -13.493  -0.042  1.00  0.00     0.050 A 
HETATM    6  C   UNL     1      40.213 -14.690   0.580  1.00  0.00     0.058 A 
HETATM    7  C   UNL     1      39.495 -15.647  -0.158  1.00  0.00     0.019 A 
HETATM    8  C   UNL     1      39.168 -15.418  -1.495  1.00  0.00     0.001 A 
HETATM    9  C   UNL     1      39.592 -14.248  -2.118  1.00  0.00     0.002 A 
HETATM   10  C   UNL     1      40.328 -13.301  -1.403  1.00  0.00     0.030 A 
BRANCH   6  11
HETATM   11  C   UNL     1      40.679 -15.146   1.916  1.00  0.00     0.254 C 
HETATM   12  N   UNL     1      41.748 -16.003   1.952  1.00  0.00    -0.349 N 
HETATM   13  H   UNL     1      42.246 -16.182   1.082  1.00  0.00     0.163 HD
HETATM   14  O   UNL     1      40.132 -14.704   2.923  1.00  0.00    -0.268 OA
BRANCH  12  15
HETATM   15  C   UNL     1      42.348 -16.433   3.202  1.00  0.00     0.114 C 
HETATM   16  C   UNL     1      43.455 -15.470   3.632  1.00  0.00     0.037 C 
BRANCH  15  17
HETATM   17  C   UNL     1      42.856 -17.861   3.104  1.00  0.00    -0.036 A 
HETATM   18  C   UNL     1      43.608 -18.407   4.158  1.00  0.00     0.009 A 
HETATM   19  C   UNL     1      44.109 -19.708   4.079  1.00  0.00     0.001 A 
HETATM   20  C   UNL     1      43.862 -20.484   2.950  1.00  0.00     0.000 A 
HETATM   21  C   UNL     1      43.113 -19.960   1.898  1.00  0.00     0.001 A 
HETATM   22  C   UNL     1      42.618 -18.657   1.971  1.00  0.00     0.009 A 
ENDBRANCH  15  17
ENDBRANCH  12  15
ENDBRANCH   6  11
ENDBRANCH   1   5
BRANCH   2  23
HETATM   23  C   UNL     1      41.703 -10.470   1.948  1.00  0.00     0.240 C 
BRANCH  23  24
HETATM   24  N   UNL     1      41.712 -10.443   3.396  1.00  0.00    -0.259 N 
HETATM   25  C   UNL     1      41.065  -9.531   4.168  1.00  0.00     0.326 C 
HETATM   26  O   UNL     1      40.389  -8.587   3.803  1.00  0.00    -0.247 OA
HETATM   27  N   UNL     1      41.277  -9.858   5.491  1.00  0.00    -0.324 N 
HETATM   28  C   UNL     1      41.887 -11.169   5.642  1.00  0.00     0.120 C 
HETATM   29  H   UNL     1      40.769  -9.360   6.213  1.00  0.00     0.165 HD
HETATM   30  C   UNL     1      40.816 -12.217   5.975  1.00  0.00     0.080 C 
HETATM   31  C   UNL     1      43.012 -11.166   6.666  1.00  0.00     0.046 C 
HETATM   32  C   UNL     1      42.355 -11.351   4.186  1.00  0.00     0.257 C 
HETATM   33  C   UNL     1      41.384 -13.561   6.353  1.00  0.00    -0.049 A 
HETATM   34  C   UNL     1      42.715 -13.701   6.780  1.00  0.00    -0.052 A 
HETATM   35  C   UNL     1      40.550 -14.688   6.302  1.00  0.00     0.007 A 
HETATM   36  C   UNL     1      43.673 -12.537   6.813  1.00  0.00     0.042 C 
HETATM   37  C   UNL     1      43.193 -14.977   7.117  1.00  0.00     0.007 A 
HETATM   38  C   UNL     1      42.360 -16.093   7.048  1.00  0.00     0.001 A 
HETATM   39  C   UNL     1      41.037 -15.949   6.643  1.00  0.00     0.001 A 
HETATM   40  O   UNL     1      43.152 -12.181   3.768  1.00  0.00    -0.270 OA
ENDBRANCH  23  24
ENDBRANCH   2  23
TORSDOF 6
ENDMDL
MODEL 3
REMARK VINA RESULT:     -10.7      2.191      9.376
REMARK  6 active torsions:
REMARK  status: ('A' for Active; 'I' for Inactive)
REMARK    1  A    between atoms: C_2  and  N_3 
REMARK    2  A    between atoms: C_2  and  C_32 
REMARK       I    between atoms: N_3  and  C_4 
REMARK    3  A    between atoms: C_4  and  C_5 
REMARK    4  A    between atoms: C_6  and  N_7 
REMARK       I    between atoms: N_7  and  C_8 
REMARK    5  A    between atoms: C_8  and  C_9 
REMARK    6  A    between atoms: C_9  and  N_10 
ROOT
HETATM    1  N   UNL     1      41.720 -10.011   7.644  1.00  0.00    -0.325 N 
HETATM    2  C   UNL     1      41.184  -8.922   6.964  1.00  0.00     0.240 C 
HETATM    3  O   UNL     1      41.770  -8.314   6.069  1.00  0.00    -0.271 OA
HETATM    4  H   UNL     1      41.373 -10.121   8.599  1.00  0.00     0.169 HD
ENDROOT
BRANCH   1   5
HETATM    5  C   UNL     1      43.049 -10.431   7.412  1.00  0.00     0.050 A 
HETATM    6  C   UNL     1      43.414 -11.436   6.496  1.00  0.00     0.058 A 
HETATM    7  C   UNL     1      44.767 -11.799   6.370  1.00  0.00     0.019 A 
HETATM    8  C   UNL     1      45.749 -11.168   7.135  1.00  0.00     0.001 A 
HETATM    9  C   UNL     1      45.383 -10.197   8.062  1.00  0.00     0.002 A 
HETATM   10  C   UNL     1      44.040  -9.845   8.214  1.00  0.00     0.030 A 
BRANCH   6  11
HETATM   11  C   UNL     1      42.456 -12.325   5.789  1.00  0.00     0.254 C 
HETATM   12  N   UNL     1      42.651 -13.677   5.902  1.00  0.00    -0.349 N 
HETATM   13  H   UNL     1      43.355 -14.005   6.560  1.00  0.00     0.163 HD
HETATM   14  O   UNL     1      41.510 -11.826   5.186  1.00  0.00    -0.268 OA
BRANCH  12  15
HETATM   15  C   UNL     1      41.720 -14.639   5.338  1.00  0.00     0.114 C 
HETATM   16  C   UNL     1      41.281 -15.654   6.394  1.00  0.00     0.037 C 
BRANCH  15  17
HETATM   17  C   UNL     1      42.311 -15.322   4.116  1.00  0.00    -0.036 A 
HETATM   18  C   UNL     1      42.589 -14.568   2.963  1.00  0.00     0.009 A 
HETATM   19  C   UNL     1      43.107 -15.178   1.819  1.00  0.00     0.001 A 
HETATM   20  C   UNL     1      43.360 -16.547   1.811  1.00  0.00     0.000 A 
HETATM   21  C   UNL     1      43.094 -17.308   2.948  1.00  0.00     0.001 A 
HETATM   22  C   UNL     1      42.570 -16.702   4.090  1.00  0.00     0.009 A 
ENDBRANCH  15  17
ENDBRANCH  12  15
ENDBRANCH   6  11
ENDBRANCH   1   5
BRANCH   2  23
HETATM   23  C   UNL     1      39.761  -8.567   7.386  1.00  0.00     0.240 C 
BRANCH  23  24
HETATM   24  N   UNL     1      39.468  -9.000   8.737  1.00  0.00    -0.259 N 
HETATM   25  C   UNL     1      38.968 -10.215   9.081  1.00  0.00     0.326 C 
HETATM   26  O   UNL     1      38.668 -11.136   8.344  1.00  0.00    -0.247 OA
HETATM   27  N   UNL     1      38.864 -10.267  10.455  1.00  0.00    -0.324 N 
HETATM   28  C   UNL     1      39.535  -9.149  11.099  1.00  0.00     0.120 C 
HETATM   29  H   UNL     1      38.624 -11.145  10.903  1.00  0.00     0.165 HD
HETATM   30  C   UNL     1      40.924  -9.576  11.593  1.00  0.00     0.080 C 
HETATM   31  C   UNL     1      38.699  -8.543  12.217  1.00  0.00     0.046 C 
HETATM   32  C   UNL     1      39.680  -8.249   9.857  1.00  0.00     0.257 C 
HETATM   33  C   UNL     1      41.603  -8.542  12.453  1.00  0.00    -0.049 A 
HETATM   34  C   UNL     1      40.874  -7.521  13.085  1.00  0.00    -0.052 A 
HETATM   35  C   UNL     1      42.990  -8.625  12.646  1.00  0.00     0.007 A 
HETATM   36  C   UNL     1      39.389  -7.351  12.883  1.00  0.00     0.042 C 
HETATM   37  C   UNL     1      41.557  -6.582  13.875  1.00  0.00     0.007 A 
HETATM   38  C   UNL     1      42.939  -6.665  14.046  1.00  0.00     0.001 A 
HETATM   39  C   UNL     1      43.656  -7.688  13.434  1.00  0.00     0.001 A 
HETATM   40  O   UNL     1      39.964  -7.058   9.841  1.00  0.00    -0.270 OA
ENDBRANCH  23  24
ENDBRANCH   2  23
TORSDOF 6
ENDMDL
MODEL 4
REMARK VINA RESULT:     -10.6      4.862      8.005
REMARK  6 active torsions:
REMARK  status: ('A' for Active; 'I' for Inactive)
REMARK    1  A    between atoms: C_2  and  N_3 
REMARK    2  A    between atoms: C_2  and  C_32 
REMARK       I    between atoms: N_3  and  C_4 
REMARK    3  A    between atoms: C_4  and  C_5 
REMARK    4  A    between atoms: C_6  and  N_7 
REMARK       I    between atoms: N_7  and  C_8 
REMARK    5  A    between atoms: C_8  and  C_9 
REMARK    6  A    between atoms: C_9  and  N_10 
ROOT
HETATM    1  N   UNL     1      41.515 -15.657   3.263  1.00  0.00    -0.325 N 
HETATM    2  C   UNL     1      41.856 -14.414   2.741  1.00  0.00     0.240 C 
HETATM    3  O   UNL     1      43.012 -14.004   2.642  1.00  0.00    -0.271 OA
HETATM    4  H   UNL     1      40.591 -15.690   3.698  1.00  0.00     0.169 HD
ENDROOT
BRANCH   1   5
HETATM    5  C   UNL     1      42.497 -16.506   3.821  1.00  0.00     0.050 A 
HETATM    6  C   UNL     1      42.948 -16.428   5.153  1.00  0.00     0.058 A 
HETATM    7  C   UNL     1      43.956 -17.303   5.594  1.00  0.00     0.019 A 
HETATM    8  C   UNL     1      44.505 -18.252   4.731  1.00  0.00     0.001 A 
HETATM    9  C   UNL     1      44.080 -18.307   3.407  1.00  0.00     0.002 A 
HETATM   10  C   UNL     1      43.097 -17.427   2.949  1.00  0.00     0.030 A 
BRANCH   6  11
HETATM   11  C   UNL     1      42.606 -15.334   6.099  1.00  0.00     0.254 C 
HETATM   12  N   UNL     1      43.098 -14.085   5.823  1.00  0.00    -0.349 N 
HETATM   13  H   UNL     1      43.561 -13.942   4.927  1.00  0.00     0.163 HD
HETATM   14  O   UNL     1      41.864 -15.574   7.047  1.00  0.00    -0.268 OA
BRANCH  12  15
HETATM   15  C   UNL     1      42.746 -12.925   6.622  1.00  0.00     0.114 C 
HETATM   16  C   UNL     1      41.683 -12.083   5.916  1.00  0.00     0.037 C 
BRANCH  15  17
HETATM   17  C   UNL     1      43.976 -12.102   6.964  1.00  0.00    -0.036 A 
HETATM   18  C   UNL     1      44.002 -11.350   8.151  1.00  0.00     0.009 A 
HETATM   19  C   UNL     1      45.110 -10.563   8.474  1.00  0.00     0.001 A 
HETATM   20  C   UNL     1      46.209 -10.521   7.620  1.00  0.00     0.000 A 
HETATM   21  C   UNL     1      46.201 -11.265   6.442  1.00  0.00     0.001 A 
HETATM   22  C   UNL     1      45.092 -12.046   6.113  1.00  0.00     0.009 A 
ENDBRANCH  15  17
ENDBRANCH  12  15
ENDBRANCH   6  11
ENDBRANCH   1   5
BRANCH   2  23
HETATM   23  C   UNL     1      40.664 -13.602   2.242  1.00  0.00     0.240 C 
BRANCH  23  24
HETATM   24  N   UNL     1      40.349 -13.890   0.858  1.00  0.00    -0.259 N 
HETATM   25  C   UNL     1      39.877 -15.075   0.390  1.00  0.00     0.326 C 
HETATM   26  O   UNL     1      39.651 -16.092   1.021  1.00  0.00    -0.247 OA
HETATM   27  N   UNL     1      39.661 -14.949  -0.966  1.00  0.00    -0.324 N 
HETATM   28  C   UNL     1      39.755 -13.568  -1.411  1.00  0.00     0.120 C 
HETATM   29  H   UNL     1      39.192 -15.697  -1.466  1.00  0.00     0.165 HD
HETATM   30  C   UNL     1      38.353 -12.955  -1.540  1.00  0.00     0.080 C 
HETATM   31  C   UNL     1      40.552 -13.432  -2.700  1.00  0.00     0.046 C 
HETATM   32  C   UNL     1      40.459 -12.995  -0.167  1.00  0.00     0.257 C 
HETATM   33  C   UNL     1      38.347 -11.598  -2.193  1.00  0.00    -0.049 A 
HETATM   34  C   UNL     1      39.423 -11.158  -2.983  1.00  0.00    -0.052 A 
HETATM   35  C   UNL     1      37.225 -10.771  -2.030  1.00  0.00     0.007 A 
HETATM   36  C   UNL     1      40.675 -11.979  -3.161  1.00  0.00     0.042 C 
HETATM   37  C   UNL     1      39.366  -9.882  -3.566  1.00  0.00     0.007 A 
HETATM   38  C   UNL     1      38.252  -9.063  -3.383  1.00  0.00     0.001 A 
HETATM   39  C   UNL     1      37.180  -9.508  -2.617  1.00  0.00     0.001 A 
HETATM   40  O   UNL     1      41.013 -11.908  -0.070  1.00  0.00    -0.270 OA
ENDBRANCH  23  24
ENDBRANCH   2  23
TORSDOF 6
ENDMDL
MODEL 5
REMARK VINA RESULT:     -10.6      2.018      9.346
REMARK  6 active torsions:
REMARK  status: ('A' for Active; 'I' for Inactive)
REMARK    1  A    between atoms: C_2  and  N_3 
REMARK    2  A    between atoms: C_2  and  C_32 
REMARK       I    between atoms: N_3  and  C_4 
REMARK    3  A    between atoms: C_4  and  C_5 
REMARK    4  A    between atoms: C_6  and  N_7 
REMARK       I    between atoms: N_7  and  C_8 
REMARK    5  A    between atoms: C_8  and  C_9 
REMARK    6  A    between atoms: C_9  and  N_10 
ROOT
HETATM    1  N   UNL     1      42.417 -11.614   5.291  1.00  0.00    -0.325 N 
HETATM    2  C   UNL     1      42.565 -12.747   6.084  1.00  0.00     0.240 C 
HETATM    3  O   UNL     1      41.641 -13.508   6.374  1.00  0.00    -0.271 OA
HETATM    4  H   UNL     1      43.087 -10.870   5.495  1.00  0.00     0.169 HD
ENDROOT
BRANCH   1   5
HETATM    5  C   UNL     1      41.142 -11.198   4.846  1.00  0.00     0.050 A 
HETATM    6  C   UNL     1      40.458 -11.770   3.756  1.00  0.00     0.058 A 
HETATM    7  C   UNL     1      39.206 -11.254   3.377  1.00  0.00     0.019 A 
HETATM    8  C   UNL     1      38.632 -10.190   4.075  1.00  0.00     0.001 A 
HETATM    9  C   UNL     1      39.323  -9.606   5.132  1.00  0.00     0.002 A 
HETATM   10  C   UNL     1      40.579 -10.094   5.503  1.00  0.00     0.030 A 
BRANCH   6  11
HETATM   11  C   UNL     1      41.048 -12.749   2.806  1.00  0.00     0.254 C 
HETATM   12  N   UNL     1      40.912 -14.079   3.107  1.00  0.00    -0.349 N 
HETATM   13  H   UNL     1      40.310 -14.333   3.889  1.00  0.00     0.163 HD
HETATM   14  O   UNL     1      41.579 -12.339   1.778  1.00  0.00    -0.268 OA
BRANCH  12  15
HETATM   15  C   UNL     1      41.361 -15.123   2.202  1.00  0.00     0.114 C 
HETATM   16  C   UNL     1      40.169 -15.853   1.583  1.00  0.00     0.037 C 
BRANCH  15  17
HETATM   17  C   UNL     1      42.305 -16.085   2.902  1.00  0.00    -0.036 A 
HETATM   18  C   UNL     1      42.649 -17.298   2.282  1.00  0.00     0.009 A 
HETATM   19  C   UNL     1      43.493 -18.212   2.917  1.00  0.00     0.001 A 
HETATM   20  C   UNL     1      44.010 -17.925   4.177  1.00  0.00     0.000 A 
HETATM   21  C   UNL     1      43.683 -16.724   4.805  1.00  0.00     0.001 A 
HETATM   22  C   UNL     1      42.833 -15.813   4.175  1.00  0.00     0.009 A 
ENDBRANCH  15  17
ENDBRANCH  12  15
ENDBRANCH   6  11
ENDBRANCH   1   5
BRANCH   2  23
HETATM   23  C   UNL     1      44.000 -13.010   6.529  1.00  0.00     0.240 C 
BRANCH  23  24
HETATM   24  N   UNL     1      44.649 -11.811   7.019  1.00  0.00    -0.259 N 
HETATM   25  C   UNL     1      45.547 -11.065   6.325  1.00  0.00     0.326 C 
HETATM   26  O   UNL     1      45.976 -11.263   5.203  1.00  0.00    -0.247 OA
HETATM   27  N   UNL     1      45.907  -9.986   7.105  1.00  0.00    -0.324 N 
HETATM   28  C   UNL     1      45.055  -9.846   8.275  1.00  0.00     0.120 C 
HETATM   29  H   UNL     1      46.478  -9.251   6.703  1.00  0.00     0.165 HD
HETATM   30  C   UNL     1      43.974  -8.787   8.020  1.00  0.00     0.080 C 
HETATM   31  C   UNL     1      45.853  -9.548   9.535  1.00  0.00     0.046 C 
HETATM   32  C   UNL     1      44.422 -11.250   8.243  1.00  0.00     0.257 C 
HETATM   33  C   UNL     1      43.179  -8.429   9.249  1.00  0.00    -0.049 A 
HETATM   34  C   UNL     1      43.664  -8.696  10.540  1.00  0.00    -0.052 A 
HETATM   35  C   UNL     1      41.940  -7.788   9.093  1.00  0.00     0.007 A 
HETATM   36  C   UNL     1      44.965  -9.422  10.774  1.00  0.00     0.042 C 
HETATM   37  C   UNL     1      42.880  -8.344  11.651  1.00  0.00     0.007 A 
HETATM   38  C   UNL     1      41.644  -7.722  11.483  1.00  0.00     0.001 A 
HETATM   39  C   UNL     1      41.174  -7.441  10.204  1.00  0.00     0.001 A 
HETATM   40  O   UNL     1      43.792 -11.794   9.140  1.00  0.00    -0.270 OA
ENDBRANCH  23  24
ENDBRANCH   2  23
TORSDOF 6
ENDMDL
MODEL 6
REMARK VINA RESULT:     -10.5      4.917      8.406
REMARK  6 active torsions:
REMARK  status: ('A' for Active; 'I' for Inactive)
REMARK    1  A    between atoms: C_2  and  N_3 
REMARK    2  A    between atoms: C_2  and  C_32 
REMARK       I    between atoms: N_3  and  C_4 
REMARK    3  A    between atoms: C_4  and  C_5 
REMARK    4  A    between atoms: C_6  and  N_7 
REMARK       I    between atoms: N_7  and  C_8 
REMARK    5  A    between atoms: C_8  and  C_9 
REMARK    6  A    between atoms: C_9  and  N_10 
ROOT
HETATM    1  N   UNL     1      43.704 -17.430   2.417  1.00  0.00    -0.325 N 
HETATM    2  C   UNL     1      42.564 -16.652   2.246  1.00  0.00     0.240 C 
HETATM    3  O   UNL     1      41.547 -16.764   2.930  1.00  0.00    -0.271 OA
HETATM    4  H   UNL     1      44.251 -17.564   1.565  1.00  0.00     0.169 HD
ENDROOT
BRANCH   1   5
HETATM    5  C   UNL     1      43.726 -18.496   3.345  1.00  0.00     0.050 A 
HETATM    6  C   UNL     1      43.803 -18.330   4.741  1.00  0.00     0.058 A 
HETATM    7  C   UNL     1      43.853 -19.464   5.570  1.00  0.00     0.019 A 
HETATM    8  C   UNL     1      43.816 -20.748   5.026  1.00  0.00     0.001 A 
HETATM    9  C   UNL     1      43.771 -20.911   3.645  1.00  0.00     0.002 A 
HETATM   10  C   UNL     1      43.746 -19.793   2.808  1.00  0.00     0.030 A 
BRANCH   6  11
HETATM   11  C   UNL     1      44.065 -17.038   5.426  1.00  0.00     0.254 C 
HETATM   12  N   UNL     1      42.979 -16.278   5.775  1.00  0.00    -0.349 N 
HETATM   13  H   UNL     1      42.054 -16.689   5.666  1.00  0.00     0.163 HD
HETATM   14  O   UNL     1      45.222 -16.729   5.697  1.00  0.00    -0.268 OA
BRANCH  12  15
HETATM   15  C   UNL     1      43.113 -15.048   6.536  1.00  0.00     0.114 C 
HETATM   16  C   UNL     1      43.119 -15.337   8.037  1.00  0.00     0.037 C 
BRANCH  15  17
HETATM   17  C   UNL     1      42.028 -14.053   6.161  1.00  0.00    -0.036 A 
HETATM   18  C   UNL     1      42.286 -12.674   6.255  1.00  0.00     0.009 A 
HETATM   19  C   UNL     1      41.296 -11.740   5.943  1.00  0.00     0.001 A 
HETATM   20  C   UNL     1      40.038 -12.167   5.528  1.00  0.00     0.000 A 
HETATM   21  C   UNL     1      39.767 -13.531   5.425  1.00  0.00     0.001 A 
HETATM   22  C   UNL     1      40.753 -14.467   5.744  1.00  0.00     0.009 A 
ENDBRANCH  15  17
ENDBRANCH  12  15
ENDBRANCH   6  11
ENDBRANCH   1   5
BRANCH   2  23
HETATM   23  C   UNL     1      42.694 -15.591   1.157  1.00  0.00     0.240 C 
BRANCH  23  24
HETATM   24  N   UNL     1      42.061 -14.344   1.532  1.00  0.00    -0.259 N 
HETATM   25  C   UNL     1      42.557 -13.448   2.425  1.00  0.00     0.326 C 
HETATM   26  O   UNL     1      43.586 -13.527   3.070  1.00  0.00    -0.247 OA
HETATM   27  N   UNL     1      41.695 -12.373   2.483  1.00  0.00    -0.324 N 
HETATM   28  C   UNL     1      40.698 -12.411   1.425  1.00  0.00     0.120 C 
HETATM   29  H   UNL     1      41.965 -11.548   3.007  1.00  0.00     0.165 HD
HETATM   30  C   UNL     1      41.118 -11.494   0.268  1.00  0.00     0.080 C 
HETATM   31  C   UNL     1      39.305 -12.075   1.936  1.00  0.00     0.046 C 
HETATM   32  C   UNL     1      40.884 -13.884   1.014  1.00  0.00     0.257 C 
HETATM   33  C   UNL     1      40.046 -11.312  -0.776  1.00  0.00    -0.049 A 
HETATM   34  C   UNL     1      38.696 -11.580  -0.496  1.00  0.00    -0.052 A 
HETATM   35  C   UNL     1      40.409 -10.836  -2.045  1.00  0.00     0.007 A 
HETATM   36  C   UNL     1      38.247 -12.135   0.833  1.00  0.00     0.042 C 
HETATM   37  C   UNL     1      37.739 -11.395  -1.506  1.00  0.00     0.007 A 
HETATM   38  C   UNL     1      38.113 -10.936  -2.769  1.00  0.00     0.001 A 
HETATM   39  C   UNL     1      39.449 -10.654  -3.038  1.00  0.00     0.001 A 
HETATM   40  O   UNL     1      40.133 -14.554   0.317  1.00  0.00    -0.270 OA
ENDBRANCH  23  24
ENDBRANCH   2  23
TORSDOF 6
ENDMDL
MODEL 7
REMARK VINA RESULT:     -10.5      4.960      9.119
REMARK  6 active torsions:
REMARK  status: ('A' for Active; 'I' for Inactive)
REMARK    1  A    between atoms: C_2  and  N_3 
REMARK    2  A    between atoms: C_2  and  C_32 
REMARK       I    between atoms: N_3  and  C_4 
REMARK    3  A    between atoms: C_4  and  C_5 
REMARK    4  A    between atoms: C_6  and  N_7 
REMARK       I    between atoms: N_7  and  C_8 
REMARK    5  A    between atoms: C_8  and  C_9 
REMARK    6  A    between atoms: C_9  and  N_10 
ROOT
HETATM    1  N   UNL     1      40.704 -12.452   4.529  1.00  0.00    -0.325 N 
HETATM    2  C   UNL     1      40.868 -12.951   3.241  1.00  0.00     0.240 C 
HETATM    3  O   UNL     1      41.958 -13.246   2.752  1.00  0.00    -0.271 OA
HETATM    4  H   UNL     1      39.887 -11.850   4.644  1.00  0.00     0.169 HD
ENDROOT
BRANCH   1   5
HETATM    5  C   UNL     1      41.821 -12.149   5.339  1.00  0.00     0.050 A 
HETATM    6  C   UNL     1      42.581 -13.109   6.034  1.00  0.00     0.058 A 
HETATM    7  C   UNL     1      43.654 -12.690   6.841  1.00  0.00     0.019 A 
HETATM    8  C   UNL     1      43.978 -11.338   6.952  1.00  0.00     0.001 A 
HETATM    9  C   UNL     1      43.206 -10.387   6.290  1.00  0.00     0.002 A 
HETATM   10  C   UNL     1      42.123 -10.788   5.505  1.00  0.00     0.030 A 
BRANCH   6  11
HETATM   11  C   UNL     1      42.211 -14.541   6.173  1.00  0.00     0.254 C 
HETATM   12  N   UNL     1      43.163 -15.472   5.848  1.00  0.00    -0.349 N 
HETATM   13  H   UNL     1      44.107 -15.143   5.654  1.00  0.00     0.163 HD
HETATM   14  O   UNL     1      41.104 -14.833   6.616  1.00  0.00    -0.268 OA
BRANCH  12  15
HETATM   15  C   UNL     1      42.946 -16.895   6.041  1.00  0.00     0.114 C 
HETATM   16  C   UNL     1      43.799 -17.424   7.194  1.00  0.00     0.037 C 
BRANCH  15  17
HETATM   17  C   UNL     1      43.200 -17.666   4.757  1.00  0.00    -0.036 A 
HETATM   18  C   UNL     1      42.684 -17.185   3.542  1.00  0.00     0.009 A 
HETATM   19  C   UNL     1      42.881 -17.891   2.352  1.00  0.00     0.001 A 
HETATM   20  C   UNL     1      43.600 -19.083   2.359  1.00  0.00     0.000 A 
HETATM   21  C   UNL     1      44.123 -19.572   3.555  1.00  0.00     0.001 A 
HETATM   22  C   UNL     1      43.921 -18.872   4.746  1.00  0.00     0.009 A 
ENDBRANCH  15  17
ENDBRANCH  12  15
ENDBRANCH   6  11
ENDBRANCH   1   5
BRANCH   2  23
HETATM   23  C   UNL     1      39.559 -13.158   2.485  1.00  0.00     0.240 C 
BRANCH  23  24
HETATM   24  N   UNL     1      39.779 -13.465   1.086  1.00  0.00    -0.259 N 
HETATM   25  C   UNL     1      39.916 -14.713   0.568  1.00  0.00     0.326 C 
HETATM   26  O   UNL     1      39.895 -15.776   1.162  1.00  0.00    -0.247 OA
HETATM   27  N   UNL     1      40.068 -14.600  -0.798  1.00  0.00    -0.324 N 
HETATM   28  C   UNL     1      39.788 -13.254  -1.272  1.00  0.00     0.120 C 
HETATM   29  H   UNL     1      40.061 -15.437  -1.370  1.00  0.00     0.165 HD
HETATM   30  C   UNL     1      38.361 -13.175  -1.831  1.00  0.00     0.080 C 
HETATM   31  C   UNL     1      40.819 -12.774  -2.282  1.00  0.00     0.046 C 
HETATM   32  C   UNL     1      39.852 -12.535   0.089  1.00  0.00     0.257 C 
HETATM   33  C   UNL     1      38.059 -11.875  -2.531  1.00  0.00    -0.049 A 
HETATM   34  C   UNL     1      39.086 -11.039  -3.001  1.00  0.00    -0.052 A 
HETATM   35  C   UNL     1      36.720 -11.512  -2.742  1.00  0.00     0.007 A 
HETATM   36  C   UNL     1      40.543 -11.350  -2.767  1.00  0.00     0.042 C 
HETATM   37  C   UNL     1      38.749  -9.838  -3.645  1.00  0.00     0.007 A 
HETATM   38  C   UNL     1      37.414  -9.480  -3.835  1.00  0.00     0.001 A 
HETATM   39  C   UNL     1      36.399 -10.318  -3.385  1.00  0.00     0.001 A 
HETATM   40  O   UNL     1      39.930 -11.329   0.281  1.00  0.00    -0.270 OA
ENDBRANCH  23  24
ENDBRANCH   2  23
TORSDOF 6
ENDMDL
MODEL 8
REMARK VINA RESULT:     -10.4      2.068      2.623
REMARK  6 active torsions:
REMARK  status: ('A' for Active; 'I' for Inactive)
REMARK    1  A    between atoms: C_2  and  N_3 
REMARK    2  A    between atoms: C_2  and  C_32 
REMARK       I    between atoms: N_3  and  C_4 
REMARK    3  A    between atoms: C_4  and  C_5 
REMARK    4  A    between atoms: C_6  and  N_7 
REMARK       I    between atoms: N_7  and  C_8 
REMARK    5  A    between atoms: C_8  and  C_9 
REMARK    6  A    between atoms: C_9  and  N_10 
ROOT
HETATM    1  N   UNL     1      42.584 -10.935   6.836  1.00  0.00    -0.325 N 
HETATM    2  C   UNL     1      42.565 -10.965   5.446  1.00  0.00     0.240 C 
HETATM    3  O   UNL     1      43.491 -10.571   4.737  1.00  0.00    -0.271 OA
HETATM    4  H   UNL     1      41.661 -10.849   7.266  1.00  0.00     0.169 HD
ENDROOT
BRANCH   1   5
HETATM    5  C   UNL     1      43.656 -10.337   7.537  1.00  0.00     0.050 A 
HETATM    6  C   UNL     1      43.567  -9.113   8.227  1.00  0.00     0.058 A 
HETATM    7  C   UNL     1      44.708  -8.593   8.862  1.00  0.00     0.019 A 
HETATM    8  C   UNL     1      45.922  -9.280   8.824  1.00  0.00     0.001 A 
HETATM    9  C   UNL     1      46.016 -10.474   8.115  1.00  0.00     0.002 A 
HETATM   10  C   UNL     1      44.896 -10.989   7.459  1.00  0.00     0.030 A 
BRANCH   6  11
HETATM   11  C   UNL     1      42.406  -8.187   8.161  1.00  0.00     0.254 C 
HETATM   12  N   UNL     1      42.667  -6.844   8.246  1.00  0.00    -0.349 N 
HETATM   13  H   UNL     1      43.639  -6.543   8.222  1.00  0.00     0.163 HD
HETATM   14  O   UNL     1      41.283  -8.648   7.981  1.00  0.00    -0.268 OA
BRANCH  12  15
HETATM   15  C   UNL     1      41.622  -5.846   8.093  1.00  0.00     0.114 C 
HETATM   16  C   UNL     1      41.582  -5.320   6.658  1.00  0.00     0.037 C 
BRANCH  15  17
HETATM   17  C   UNL     1      41.789  -4.720   9.098  1.00  0.00    -0.036 A 
HETATM   18  C   UNL     1      42.463  -4.960  10.307  1.00  0.00     0.009 A 
HETATM   19  C   UNL     1      42.605  -3.947  11.259  1.00  0.00     0.001 A 
HETATM   20  C   UNL     1      42.082  -2.681  11.014  1.00  0.00     0.000 A 
HETATM   21  C   UNL     1      41.415  -2.425   9.818  1.00  0.00     0.001 A 
HETATM   22  C   UNL     1      41.265  -3.437   8.868  1.00  0.00     0.009 A 
ENDBRANCH  15  17
ENDBRANCH  12  15
ENDBRANCH   6  11
ENDBRANCH   1   5
BRANCH   2  23
HETATM   23  C   UNL     1      41.303 -11.588   4.856  1.00  0.00     0.240 C 
BRANCH  23  24
HETATM   24  N   UNL     1      41.036 -12.903   5.403  1.00  0.00    -0.259 N 
HETATM   25  C   UNL     1      39.858 -13.301   5.949  1.00  0.00     0.326 C 
HETATM   26  O   UNL     1      38.841 -12.647   6.093  1.00  0.00    -0.247 OA
HETATM   27  N   UNL     1      39.977 -14.624   6.318  1.00  0.00    -0.324 N 
HETATM   28  C   UNL     1      41.190 -15.232   5.795  1.00  0.00     0.120 C 
HETATM   29  H   UNL     1      39.156 -15.129   6.632  1.00  0.00     0.165 HD
HETATM   30  C   UNL     1      40.876 -16.034   4.524  1.00  0.00     0.080 C 
HETATM   31  C   UNL     1      41.905 -16.080   6.837  1.00  0.00     0.046 C 
HETATM   32  C   UNL     1      41.930 -13.934   5.419  1.00  0.00     0.257 C 
HETATM   33  C   UNL     1      42.034 -16.865   4.035  1.00  0.00    -0.049 A 
HETATM   34  C   UNL     1      43.101 -17.207   4.881  1.00  0.00    -0.052 A 
HETATM   35  C   UNL     1      42.024 -17.330   2.710  1.00  0.00     0.007 A 
HETATM   36  C   UNL     1      43.194 -16.704   6.300  1.00  0.00     0.042 C 
HETATM   37  C   UNL     1      44.156 -17.982   4.372  1.00  0.00     0.007 A 
HETATM   38  C   UNL     1      44.143 -18.425   3.050  1.00  0.00     0.001 A 
HETATM   39  C   UNL     1      43.075 -18.101   2.219  1.00  0.00     0.001 A 
HETATM   40  O   UNL     1      43.118 -13.816   5.147  1.00  0.00    -0.270 OA
ENDBRANCH  23  24
ENDBRANCH   2  23
TORSDOF 6
ENDMDL
MODEL 9
REMARK VINA RESULT:     -10.4      2.559      9.940
REMARK  6 active torsions:
REMARK  status: ('A' for Active; 'I' for Inactive)
REMARK    1  A    between atoms: C_2  and  N_3 
REMARK    2  A    between atoms: C_2  and  C_32 
REMARK       I    between atoms: N_3  and  C_4 
REMARK    3  A    between atoms: C_4  and  C_5 
REMARK    4  A    between atoms: C_6  and  N_7 
REMARK       I    between atoms: N_7  and  C_8 
REMARK    5  A    between atoms: C_8  and  C_9 
REMARK    6  A    between atoms: C_9  and  N_10 
ROOT
HETATM    1  N   UNL     1      39.427 -13.366   4.008  1.00  0.00    -0.325 N 
HETATM    2  C   UNL     1      40.280 -12.562   4.757  1.00  0.00     0.240 C 
HETATM    3  O   UNL     1      41.356 -12.131   4.343  1.00  0.00    -0.271 OA
HETATM    4  H   UNL     1      38.848 -13.997   4.566  1.00  0.00     0.169 HD
ENDROOT
BRANCH   1   5
HETATM    5  C   UNL     1      39.803 -13.834   2.729  1.00  0.00     0.050 A 
HETATM    6  C   UNL     1      40.445 -15.065   2.492  1.00  0.00     0.058 A 
HETATM    7  C   UNL     1      40.805 -15.415   1.179  1.00  0.00     0.019 A 
HETATM    8  C   UNL     1      40.525 -14.563   0.110  1.00  0.00     0.001 A 
HETATM    9  C   UNL     1      39.919 -13.333   0.350  1.00  0.00     0.002 A 
HETATM   10  C   UNL     1      39.578 -12.962   1.652  1.00  0.00     0.030 A 
BRANCH   6  11
HETATM   11  C   UNL     1      40.988 -15.953   3.552  1.00  0.00     0.254 C 
HETATM   12  N   UNL     1      42.342 -16.164   3.565  1.00  0.00    -0.349 N 
HETATM   13  H   UNL     1      42.918 -15.607   2.936  1.00  0.00     0.163 HD
HETATM   14  O   UNL     1      40.224 -16.414   4.395  1.00  0.00    -0.268 OA
BRANCH  12  15
HETATM   15  C   UNL     1      42.992 -16.931   4.613  1.00  0.00     0.114 C 
HETATM   16  C   UNL     1      44.216 -16.189   5.149  1.00  0.00     0.037 C 
BRANCH  15  17
HETATM   17  C   UNL     1      43.351 -18.325   4.128  1.00  0.00    -0.036 A 
HETATM   18  C   UNL     1      43.757 -19.301   5.053  1.00  0.00     0.009 A 
HETATM   19  C   UNL     1      44.119 -20.582   4.629  1.00  0.00     0.001 A 
HETATM   20  C   UNL     1      44.074 -20.907   3.277  1.00  0.00     0.000 A 
HETATM   21  C   UNL     1      43.669 -19.953   2.346  1.00  0.00     0.001 A 
HETATM   22  C   UNL     1      43.314 -18.670   2.767  1.00  0.00     0.009 A 
ENDBRANCH  15  17
ENDBRANCH  12  15
ENDBRANCH   6  11
ENDBRANCH   1   5
BRANCH   2  23
HETATM   23  C   UNL     1      39.742 -12.205   6.139  1.00  0.00     0.240 C 
BRANCH  23  24
HETATM   24  N   UNL     1      39.921 -10.801   6.449  1.00  0.00    -0.259 N 
HETATM   25  C   UNL     1      39.009  -9.823   6.212  1.00  0.00     0.326 C 
HETATM   26  O   UNL     1      37.911  -9.933   5.699  1.00  0.00    -0.247 OA
HETATM   27  N   UNL     1      39.523  -8.631   6.679  1.00  0.00    -0.324 N 
HETATM   28  C   UNL     1      40.721  -8.826   7.480  1.00  0.00     0.120 C 
HETATM   29  H   UNL     1      38.930  -7.809   6.700  1.00  0.00     0.165 HD
HETATM   30  C   UNL     1      40.371  -8.795   8.974  1.00  0.00     0.080 C 
HETATM   31  C   UNL     1      41.813  -7.825   7.133  1.00  0.00     0.046 C 
HETATM   32  C   UNL     1      41.028 -10.273   7.049  1.00  0.00     0.257 C 
HETATM   33  C   UNL     1      41.579  -8.781   9.875  1.00  0.00    -0.049 A 
HETATM   34  C   UNL     1      42.843  -8.391   9.402  1.00  0.00    -0.052 A 
HETATM   35  C   UNL     1      41.424  -9.138  11.224  1.00  0.00     0.007 A 
HETATM   36  C   UNL     1      43.085  -8.039   7.956  1.00  0.00     0.042 C 
HETATM   37  C   UNL     1      43.935  -8.398  10.285  1.00  0.00     0.007 A 
HETATM   38  C   UNL     1      43.772  -8.770  11.619  1.00  0.00     0.001 A 
HETATM   39  C   UNL     1      42.516  -9.138  12.090  1.00  0.00     0.001 A 
HETATM   40  O   UNL     1      42.072 -10.887   7.224  1.00  0.00    -0.270 OA
ENDBRANCH  23  24
ENDBRANCH   2  23
TORSDOF 6
ENDMDL
MODEL 10
REMARK VINA RESULT:     -10.3      1.891      2.616
REMARK  6 active torsions:
REMARK  status: ('A' for Active; 'I' for Inactive)
REMARK    1  A    between atoms: C_2  and  N_3 
REMARK    2  A    between atoms: C_2  and  C_32 
REMARK       I    between atoms: N_3  and  C_4 
REMARK    3  A    between atoms: C_4  and  C_5 
REMARK    4  A    between atoms: C_6  and  N_7 
REMARK       I    between atoms: N_7  and  C_8 
REMARK    5  A    between atoms: C_8  and  C_9 
REMARK    6  A    between atoms: C_9  and  N_10 
ROOT
HETATM    1  N   UNL     1      42.486 -10.882   7.493  1.00  0.00    -0.325 N 
HETATM    2  C   UNL     1      41.688 -10.025   6.741  1.00  0.00     0.240 C 
HETATM    3  O   UNL     1      41.985  -8.859   6.484  1.00  0.00    -0.271 OA
HETATM    4  H   UNL     1      41.966 -11.603   7.997  1.00  0.00     0.169 HD
ENDROOT
BRANCH   1   5
HETATM    5  C   UNL     1      43.669 -10.419   8.111  1.00  0.00     0.050 A 
HETATM    6  C   UNL     1      43.741  -9.956   9.440  1.00  0.00     0.058 A 
HETATM    7  C   UNL     1      44.966  -9.486   9.943  1.00  0.00     0.019 A 
HETATM    8  C   UNL     1      46.111  -9.483   9.145  1.00  0.00     0.001 A 
HETATM    9  C   UNL     1      46.032  -9.911   7.823  1.00  0.00     0.002 A 
HETATM   10  C   UNL     1      44.815 -10.358   7.304  1.00  0.00     0.030 A 
BRANCH   6  11
HETATM   11  C   UNL     1      42.565  -9.707  10.313  1.00  0.00     0.254 C 
HETATM   12  N   UNL     1      42.513 -10.378  11.507  1.00  0.00    -0.349 N 
HETATM   13  H   UNL     1      43.333 -10.909  11.792  1.00  0.00     0.163 HD
HETATM   14  O   UNL     1      41.724  -8.883   9.963  1.00  0.00    -0.268 OA
BRANCH  12  15
HETATM   15  C   UNL     1      41.463 -10.135  12.481  1.00  0.00     0.114 C 
HETATM   16  C   UNL     1      40.137  -9.828  11.785  1.00  0.00     0.037 C 
BRANCH  15  17
HETATM   17  C   UNL     1      41.857  -9.031  13.447  1.00  0.00    -0.036 A 
HETATM   18  C   UNL     1      41.101  -8.823  14.612  1.00  0.00     0.009 A 
HETATM   19  C   UNL     1      41.427  -7.796  15.502  1.00  0.00     0.001 A 
HETATM   20  C   UNL     1      42.515  -6.968  15.243  1.00  0.00     0.000 A 
HETATM   21  C   UNL     1      43.279  -7.164  14.094  1.00  0.00     0.001 A 
HETATM   22  C   UNL     1      42.950  -8.185  13.200  1.00  0.00     0.009 A 
ENDBRANCH  15  17
ENDBRANCH  12  15
ENDBRANCH   6  11
ENDBRANCH   1   5
BRANCH   2  23
HETATM   23  C   UNL     1      40.417 -10.674   6.203  1.00  0.00     0.240 C 
BRANCH  23  24
HETATM   24  N   UNL     1      40.698 -11.672   5.191  1.00  0.00    -0.259 N 
HETATM   25  C   UNL     1      40.986 -11.411   3.890  1.00  0.00     0.326 C 
HETATM   26  O   UNL     1      41.047 -10.327   3.340  1.00  0.00    -0.247 OA
HETATM   27  N   UNL     1      41.233 -12.609   3.253  1.00  0.00    -0.324 N 
HETATM   28  C   UNL     1      41.357 -13.713   4.191  1.00  0.00     0.120 C 
HETATM   29  H   UNL     1      41.586 -12.603   2.303  1.00  0.00     0.165 HD
HETATM   30  C   UNL     1      42.838 -14.016   4.462  1.00  0.00     0.080 C 
HETATM   31  C   UNL     1      40.603 -14.950   3.726  1.00  0.00     0.046 C 
HETATM   32  C   UNL     1      40.738 -13.017   5.418  1.00  0.00     0.257 C 
HETATM   33  C   UNL     1      43.060 -15.276   5.257  1.00  0.00    -0.049 A 
HETATM   34  C   UNL     1      42.073 -16.271   5.346  1.00  0.00    -0.052 A 
HETATM   35  C   UNL     1      44.295 -15.466   5.897  1.00  0.00     0.007 A 
HETATM   36  C   UNL     1      40.711 -16.109   4.719  1.00  0.00     0.042 C 
HETATM   37  C   UNL     1      42.332 -17.425   6.103  1.00  0.00     0.007 A 
HETATM   38  C   UNL     1      43.557 -17.596   6.748  1.00  0.00     0.001 A 
HETATM   39  C   UNL     1      44.540 -16.617   6.643  1.00  0.00     0.001 A 
HETATM   40  O   UNL     1      40.357 -13.551   6.452  1.00  0.00    -0.270 OA
ENDBRANCH  23  24
ENDBRANCH   2  23
TORSDOF 6
ENDMDL
