MODEL 1
REMARK VINA RESULT:      -8.3      0.000      0.000
REMARK  9 active torsions:
REMARK  status: ('A' for Active; 'I' for Inactive)
REMARK    1  A    between atoms: C_2  and  O_3 
REMARK    2  A    between atoms: O_3  and  C_4 
REMARK    3  A    between atoms: C_4  and  C_5 
REMARK    4  A    between atoms: C_8  and  N_9 
REMARK       I    between atoms: N_9  and  C_10 
REMARK    5  A    between atoms: C_10  and  C_11 
REMARK       I    between atoms: C_11  and  N_12 
REMARK    6  A    between atoms: N_12  and  C_13 
REMARK    7  A    between atoms: C_13  and  C_14 
REMARK    8  A    between atoms: C_14  and  C_15 
REMARK    9  A    between atoms: C_18  and  O_19 
ROOT
HETATM    1  C   UNL     1      44.590 -11.688   6.308  1.00  0.00     0.309 C 
HETATM    2  N   UNL     1      43.776 -12.794   6.362  1.00  0.00    -0.352 N 
HETATM    3  O   UNL     1      45.120 -11.222   5.307  1.00  0.00    -0.262 OA
HETATM    4  H   UNL     1      43.433 -13.058   7.283  1.00  0.00     0.162 HD
ENDROOT
BRANCH   1   5
HETATM    5  C   UNL     1      44.858 -11.041   7.684  1.00  0.00     0.313 C 
HETATM    6  N   UNL     1      43.687 -10.662   8.303  1.00  0.00    -0.319 N 
HETATM    7  H   UNL     1      42.845 -10.895   7.778  1.00  0.00     0.169 HD
HETATM    8  O   UNL     1      46.014 -10.914   8.060  1.00  0.00    -0.262 OA
BRANCH   6   9
HETATM    9  C   UNL     1      43.534  -9.968   9.513  1.00  0.00     0.035 A 
HETATM   10  C   UNL     1      43.371  -8.584   9.598  1.00  0.00     0.030 A 
HETATM   11  C   UNL     1      43.187  -7.967  10.842  1.00  0.00     0.020 A 
HETATM   12  C   UNL     1      43.166  -8.728  12.017  1.00  0.00     0.039 A 
HETATM   13  C   UNL     1      43.344 -10.113  11.935  1.00  0.00     0.020 A 
HETATM   14  C   UNL     1      43.526 -10.726  10.689  1.00  0.00     0.030 A 
BRANCH  12  15
HETATM   15  C   UNL     1      42.941  -8.023  13.308  1.00  0.00     0.293 C 
HETATM   16  O   UNL     1      43.165  -6.834  13.475  1.00  0.00    -0.259 OA
BRANCH  15  17
HETATM   17  O   UNL     1      42.452  -8.880  14.239  1.00  0.00    -0.318 OA
BRANCH  17  18
HETATM   18  C   UNL     1      41.124  -8.601  14.706  1.00  0.00     0.174 C 
HETATM   19  C   UNL     1      41.171  -7.986  16.093  1.00  0.00     0.034 C 
ENDBRANCH  17  18
ENDBRANCH  15  17
ENDBRANCH  12  15
ENDBRANCH   6   9
ENDBRANCH   1   5
BRANCH   2  20
HETATM   20  C   UNL     1      43.488 -13.620   5.208  1.00  0.00     0.137 C 
BRANCH  20  21
HETATM   21  C   UNL     1      42.484 -14.776   5.460  1.00  0.00     0.003 C 
HETATM   22  C   UNL     1      42.244 -15.080   6.963  1.00  0.00     0.016 C 
HETATM   23  C   UNL     1      40.937 -15.874   6.995  1.00  0.00     0.001 C 
HETATM   24  C   UNL     1      40.142 -15.400   5.779  1.00  0.00     0.001 C 
HETATM   25  C   UNL     1      41.035 -14.376   5.078  1.00  0.00     0.016 C 
BRANCH  21  26
HETATM   26  C   UNL     1      43.020 -16.010   4.701  1.00  0.00    -0.048 A 
HETATM   27  C   UNL     1      42.602 -16.273   3.383  1.00  0.00     0.011 A 
HETATM   28  C   UNL     1      43.060 -17.395   2.683  1.00  0.00     0.037 A 
HETATM   29  C   UNL     1      43.931 -18.300   3.280  1.00  0.00     0.068 A 
HETATM   30  C   UNL     1      44.335 -18.076   4.594  1.00  0.00     0.037 A 
HETATM   31  C   UNL     1      43.880 -16.950   5.295  1.00  0.00     0.011 A 
BRANCH  29  32
HETATM   32  O   UNL     1      44.300 -19.352   2.490  1.00  0.00    -0.356 OA
HETATM   33  C   UNL     1      43.267 -20.232   2.067  1.00  0.00     0.210 C 
ENDBRANCH  29  32
ENDBRANCH  21  26
ENDBRANCH  20  21
ENDBRANCH   2  20
TORSDOF 9
ENDMDL
MODEL 2
REMARK VINA RESULT:      -8.3      1.470     10.930
REMARK  9 active torsions:
REMARK  status: ('A' for Active; 'I' for Inactive)
REMARK    1  A    between atoms: C_2  and  O_3 
REMARK    2  A    between atoms: O_3  and  C_4 
REMARK    3  A    between atoms: C_4  and  C_5 
REMARK    4  A    between atoms: C_8  and  N_9 
REMARK       I    between atoms: N_9  and  C_10 
REMARK    5  A    between atoms: C_10  and  C_11 
REMARK       I    between atoms: C_11  and  N_12 
REMARK    6  A    between atoms: N_12  and  C_13 
REMARK    7  A    between atoms: C_13  and  C_14 
REMARK    8  A    between atoms: C_14  and  C_15 
REMARK    9  A    between atoms: C_18  and  O_19 
ROOT
HETATM    1  C   UNL     1      44.758 -10.891   8.467  1.00  0.00     0.309 C 
HETATM    2  N   UNL     1      43.701 -11.033   9.335  1.00  0.00    -0.352 N 
HETATM    3  O   UNL     1      45.770 -10.230   8.655  1.00  0.00    -0.262 OA
HETATM    4  H   UNL     1      42.925 -11.607   9.012  1.00  0.00     0.162 HD
ENDROOT
BRANCH   1   5
HETATM    5  C   UNL     1      44.566 -11.627   7.123  1.00  0.00     0.313 C 
HETATM    6  N   UNL     1      43.732 -12.716   7.256  1.00  0.00    -0.319 N 
HETATM    7  H   UNL     1      43.355 -12.839   8.195  1.00  0.00     0.169 HD
HETATM    8  O   UNL     1      45.154 -11.213   6.135  1.00  0.00    -0.262 OA
BRANCH   6   9
HETATM    9  C   UNL     1      43.396 -13.671   6.284  1.00  0.00     0.035 A 
HETATM   10  C   UNL     1      42.669 -13.377   5.128  1.00  0.00     0.030 A 
HETATM   11  C   UNL     1      42.405 -14.378   4.185  1.00  0.00     0.020 A 
HETATM   12  C   UNL     1      42.862 -15.686   4.387  1.00  0.00     0.039 A 
HETATM   13  C   UNL     1      43.577 -15.985   5.552  1.00  0.00     0.020 A 
HETATM   14  C   UNL     1      43.841 -14.981   6.492  1.00  0.00     0.030 A 
BRANCH  12  15
HETATM   15  C   UNL     1      42.574 -16.703   3.340  1.00  0.00     0.293 C 
HETATM   16  O   UNL     1      42.019 -16.444   2.284  1.00  0.00    -0.259 OA
BRANCH  15  17
HETATM   17  O   UNL     1      43.021 -17.924   3.726  1.00  0.00    -0.318 OA
BRANCH  17  18
HETATM   18  C   UNL     1      43.942 -18.563   2.829  1.00  0.00     0.174 C 
HETATM   19  C   UNL     1      43.301 -19.783   2.196  1.00  0.00     0.034 C 
ENDBRANCH  17  18
ENDBRANCH  15  17
ENDBRANCH  12  15
ENDBRANCH   6   9
ENDBRANCH   1   5
BRANCH   2  20
HETATM   20  C   UNL     1      43.620 -10.336  10.602  1.00  0.00     0.137 C 
BRANCH  20  21
HETATM   21  C   UNL     1      42.735  -9.061  10.596  1.00  0.00     0.003 C 
HETATM   22  C   UNL     1      43.406  -7.836   9.920  1.00  0.00     0.016 C 
HETATM   23  C   UNL     1      42.251  -6.884   9.606  1.00  0.00     0.001 C 
HETATM   24  C   UNL     1      41.029  -7.778   9.404  1.00  0.00     0.001 C 
HETATM   25  C   UNL     1      41.521  -9.207   9.641  1.00  0.00     0.016 C 
BRANCH  21  26
HETATM   26  C   UNL     1      42.353  -8.773  12.065  1.00  0.00    -0.048 A 
HETATM   27  C   UNL     1      43.145  -7.916  12.852  1.00  0.00     0.011 A 
HETATM   28  C   UNL     1      42.829  -7.656  14.190  1.00  0.00     0.037 A 
HETATM   29  C   UNL     1      41.728  -8.258  14.792  1.00  0.00     0.068 A 
HETATM   30  C   UNL     1      40.948  -9.133  14.041  1.00  0.00     0.037 A 
HETATM   31  C   UNL     1      41.262  -9.390  12.698  1.00  0.00     0.011 A 
BRANCH  29  32
HETATM   32  O   UNL     1      41.532  -7.921  16.102  1.00  0.00    -0.356 OA
HETATM   33  C   UNL     1      42.125  -6.710  16.550  1.00  0.00     0.210 C 
ENDBRANCH  29  32
ENDBRANCH  21  26
ENDBRANCH  20  21
ENDBRANCH   2  20
TORSDOF 9
ENDMDL
MODEL 3
REMARK VINA RESULT:      -8.0      1.753      2.571
REMARK  9 active torsions:
REMARK  status: ('A' for Active; 'I' for Inactive)
REMARK    1  A    between atoms: C_2  and  O_3 
REMARK    2  A    between atoms: O_3  and  C_4 
REMARK    3  A    between atoms: C_4  and  C_5 
REMARK    4  A    between atoms: C_8  and  N_9 
REMARK       I    between atoms: N_9  and  C_10 
REMARK    5  A    between atoms: C_10  and  C_11 
REMARK       I    between atoms: C_11  and  N_12 
REMARK    6  A    between atoms: N_12  and  C_13 
REMARK    7  A    between atoms: C_13  and  C_14 
REMARK    8  A    between atoms: C_14  and  C_15 
REMARK    9  A    between atoms: C_18  and  O_19 
ROOT
HETATM    1  C   UNL     1      43.728 -12.088   4.714  1.00  0.00     0.309 C 
HETATM    2  N   UNL     1      43.125 -13.280   4.390  1.00  0.00    -0.352 N 
HETATM    3  O   UNL     1      44.275 -11.314   3.939  1.00  0.00    -0.262 OA
HETATM    4  H   UNL     1      42.732 -13.813   5.163  1.00  0.00     0.162 HD
ENDROOT
BRANCH   1   5
HETATM    5  C   UNL     1      43.718 -11.773   6.225  1.00  0.00     0.313 C 
HETATM    6  N   UNL     1      43.299 -10.483   6.471  1.00  0.00    -0.319 N 
HETATM    7  H   UNL     1      43.035  -9.964   5.635  1.00  0.00     0.169 HD
HETATM    8  O   UNL     1      44.081 -12.636   7.010  1.00  0.00    -0.262 OA
BRANCH   6   9
HETATM    9  C   UNL     1      43.244  -9.812   7.703  1.00  0.00     0.035 A 
HETATM   10  C   UNL     1      44.370  -9.518   8.476  1.00  0.00     0.030 A 
HETATM   11  C   UNL     1      44.238  -8.811   9.677  1.00  0.00     0.020 A 
HETATM   12  C   UNL     1      42.978  -8.392  10.123  1.00  0.00     0.039 A 
HETATM   13  C   UNL     1      41.849  -8.698   9.357  1.00  0.00     0.020 A 
HETATM   14  C   UNL     1      41.985  -9.404   8.155  1.00  0.00     0.030 A 
BRANCH  12  15
HETATM   15  C   UNL     1      42.901  -7.622  11.394  1.00  0.00     0.293 C 
HETATM   16  O   UNL     1      42.450  -6.490  11.469  1.00  0.00    -0.259 OA
BRANCH  15  17
HETATM   17  O   UNL     1      43.385  -8.356  12.425  1.00  0.00    -0.318 OA
BRANCH  17  18
HETATM   18  C   UNL     1      42.485  -9.331  12.973  1.00  0.00     0.174 C 
HETATM   19  C   UNL     1      42.019  -8.902  14.352  1.00  0.00     0.034 C 
ENDBRANCH  17  18
ENDBRANCH  15  17
ENDBRANCH  12  15
ENDBRANCH   6   9
ENDBRANCH   1   5
BRANCH   2  20
HETATM   20  C   UNL     1      43.122 -13.825   3.048  1.00  0.00     0.137 C 
BRANCH  20  21
HETATM   21  C   UNL     1      42.089 -14.955   2.799  1.00  0.00     0.003 C 
HETATM   22  C   UNL     1      40.726 -14.724   3.503  1.00  0.00     0.016 C 
HETATM   23  C   UNL     1      39.751 -15.652   2.778  1.00  0.00     0.001 C 
HETATM   24  C   UNL     1      40.299 -15.790   1.358  1.00  0.00     0.001 C 
HETATM   25  C   UNL     1      41.584 -14.962   1.332  1.00  0.00     0.016 C 
BRANCH  21  26
HETATM   26  C   UNL     1      42.753 -16.277   3.245  1.00  0.00    -0.048 A 
HETATM   27  C   UNL     1      42.977 -16.537   4.610  1.00  0.00     0.011 A 
HETATM   28  C   UNL     1      43.594 -17.718   5.035  1.00  0.00     0.037 A 
HETATM   29  C   UNL     1      44.028 -18.667   4.115  1.00  0.00     0.068 A 
HETATM   30  C   UNL     1      43.843 -18.417   2.758  1.00  0.00     0.037 A 
HETATM   31  C   UNL     1      43.221 -17.236   2.330  1.00  0.00     0.011 A 
BRANCH  29  32
HETATM   32  O   UNL     1      44.615 -19.773   4.660  1.00  0.00    -0.356 OA
HETATM   33  C   UNL     1      43.811 -20.571   5.518  1.00  0.00     0.210 C 
ENDBRANCH  29  32
ENDBRANCH  21  26
ENDBRANCH  20  21
ENDBRANCH   2  20
TORSDOF 9
ENDMDL
MODEL 4
REMARK VINA RESULT:      -7.7      2.150     10.861
REMARK  9 active torsions:
REMARK  status: ('A' for Active; 'I' for Inactive)
REMARK    1  A    between atoms: C_2  and  O_3 
REMARK    2  A    between atoms: O_3  and  C_4 
REMARK    3  A    between atoms: C_4  and  C_5 
REMARK    4  A    between atoms: C_8  and  N_9 
REMARK       I    between atoms: N_9  and  C_10 
REMARK    5  A    between atoms: C_10  and  C_11 
REMARK       I    between atoms: C_11  and  N_12 
REMARK    6  A    between atoms: N_12  and  C_13 
REMARK    7  A    between atoms: C_13  and  C_14 
REMARK    8  A    between atoms: C_14  and  C_15 
REMARK    9  A    between atoms: C_18  and  O_19 
ROOT
HETATM    1  C   UNL     1      44.853 -10.413   9.239  1.00  0.00     0.309 C 
HETATM    2  N   UNL     1      43.771 -10.731  10.024  1.00  0.00    -0.352 N 
HETATM    3  O   UNL     1      45.765  -9.650   9.531  1.00  0.00    -0.262 OA
HETATM    4  H   UNL     1      43.091 -11.371   9.619  1.00  0.00     0.162 HD
ENDROOT
BRANCH   1   5
HETATM    5  C   UNL     1      44.835 -11.082   7.848  1.00  0.00     0.313 C 
HETATM    6  N   UNL     1      43.720 -11.875   7.681  1.00  0.00    -0.319 N 
HETATM    7  H   UNL     1      43.081 -11.867   8.476  1.00  0.00     0.169 HD
HETATM    8  O   UNL     1      45.764 -10.875   7.082  1.00  0.00    -0.262 OA
BRANCH   6   9
HETATM    9  C   UNL     1      43.403 -12.704   6.594  1.00  0.00     0.035 A 
HETATM   10  C   UNL     1      43.004 -12.225   5.345  1.00  0.00     0.030 A 
HETATM   11  C   UNL     1      42.741 -13.116   4.297  1.00  0.00     0.020 A 
HETATM   12  C   UNL     1      42.872 -14.497   4.486  1.00  0.00     0.039 A 
HETATM   13  C   UNL     1      43.259 -14.979   5.741  1.00  0.00     0.020 A 
HETATM   14  C   UNL     1      43.522 -14.085   6.786  1.00  0.00     0.030 A 
BRANCH  12  15
HETATM   15  C   UNL     1      42.605 -15.395   3.329  1.00  0.00     0.293 C 
HETATM   16  O   UNL     1      43.365 -15.516   2.381  1.00  0.00    -0.259 OA
BRANCH  15  17
HETATM   17  O   UNL     1      41.427 -16.046   3.495  1.00  0.00    -0.318 OA
BRANCH  17  18
HETATM   18  C   UNL     1      40.510 -15.963   2.393  1.00  0.00     0.174 C 
HETATM   19  C   UNL     1      39.859 -14.592   2.352  1.00  0.00     0.034 C 
ENDBRANCH  17  18
ENDBRANCH  15  17
ENDBRANCH  12  15
ENDBRANCH   6   9
ENDBRANCH   1   5
BRANCH   2  20
HETATM   20  C   UNL     1      43.529 -10.128  11.319  1.00  0.00     0.137 C 
BRANCH  20  21
HETATM   21  C   UNL     1      42.534  -8.937  11.314  1.00  0.00     0.003 C 
HETATM   22  C   UNL     1      42.970  -7.760  10.403  1.00  0.00     0.016 C 
HETATM   23  C   UNL     1      41.694  -6.948  10.177  1.00  0.00     0.001 C 
HETATM   24  C   UNL     1      40.547  -7.953  10.282  1.00  0.00     0.001 C 
HETATM   25  C   UNL     1      41.207  -9.297  10.594  1.00  0.00     0.016 C 
BRANCH  21  26
HETATM   26  C   UNL     1      42.356  -8.495  12.784  1.00  0.00    -0.048 A 
HETATM   27  C   UNL     1      41.350  -9.067  13.584  1.00  0.00     0.011 A 
HETATM   28  C   UNL     1      41.159  -8.668  14.911  1.00  0.00     0.037 A 
HETATM   29  C   UNL     1      41.949  -7.672  15.476  1.00  0.00     0.068 A 
HETATM   30  C   UNL     1      42.931  -7.071  14.694  1.00  0.00     0.037 A 
HETATM   31  C   UNL     1      43.126  -7.473  13.365  1.00  0.00     0.011 A 
BRANCH  29  32
HETATM   32  O   UNL     1      41.659  -7.375  16.778  1.00  0.00    -0.356 OA
HETATM   33  C   UNL     1      41.776  -6.014  17.169  1.00  0.00     0.210 C 
ENDBRANCH  29  32
ENDBRANCH  21  26
ENDBRANCH  20  21
ENDBRANCH   2  20
TORSDOF 9
ENDMDL
MODEL 5
REMARK VINA RESULT:      -7.7      3.754      9.819
REMARK  9 active torsions:
REMARK  status: ('A' for Active; 'I' for Inactive)
REMARK    1  A    between atoms: C_2  and  O_3 
REMARK    2  A    between atoms: O_3  and  C_4 
REMARK    3  A    between atoms: C_4  and  C_5 
REMARK    4  A    between atoms: C_8  and  N_9 
REMARK       I    between atoms: N_9  and  C_10 
REMARK    5  A    between atoms: C_10  and  C_11 
REMARK       I    between atoms: C_11  and  N_12 
REMARK    6  A    between atoms: N_12  and  C_13 
REMARK    7  A    between atoms: C_13  and  C_14 
REMARK    8  A    between atoms: C_14  and  C_15 
REMARK    9  A    between atoms: C_18  and  O_19 
ROOT
HETATM    1  C   UNL     1      39.602  -9.377   9.348  1.00  0.00     0.309 C 
HETATM    2  N   UNL     1      40.722  -9.749  10.054  1.00  0.00    -0.352 N 
HETATM    3  O   UNL     1      38.626  -8.786   9.791  1.00  0.00    -0.262 OA
HETATM    4  H   UNL     1      41.437 -10.254   9.533  1.00  0.00     0.162 HD
ENDROOT
BRANCH   1   5
HETATM    5  C   UNL     1      39.621  -9.817   7.868  1.00  0.00     0.313 C 
HETATM    6  N   UNL     1      40.781 -10.493   7.555  1.00  0.00    -0.319 N 
HETATM    7  H   UNL     1      41.413 -10.621   8.343  1.00  0.00     0.169 HD
HETATM    8  O   UNL     1      38.675  -9.522   7.153  1.00  0.00    -0.262 OA
BRANCH   6   9
HETATM    9  C   UNL     1      41.194 -10.964   6.299  1.00  0.00     0.035 A 
HETATM   10  C   UNL     1      42.017 -10.240   5.432  1.00  0.00     0.030 A 
HETATM   11  C   UNL     1      42.417 -10.794   4.210  1.00  0.00     0.020 A 
HETATM   12  C   UNL     1      41.998 -12.077   3.838  1.00  0.00     0.039 A 
HETATM   13  C   UNL     1      41.163 -12.797   4.699  1.00  0.00     0.020 A 
HETATM   14  C   UNL     1      40.766 -12.240   5.921  1.00  0.00     0.030 A 
BRANCH  12  15
HETATM   15  C   UNL     1      42.475 -12.625   2.539  1.00  0.00     0.293 C 
HETATM   16  O   UNL     1      43.368 -13.453   2.445  1.00  0.00    -0.259 OA
BRANCH  15  17
HETATM   17  O   UNL     1      41.778 -12.085   1.510  1.00  0.00    -0.318 OA
BRANCH  17  18
HETATM   18  C   UNL     1      41.175 -13.023   0.606  1.00  0.00     0.174 C 
HETATM   19  C   UNL     1      39.868 -13.540   1.177  1.00  0.00     0.034 C 
ENDBRANCH  17  18
ENDBRANCH  15  17
ENDBRANCH  12  15
ENDBRANCH   6   9
ENDBRANCH   1   5
BRANCH   2  20
HETATM   20  C   UNL     1      40.863  -9.541  11.480  1.00  0.00     0.137 C 
BRANCH  20  21
HETATM   21  C   UNL     1      41.972  -8.536  11.892  1.00  0.00     0.003 C 
HETATM   22  C   UNL     1      41.475  -7.072  12.019  1.00  0.00     0.016 C 
HETATM   23  C   UNL     1      42.545  -6.369  12.855  1.00  0.00     0.001 C 
HETATM   24  C   UNL     1      43.149  -7.456  13.743  1.00  0.00     0.001 C 
HETATM   25  C   UNL     1      42.423  -8.747  13.361  1.00  0.00     0.016 C 
BRANCH  21  26
HETATM   26  C   UNL     1      43.109  -8.673  10.855  1.00  0.00    -0.048 A 
HETATM   27  C   UNL     1      44.134  -9.619  11.042  1.00  0.00     0.011 A 
HETATM   28  C   UNL     1      45.184  -9.746  10.126  1.00  0.00     0.037 A 
HETATM   29  C   UNL     1      45.257  -8.922   9.007  1.00  0.00     0.068 A 
HETATM   30  C   UNL     1      44.270  -7.959   8.818  1.00  0.00     0.037 A 
HETATM   31  C   UNL     1      43.215  -7.833   9.733  1.00  0.00     0.011 A 
BRANCH  29  32
HETATM   32  O   UNL     1      46.332  -9.148   8.193  1.00  0.00    -0.356 OA
HETATM   33  C   UNL     1      46.400 -10.417   7.557  1.00  0.00     0.210 C 
ENDBRANCH  29  32
ENDBRANCH  21  26
ENDBRANCH  20  21
ENDBRANCH   2  20
TORSDOF 9
ENDMDL
MODEL 6
REMARK VINA RESULT:      -7.6      1.608      2.441
REMARK  9 active torsions:
REMARK  status: ('A' for Active; 'I' for Inactive)
REMARK    1  A    between atoms: C_2  and  O_3 
REMARK    2  A    between atoms: O_3  and  C_4 
REMARK    3  A    between atoms: C_4  and  C_5 
REMARK    4  A    between atoms: C_8  and  N_9 
REMARK       I    between atoms: N_9  and  C_10 
REMARK    5  A    between atoms: C_10  and  C_11 
REMARK       I    between atoms: C_11  and  N_12 
REMARK    6  A    between atoms: N_12  and  C_13 
REMARK    7  A    between atoms: C_13  and  C_14 
REMARK    8  A    between atoms: C_14  and  C_15 
REMARK    9  A    between atoms: C_18  and  O_19 
ROOT
HETATM    1  C   UNL     1      44.550 -11.577   7.357  1.00  0.00     0.309 C 
HETATM    2  N   UNL     1      43.642 -12.601   7.480  1.00  0.00    -0.352 N 
HETATM    3  O   UNL     1      45.559 -11.577   6.665  1.00  0.00    -0.262 OA
HETATM    4  H   UNL     1      42.864 -12.441   8.116  1.00  0.00     0.162 HD
ENDROOT
BRANCH   1   5
HETATM    5  C   UNL     1      44.231 -10.350   8.239  1.00  0.00     0.313 C 
HETATM    6  N   UNL     1      43.520 -10.706   9.365  1.00  0.00    -0.319 N 
HETATM    7  H   UNL     1      43.351 -11.707   9.451  1.00  0.00     0.169 HD
HETATM    8  O   UNL     1      44.598  -9.245   7.867  1.00  0.00    -0.262 OA
BRANCH   6   9
HETATM    9  C   UNL     1      42.979  -9.862  10.348  1.00  0.00     0.035 A 
HETATM   10  C   UNL     1      43.570  -9.646  11.594  1.00  0.00     0.030 A 
HETATM   11  C   UNL     1      42.988  -8.760  12.509  1.00  0.00     0.020 A 
HETATM   12  C   UNL     1      41.806  -8.080  12.189  1.00  0.00     0.039 A 
HETATM   13  C   UNL     1      41.206  -8.307  10.946  1.00  0.00     0.020 A 
HETATM   14  C   UNL     1      41.791  -9.193  10.033  1.00  0.00     0.030 A 
BRANCH  12  15
HETATM   15  C   UNL     1      41.246  -7.130  13.189  1.00  0.00     0.293 C 
HETATM   16  O   UNL     1      40.998  -7.438  14.344  1.00  0.00    -0.259 OA
BRANCH  15  17
HETATM   17  O   UNL     1      41.071  -5.905  12.635  1.00  0.00    -0.318 OA
BRANCH  17  18
HETATM   18  C   UNL     1      42.237  -5.070  12.586  1.00  0.00     0.174 C 
HETATM   19  C   UNL     1      42.427  -4.510  11.189  1.00  0.00     0.034 C 
ENDBRANCH  17  18
ENDBRANCH  15  17
ENDBRANCH  12  15
ENDBRANCH   6   9
ENDBRANCH   1   5
BRANCH   2  20
HETATM   20  C   UNL     1      43.808 -13.886   6.832  1.00  0.00     0.137 C 
BRANCH  20  21
HETATM   21  C   UNL     1      42.787 -14.193   5.705  1.00  0.00     0.003 C 
HETATM   22  C   UNL     1      41.306 -14.047   6.145  1.00  0.00     0.016 C 
HETATM   23  C   UNL     1      40.522 -13.925   4.837  1.00  0.00     0.001 C 
HETATM   24  C   UNL     1      41.490 -13.291   3.839  1.00  0.00     0.001 C 
HETATM   25  C   UNL     1      42.801 -13.101   4.602  1.00  0.00     0.016 C 
BRANCH  21  26
HETATM   26  C   UNL     1      43.099 -15.616   5.191  1.00  0.00    -0.048 A 
HETATM   27  C   UNL     1      43.355 -16.661   6.098  1.00  0.00     0.011 A 
HETATM   28  C   UNL     1      43.660 -17.952   5.654  1.00  0.00     0.037 A 
HETATM   29  C   UNL     1      43.740 -18.238   4.295  1.00  0.00     0.068 A 
HETATM   30  C   UNL     1      43.520 -17.213   3.380  1.00  0.00     0.037 A 
HETATM   31  C   UNL     1      43.211 -15.919   3.823  1.00  0.00     0.011 A 
BRANCH  29  32
HETATM   32  O   UNL     1      44.046 -19.536   3.996  1.00  0.00    -0.356 OA
HETATM   33  C   UNL     1      44.233 -20.421   5.092  1.00  0.00     0.210 C 
ENDBRANCH  29  32
ENDBRANCH  21  26
ENDBRANCH  20  21
ENDBRANCH   2  20
TORSDOF 9
ENDMDL
MODEL 7
REMARK VINA RESULT:      -7.6      2.965      9.929
REMARK  9 active torsions:
REMARK  status: ('A' for Active; 'I' for Inactive)
REMARK    1  A    between atoms: C_2  and  O_3 
REMARK    2  A    between atoms: O_3  and  C_4 
REMARK    3  A    between atoms: C_4  and  C_5 
REMARK    4  A    between atoms: C_8  and  N_9 
REMARK       I    between atoms: N_9  and  C_10 
REMARK    5  A    between atoms: C_10  and  C_11 
REMARK       I    between atoms: C_11  and  N_12 
REMARK    6  A    between atoms: N_12  and  C_13 
REMARK    7  A    between atoms: C_13  and  C_14 
REMARK    8  A    between atoms: C_14  and  C_15 
REMARK    9  A    between atoms: C_18  and  O_19 
ROOT
HETATM    1  C   UNL     1      39.449  -9.713   7.961  1.00  0.00     0.309 C 
HETATM    2  N   UNL     1      39.887  -9.897   9.250  1.00  0.00    -0.352 N 
HETATM    3  O   UNL     1      38.909  -8.710   7.511  1.00  0.00    -0.262 OA
HETATM    4  H   UNL     1      40.299 -10.803   9.463  1.00  0.00     0.162 HD
ENDROOT
BRANCH   1   5
HETATM    5  C   UNL     1      39.647 -10.945   7.051  1.00  0.00     0.313 C 
HETATM    6  N   UNL     1      40.976 -11.138   6.741  1.00  0.00    -0.319 N 
HETATM    7  H   UNL     1      41.607 -10.468   7.180  1.00  0.00     0.169 HD
HETATM    8  O   UNL     1      38.665 -11.580   6.697  1.00  0.00    -0.262 OA
BRANCH   6   9
HETATM    9  C   UNL     1      41.531 -12.092   5.875  1.00  0.00     0.035 A 
HETATM   10  C   UNL     1      41.351 -13.469   6.021  1.00  0.00     0.030 A 
HETATM   11  C   UNL     1      41.908 -14.358   5.093  1.00  0.00     0.020 A 
HETATM   12  C   UNL     1      42.653 -13.881   4.008  1.00  0.00     0.039 A 
HETATM   13  C   UNL     1      42.846 -12.502   3.868  1.00  0.00     0.020 A 
HETATM   14  C   UNL     1      42.287 -11.616   4.797  1.00  0.00     0.030 A 
BRANCH  12  15
HETATM   15  C   UNL     1      43.199 -14.869   3.038  1.00  0.00     0.293 C 
HETATM   16  O   UNL     1      43.524 -14.584   1.896  1.00  0.00    -0.259 OA
BRANCH  15  17
HETATM   17  O   UNL     1      43.285 -16.097   3.608  1.00  0.00    -0.318 OA
BRANCH  17  18
HETATM   18  C   UNL     1      43.144 -17.210   2.714  1.00  0.00     0.174 C 
HETATM   19  C   UNL     1      43.857 -18.428   3.271  1.00  0.00     0.034 C 
ENDBRANCH  17  18
ENDBRANCH  15  17
ENDBRANCH  12  15
ENDBRANCH   6   9
ENDBRANCH   1   5
BRANCH   2  20
HETATM   20  C   UNL     1      39.695  -8.915  10.298  1.00  0.00     0.137 C 
BRANCH  20  21
HETATM   21  C   UNL     1      40.877  -8.776  11.294  1.00  0.00     0.003 C 
HETATM   22  C   UNL     1      40.688  -7.641  12.336  1.00  0.00     0.016 C 
HETATM   23  C   UNL     1      41.677  -7.971  13.454  1.00  0.00     0.001 C 
HETATM   24  C   UNL     1      41.829  -9.492  13.429  1.00  0.00     0.001 C 
HETATM   25  C   UNL     1      40.945  -9.974  12.278  1.00  0.00     0.016 C 
BRANCH  21  26
HETATM   26  C   UNL     1      42.156  -8.577  10.449  1.00  0.00    -0.048 A 
HETATM   27  C   UNL     1      43.124  -9.595  10.372  1.00  0.00     0.011 A 
HETATM   28  C   UNL     1      44.297  -9.430   9.629  1.00  0.00     0.037 A 
HETATM   29  C   UNL     1      44.553  -8.238   8.958  1.00  0.00     0.068 A 
HETATM   30  C   UNL     1      43.623  -7.206   9.045  1.00  0.00     0.037 A 
HETATM   31  C   UNL     1      42.445  -7.372   9.786  1.00  0.00     0.011 A 
BRANCH  29  32
HETATM   32  O   UNL     1      45.735  -8.205   8.271  1.00  0.00    -0.356 OA
HETATM   33  C   UNL     1      46.295  -9.456   7.896  1.00  0.00     0.210 C 
ENDBRANCH  29  32
ENDBRANCH  21  26
ENDBRANCH  20  21
ENDBRANCH   2  20
TORSDOF 9
ENDMDL
MODEL 8
REMARK VINA RESULT:      -7.5      2.407      9.851
REMARK  9 active torsions:
REMARK  status: ('A' for Active; 'I' for Inactive)
REMARK    1  A    between atoms: C_2  and  O_3 
REMARK    2  A    between atoms: O_3  and  C_4 
REMARK    3  A    between atoms: C_4  and  C_5 
REMARK    4  A    between atoms: C_8  and  N_9 
REMARK       I    between atoms: N_9  and  C_10 
REMARK    5  A    between atoms: C_10  and  C_11 
REMARK       I    between atoms: C_11  and  N_12 
REMARK    6  A    between atoms: N_12  and  C_13 
REMARK    7  A    between atoms: C_13  and  C_14 
REMARK    8  A    between atoms: C_14  and  C_15 
REMARK    9  A    between atoms: C_18  and  O_19 
ROOT
HETATM    1  C   UNL     1      45.671  -9.998   8.236  1.00  0.00     0.309 C 
HETATM    2  N   UNL     1      45.130 -10.347   9.450  1.00  0.00    -0.352 N 
HETATM    3  O   UNL     1      46.226  -8.942   7.963  1.00  0.00    -0.262 OA
HETATM    4  H   UNL     1      44.687 -11.262   9.501  1.00  0.00     0.162 HD
ENDROOT
BRANCH   1   5
HETATM    5  C   UNL     1      45.490 -11.070   7.139  1.00  0.00     0.313 C 
HETATM    6  N   UNL     1      44.232 -11.634   7.184  1.00  0.00    -0.319 N 
HETATM    7  H   UNL     1      43.624 -11.236   7.899  1.00  0.00     0.169 HD
HETATM    8  O   UNL     1      46.427 -11.318   6.396  1.00  0.00    -0.262 OA
BRANCH   6   9
HETATM    9  C   UNL     1      43.732 -12.694   6.412  1.00  0.00     0.035 A 
HETATM   10  C   UNL     1      43.797 -14.033   6.801  1.00  0.00     0.030 A 
HETATM   11  C   UNL     1      43.242 -15.032   5.991  1.00  0.00     0.020 A 
HETATM   12  C   UNL     1      42.615 -14.704   4.783  1.00  0.00     0.039 A 
HETATM   13  C   UNL     1      42.562 -13.364   4.386  1.00  0.00     0.020 A 
HETATM   14  C   UNL     1      43.118 -12.367   5.198  1.00  0.00     0.030 A 
BRANCH  12  15
HETATM   15  C   UNL     1      42.019 -15.803   3.976  1.00  0.00     0.293 C 
HETATM   16  O   UNL     1      40.946 -15.711   3.401  1.00  0.00    -0.259 OA
BRANCH  15  17
HETATM   17  O   UNL     1      42.835 -16.887   3.973  1.00  0.00    -0.318 OA
BRANCH  17  18
HETATM   18  C   UNL     1      43.274 -17.331   2.680  1.00  0.00     0.174 C 
HETATM   19  C   UNL     1      43.568 -18.820   2.706  1.00  0.00     0.034 C 
ENDBRANCH  17  18
ENDBRANCH  15  17
ENDBRANCH  12  15
ENDBRANCH   6   9
ENDBRANCH   1   5
BRANCH   2  20
HETATM   20  C   UNL     1      45.086  -9.446  10.584  1.00  0.00     0.137 C 
BRANCH  20  21
HETATM   21  C   UNL     1      43.664  -9.137  11.124  1.00  0.00     0.003 C 
HETATM   22  C   UNL     1      42.912 -10.385  11.657  1.00  0.00     0.016 C 
HETATM   23  C   UNL     1      41.794  -9.820  12.535  1.00  0.00     0.001 C 
HETATM   24  C   UNL     1      42.324  -8.488  13.063  1.00  0.00     0.001 C 
HETATM   25  C   UNL     1      43.713  -8.324  12.444  1.00  0.00     0.016 C 
BRANCH  21  26
HETATM   26  C   UNL     1      42.891  -8.442   9.981  1.00  0.00    -0.048 A 
HETATM   27  C   UNL     1      43.137  -7.091   9.673  1.00  0.00     0.011 A 
HETATM   28  C   UNL     1      42.435  -6.436   8.655  1.00  0.00     0.037 A 
HETATM   29  C   UNL     1      41.452  -7.100   7.927  1.00  0.00     0.068 A 
HETATM   30  C   UNL     1      41.171  -8.428   8.234  1.00  0.00     0.037 A 
HETATM   31  C   UNL     1      41.877  -9.086   9.252  1.00  0.00     0.011 A 
BRANCH  29  32
HETATM   32  O   UNL     1      40.842  -6.347   6.963  1.00  0.00    -0.356 OA
HETATM   33  C   UNL     1      40.715  -4.954   7.220  1.00  0.00     0.210 C 
ENDBRANCH  29  32
ENDBRANCH  21  26
ENDBRANCH  20  21
ENDBRANCH   2  20
TORSDOF 9
ENDMDL
MODEL 9
REMARK VINA RESULT:      -7.5     18.462     20.436
REMARK  9 active torsions:
REMARK  status: ('A' for Active; 'I' for Inactive)
REMARK    1  A    between atoms: C_2  and  O_3 
REMARK    2  A    between atoms: O_3  and  C_4 
REMARK    3  A    between atoms: C_4  and  C_5 
REMARK    4  A    between atoms: C_8  and  N_9 
REMARK       I    between atoms: N_9  and  C_10 
REMARK    5  A    between atoms: C_10  and  C_11 
REMARK       I    between atoms: C_11  and  N_12 
REMARK    6  A    between atoms: N_12  and  C_13 
REMARK    7  A    between atoms: C_13  and  C_14 
REMARK    8  A    between atoms: C_14  and  C_15 
REMARK    9  A    between atoms: C_18  and  O_19 
ROOT
HETATM    1  C   UNL     1      44.063 -29.383   1.104  1.00  0.00     0.309 C 
HETATM    2  N   UNL     1      44.031 -28.469   0.078  1.00  0.00    -0.352 N 
HETATM    3  O   UNL     1      45.054 -29.958   1.537  1.00  0.00    -0.262 OA
HETATM    4  H   UNL     1      43.116 -28.099  -0.169  1.00  0.00     0.162 HD
ENDROOT
BRANCH   1   5
HETATM    5  C   UNL     1      42.675 -29.704   1.699  1.00  0.00     0.313 C 
HETATM    6  N   UNL     1      42.757 -30.660   2.689  1.00  0.00    -0.319 N 
HETATM    7  H   UNL     1      43.706 -30.971   2.890  1.00  0.00     0.169 HD
HETATM    8  O   UNL     1      41.693 -29.133   1.248  1.00  0.00    -0.262 OA
BRANCH   6   9
HETATM    9  C   UNL     1      41.705 -31.267   3.393  1.00  0.00     0.035 A 
HETATM   10  C   UNL     1      41.325 -30.901   4.686  1.00  0.00     0.030 A 
HETATM   11  C   UNL     1      40.239 -31.530   5.309  1.00  0.00     0.020 A 
HETATM   12  C   UNL     1      39.522 -32.534   4.647  1.00  0.00     0.039 A 
HETATM   13  C   UNL     1      39.911 -32.911   3.357  1.00  0.00     0.020 A 
HETATM   14  C   UNL     1      40.996 -32.279   2.737  1.00  0.00     0.030 A 
BRANCH  12  15
HETATM   15  C   UNL     1      38.361 -33.149   5.347  1.00  0.00     0.293 C 
HETATM   16  O   UNL     1      37.985 -32.806   6.457  1.00  0.00    -0.259 OA
BRANCH  15  17
HETATM   17  O   UNL     1      37.798 -34.113   4.577  1.00  0.00    -0.318 OA
BRANCH  17  18
HETATM   18  C   UNL     1      36.363 -34.123   4.543  1.00  0.00     0.174 C 
HETATM   19  C   UNL     1      35.855 -33.207   3.444  1.00  0.00     0.034 C 
ENDBRANCH  17  18
ENDBRANCH  15  17
ENDBRANCH  12  15
ENDBRANCH   6   9
ENDBRANCH   1   5
BRANCH   2  20
HETATM   20  C   UNL     1      45.201 -28.110  -0.697  1.00  0.00     0.137 C 
BRANCH  20  21
HETATM   21  C   UNL     1      45.366 -28.879  -2.035  1.00  0.00     0.003 C 
HETATM   22  C   UNL     1      44.154 -29.779  -2.393  1.00  0.00     0.016 C 
HETATM   23  C   UNL     1      44.302 -30.052  -3.891  1.00  0.00     0.001 C 
HETATM   24  C   UNL     1      45.036 -28.837  -4.457  1.00  0.00     0.001 C 
HETATM   25  C   UNL     1      45.308 -27.927  -3.258  1.00  0.00     0.016 C 
BRANCH  21  26
HETATM   26  C   UNL     1      46.676 -29.692  -1.926  1.00  0.00    -0.048 A 
HETATM   27  C   UNL     1      47.922 -29.062  -2.106  1.00  0.00     0.011 A 
HETATM   28  C   UNL     1      49.119 -29.781  -2.032  1.00  0.00     0.037 A 
HETATM   29  C   UNL     1      49.113 -31.153  -1.797  1.00  0.00     0.068 A 
HETATM   30  C   UNL     1      47.891 -31.802  -1.646  1.00  0.00     0.037 A 
HETATM   31  C   UNL     1      46.690 -31.081  -1.716  1.00  0.00     0.011 A 
BRANCH  29  32
HETATM   32  O   UNL     1      50.348 -31.735  -1.749  1.00  0.00    -0.356 OA
HETATM   33  C   UNL     1      51.465 -30.895  -2.005  1.00  0.00     0.210 C 
ENDBRANCH  29  32
ENDBRANCH  21  26
ENDBRANCH  20  21
ENDBRANCH   2  20
TORSDOF 9
ENDMDL
MODEL 10
REMARK VINA RESULT:      -7.4      2.963     11.145
REMARK  9 active torsions:
REMARK  status: ('A' for Active; 'I' for Inactive)
REMARK    1  A    between atoms: C_2  and  O_3 
REMARK    2  A    between atoms: O_3  and  C_4 
REMARK    3  A    between atoms: C_4  and  C_5 
REMARK    4  A    between atoms: C_8  and  N_9 
REMARK       I    between atoms: N_9  and  C_10 
REMARK    5  A    between atoms: C_10  and  C_11 
REMARK       I    between atoms: C_11  and  N_12 
REMARK    6  A    between atoms: N_12  and  C_13 
REMARK    7  A    between atoms: C_13  and  C_14 
REMARK    8  A    between atoms: C_14  and  C_15 
REMARK    9  A    between atoms: C_18  and  O_19 
ROOT
HETATM    1  C   UNL     1      39.450  -9.662   8.093  1.00  0.00     0.309 C 
HETATM    2  N   UNL     1      40.232 -10.026   9.163  1.00  0.00    -0.352 N 
HETATM    3  O   UNL     1      38.979  -8.553   7.879  1.00  0.00    -0.262 OA
HETATM    4  H   UNL     1      40.526 -11.000   9.198  1.00  0.00     0.162 HD
ENDROOT
BRANCH   1   5
HETATM    5  C   UNL     1      39.136 -10.824   7.125  1.00  0.00     0.313 C 
HETATM    6  N   UNL     1      40.281 -11.485   6.737  1.00  0.00    -0.319 N 
HETATM    7  H   UNL     1      41.133 -11.129   7.170  1.00  0.00     0.169 HD
HETATM    8  O   UNL     1      37.975 -11.020   6.797  1.00  0.00    -0.262 OA
BRANCH   6   9
HETATM    9  C   UNL     1      40.405 -12.527   5.805  1.00  0.00     0.035 A 
HETATM   10  C   UNL     1      40.446 -12.329   4.423  1.00  0.00     0.030 A 
HETATM   11  C   UNL     1      40.608 -13.418   3.557  1.00  0.00     0.020 A 
HETATM   12  C   UNL     1      40.730 -14.718   4.062  1.00  0.00     0.039 A 
HETATM   13  C   UNL     1      40.674 -14.918   5.446  1.00  0.00     0.020 A 
HETATM   14  C   UNL     1      40.513 -13.827   6.309  1.00  0.00     0.030 A 
BRANCH  12  15
HETATM   15  C   UNL     1      40.926 -15.834   3.097  1.00  0.00     0.293 C 
HETATM   16  O   UNL     1      40.162 -16.069   2.175  1.00  0.00    -0.259 OA
BRANCH  15  17
HETATM   17  O   UNL     1      42.059 -16.520   3.389  1.00  0.00    -0.318 OA
BRANCH  17  18
HETATM   18  C   UNL     1      42.884 -16.867   2.266  1.00  0.00     0.174 C 
HETATM   19  C   UNL     1      43.497 -15.619   1.658  1.00  0.00     0.034 C 
ENDBRANCH  17  18
ENDBRANCH  15  17
ENDBRANCH  12  15
ENDBRANCH   6   9
ENDBRANCH   1   5
BRANCH   2  20
HETATM   20  C   UNL     1      40.551  -9.125  10.251  1.00  0.00     0.137 C 
BRANCH  20  21
HETATM   21  C   UNL     1      42.054  -8.763  10.385  1.00  0.00     0.003 C 
HETATM   22  C   UNL     1      43.011  -9.957  10.130  1.00  0.00     0.016 C 
HETATM   23  C   UNL     1      44.370  -9.314   9.850  1.00  0.00     0.001 C 
HETATM   24  C   UNL     1      44.057  -7.946   9.246  1.00  0.00     0.001 C 
HETATM   25  C   UNL     1      42.531  -7.843   9.230  1.00  0.00     0.016 C 
BRANCH  21  26
HETATM   26  C   UNL     1      42.246  -8.159  11.795  1.00  0.00    -0.048 A 
HETATM   27  C   UNL     1      42.299  -8.994  12.926  1.00  0.00     0.011 A 
HETATM   28  C   UNL     1      42.453  -8.469  14.214  1.00  0.00     0.037 A 
HETATM   29  C   UNL     1      42.537  -7.095  14.416  1.00  0.00     0.068 A 
HETATM   30  C   UNL     1      42.457  -6.248  13.315  1.00  0.00     0.037 A 
HETATM   31  C   UNL     1      42.307  -6.774  12.023  1.00  0.00     0.011 A 
BRANCH  29  32
HETATM   32  O   UNL     1      42.683  -6.712  15.720  1.00  0.00    -0.356 OA
HETATM   33  C   UNL     1      41.735  -7.220  16.650  1.00  0.00     0.210 C 
ENDBRANCH  29  32
ENDBRANCH  21  26
ENDBRANCH  20  21
ENDBRANCH   2  20
TORSDOF 9
ENDMDL
