MODEL 1
REMARK VINA RESULT:      -8.4      0.000      0.000
REMARK  6 active torsions:
REMARK  status: ('A' for Active; 'I' for Inactive)
REMARK    1  A    between atoms: C_3  and  C_4 
REMARK    2  A    between atoms: C_9  and  C_10 
REMARK    3  A    between atoms: C_10  and  O_11 
REMARK    4  A    between atoms: C_10  and  C_12 
REMARK    5  A    between atoms: C_12  and  N_13 
REMARK    6  A    between atoms: C_17  and  C_18 
ROOT
HETATM    1  C   UNL     1      42.518 -14.039   2.897  1.00  0.00     0.271 C 
ENDROOT
BRANCH   1   2
HETATM    2  C   UNL     1      42.882 -15.275   2.030  1.00  0.00     0.177 C 
BRANCH   2   3
HETATM    3  C   UNL     1      43.223 -16.497   2.857  1.00  0.00    -0.027 A 
HETATM    4  C   UNL     1      43.204 -17.793   2.311  1.00  0.00     0.025 A 
HETATM    5  C   UNL     1      43.548 -18.916   3.085  1.00  0.00     0.048 A 
HETATM    6  C   UNL     1      43.901 -18.732   4.427  1.00  0.00     0.016 A 
HETATM    7  C   UNL     1      43.917 -17.454   4.982  1.00  0.00     0.001 A 
HETATM    8  C   UNL     1      43.584 -16.344   4.204  1.00  0.00     0.010 A 
BRANCH   5   9
HETATM    9  C   UNL     1      43.516 -20.295   2.464  1.00  0.00     0.417 C 
HETATM   10  F   UNL     1      44.469 -20.494   1.517  1.00  0.00    -0.166 F 
HETATM   11  F   UNL     1      43.670 -21.282   3.385  1.00  0.00    -0.166 F 
HETATM   12  F   UNL     1      42.320 -20.534   1.855  1.00  0.00    -0.166 F 
ENDBRANCH   5   9
ENDBRANCH   2   3
BRANCH   2  13
HETATM   13  O   UNL     1      43.939 -14.954   1.130  1.00  0.00    -0.389 OA
HETATM   14  H   UNL     1      44.778 -15.136   1.598  1.00  0.00     0.210 HD
ENDBRANCH   2  13
ENDBRANCH   1   2
BRANCH   1  15
HETATM   15  N   UNL     1      41.397 -13.158   2.315  1.00  0.00    -0.068 N 
HETATM   16  H   UNL     1      40.893 -12.750   3.114  1.00  0.00     0.280 HD
HETATM   17  C   UNL     1      41.933 -12.012   1.479  1.00  0.00     0.235 C 
HETATM   18  C   UNL     1      40.779 -11.180   0.930  1.00  0.00     0.037 C 
HETATM   19  C   UNL     1      39.798 -12.018   0.097  1.00  0.00     0.025 C 
HETATM   20  C   UNL     1      39.287 -13.163   0.983  1.00  0.00     0.037 C 
HETATM   21  C   UNL     1      40.419 -14.013   1.543  1.00  0.00     0.235 C 
BRANCH  19  22
HETATM   22  C   UNL     1      40.382 -12.476  -1.215  1.00  0.00    -0.018 A 
HETATM   23  C   UNL     1      40.068 -13.633  -1.973  1.00  0.00     0.147 A 
HETATM   24  N   UNL     1      40.803 -13.745  -3.077  1.00  0.00    -0.187 NA
HETATM   25  N   UNL     1      41.519 -12.615  -3.106  1.00  0.00    -0.289 N 
HETATM   26  H   UNL     1      42.124 -12.444  -3.904  1.00  0.00     0.188 HD
HETATM   27  C   UNL     1      41.318 -11.832  -2.004  1.00  0.00     0.118 A 
ENDBRANCH  19  22
ENDBRANCH   1  15
TORSDOF 6
ENDMDL
MODEL 2
REMARK VINA RESULT:      -8.2      3.234      5.309
REMARK  6 active torsions:
REMARK  status: ('A' for Active; 'I' for Inactive)
REMARK    1  A    between atoms: C_3  and  C_4 
REMARK    2  A    between atoms: C_9  and  C_10 
REMARK    3  A    between atoms: C_10  and  O_11 
REMARK    4  A    between atoms: C_10  and  C_12 
REMARK    5  A    between atoms: C_12  and  N_13 
REMARK    6  A    between atoms: C_17  and  C_18 
ROOT
HETATM    1  C   UNL     1      43.045 -14.150   2.718  1.00  0.00     0.271 C 
ENDROOT
BRANCH   1   2
HETATM    2  C   UNL     1      42.189 -15.446   2.699  1.00  0.00     0.177 C 
BRANCH   2   3
HETATM    3  C   UNL     1      42.926 -16.649   3.249  1.00  0.00    -0.027 A 
HETATM    4  C   UNL     1      42.899 -17.898   2.603  1.00  0.00     0.025 A 
HETATM    5  C   UNL     1      43.610 -18.999   3.113  1.00  0.00     0.048 A 
HETATM    6  C   UNL     1      44.344 -18.844   4.295  1.00  0.00     0.016 A 
HETATM    7  C   UNL     1      44.374 -17.613   4.949  1.00  0.00     0.001 A 
HETATM    8  C   UNL     1      43.674 -16.523   4.430  1.00  0.00     0.010 A 
BRANCH   5   9
HETATM    9  C   UNL     1      43.557 -20.327   2.391  1.00  0.00     0.417 C 
HETATM   10  F   UNL     1      44.475 -20.449   1.397  1.00  0.00    -0.166 F 
HETATM   11  F   UNL     1      43.747 -21.380   3.228  1.00  0.00    -0.166 F 
HETATM   12  F   UNL     1      42.340 -20.524   1.809  1.00  0.00    -0.166 F 
ENDBRANCH   5   9
ENDBRANCH   2   3
BRANCH   2  13
HETATM   13  O   UNL     1      41.704 -15.699   1.382  1.00  0.00    -0.389 OA
HETATM   14  H   UNL     1      41.353 -16.612   1.379  1.00  0.00     0.210 HD
ENDBRANCH   2  13
ENDBRANCH   1   2
BRANCH   1  15
HETATM   15  N   UNL     1      42.427 -12.988   3.518  1.00  0.00    -0.068 N 
HETATM   16  H   UNL     1      41.519 -12.777   3.083  1.00  0.00     0.280 HD
HETATM   17  C   UNL     1      42.165 -13.353   4.966  1.00  0.00     0.235 C 
HETATM   18  C   UNL     1      41.557 -12.165   5.704  1.00  0.00     0.037 C 
HETATM   19  C   UNL     1      42.447 -10.915   5.634  1.00  0.00     0.025 C 
HETATM   20  C   UNL     1      42.684 -10.589   4.153  1.00  0.00     0.037 C 
HETATM   21  C   UNL     1      43.295 -11.757   3.392  1.00  0.00     0.235 C 
BRANCH  19  22
HETATM   22  C   UNL     1      43.714 -11.049   6.440  1.00  0.00    -0.018 A 
HETATM   23  C   UNL     1      43.871 -11.097   7.849  1.00  0.00     0.147 A 
HETATM   24  N   UNL     1      45.144 -11.188   8.226  1.00  0.00    -0.187 NA
HETATM   25  N   UNL     1      45.815 -11.312   7.075  1.00  0.00    -0.289 N 
HETATM   26  H   UNL     1      46.820 -11.458   7.112  1.00  0.00     0.188 HD
HETATM   27  C   UNL     1      45.006 -11.214   5.977  1.00  0.00     0.118 A 
ENDBRANCH  19  22
ENDBRANCH   1  15
TORSDOF 6
ENDMDL
MODEL 3
REMARK VINA RESULT:      -7.9      2.937      4.191
REMARK  6 active torsions:
REMARK  status: ('A' for Active; 'I' for Inactive)
REMARK    1  A    between atoms: C_3  and  C_4 
REMARK    2  A    between atoms: C_9  and  C_10 
REMARK    3  A    between atoms: C_10  and  O_11 
REMARK    4  A    between atoms: C_10  and  C_12 
REMARK    5  A    between atoms: C_12  and  N_13 
REMARK    6  A    between atoms: C_17  and  C_18 
ROOT
HETATM    1  C   UNL     1      42.428 -15.727   6.700  1.00  0.00     0.271 C 
ENDROOT
BRANCH   1   2
HETATM    2  C   UNL     1      43.735 -15.899   5.879  1.00  0.00     0.177 C 
BRANCH   2   3
HETATM    3  C   UNL     1      43.489 -16.424   4.480  1.00  0.00    -0.027 A 
HETATM    4  C   UNL     1      43.591 -17.793   4.170  1.00  0.00     0.025 A 
HETATM    5  C   UNL     1      43.333 -18.268   2.872  1.00  0.00     0.048 A 
HETATM    6  C   UNL     1      42.985 -17.353   1.872  1.00  0.00     0.016 A 
HETATM    7  C   UNL     1      42.887 -15.994   2.163  1.00  0.00     0.001 A 
HETATM    8  C   UNL     1      43.134 -15.532   3.457  1.00  0.00     0.010 A 
BRANCH   5   9
HETATM    9  C   UNL     1      43.453 -19.747   2.575  1.00  0.00     0.417 C 
HETATM   10  F   UNL     1      44.487 -20.060   1.752  1.00  0.00    -0.166 F 
HETATM   11  F   UNL     1      43.613 -20.489   3.701  1.00  0.00    -0.166 F 
HETATM   12  F   UNL     1      42.328 -20.221   1.968  1.00  0.00    -0.166 F 
ENDBRANCH   5   9
ENDBRANCH   2   3
BRANCH   2  13
HETATM   13  O   UNL     1      44.657 -16.728   6.583  1.00  0.00    -0.389 OA
HETATM   14  H   UNL     1      44.138 -17.241   7.235  1.00  0.00     0.210 HD
ENDBRANCH   2  13
ENDBRANCH   1   2
BRANCH   1  15
HETATM   15  N   UNL     1      41.913 -14.277   6.784  1.00  0.00    -0.068 N 
HETATM   16  H   UNL     1      41.653 -14.111   7.765  1.00  0.00     0.280 HD
HETATM   17  C   UNL     1      42.975 -13.260   6.414  1.00  0.00     0.235 C 
HETATM   18  C   UNL     1      42.406 -11.849   6.514  1.00  0.00     0.037 C 
HETATM   19  C   UNL     1      41.167 -11.655   5.628  1.00  0.00     0.025 C 
HETATM   20  C   UNL     1      40.125 -12.705   6.038  1.00  0.00     0.037 C 
HETATM   21  C   UNL     1      40.666 -14.125   5.944  1.00  0.00     0.235 C 
BRANCH  19  22
HETATM   22  C   UNL     1      41.489 -11.657   4.156  1.00  0.00    -0.018 A 
HETATM   23  C   UNL     1      42.568 -11.031   3.480  1.00  0.00     0.147 A 
HETATM   24  N   UNL     1      42.531 -11.213   2.162  1.00  0.00    -0.187 NA
HETATM   25  N   UNL     1      41.500 -12.047   1.979  1.00  0.00    -0.289 N 
HETATM   26  H   UNL     1      41.308 -12.383   1.040  1.00  0.00     0.188 HD
HETATM   27  C   UNL     1      40.832 -12.326   3.139  1.00  0.00     0.118 A 
ENDBRANCH  19  22
ENDBRANCH   1  15
TORSDOF 6
ENDMDL
MODEL 4
REMARK VINA RESULT:      -7.9      2.918      4.683
REMARK  6 active torsions:
REMARK  status: ('A' for Active; 'I' for Inactive)
REMARK    1  A    between atoms: C_3  and  C_4 
REMARK    2  A    between atoms: C_9  and  C_10 
REMARK    3  A    between atoms: C_10  and  O_11 
REMARK    4  A    between atoms: C_10  and  C_12 
REMARK    5  A    between atoms: C_12  and  N_13 
REMARK    6  A    between atoms: C_17  and  C_18 
ROOT
HETATM    1  C   UNL     1      42.925 -13.991   3.654  1.00  0.00     0.271 C 
ENDROOT
BRANCH   1   2
HETATM    2  C   UNL     1      42.807 -15.203   2.691  1.00  0.00     0.177 C 
BRANCH   2   3
HETATM    3  C   UNL     1      43.249 -16.506   3.324  1.00  0.00    -0.027 A 
HETATM    4  C   UNL     1      43.181 -17.729   2.633  1.00  0.00     0.025 A 
HETATM    5  C   UNL     1      43.620 -18.927   3.225  1.00  0.00     0.048 A 
HETATM    6  C   UNL     1      44.118 -18.894   4.532  1.00  0.00     0.016 A 
HETATM    7  C   UNL     1      44.185 -17.690   5.231  1.00  0.00     0.001 A 
HETATM    8  C   UNL     1      43.757 -16.504   4.631  1.00  0.00     0.010 A 
BRANCH   5   9
HETATM    9  C   UNL     1      43.531 -20.224   2.451  1.00  0.00     0.417 C 
HETATM   10  F   UNL     1      43.710 -21.332   3.215  1.00  0.00    -0.166 F 
HETATM   11  F   UNL     1      42.335 -20.372   1.824  1.00  0.00    -0.166 F 
HETATM   12  F   UNL     1      44.479 -20.281   1.473  1.00  0.00    -0.166 F 
ENDBRANCH   5   9
ENDBRANCH   2   3
BRANCH   2  13
HETATM   13  O   UNL     1      43.523 -14.949   1.485  1.00  0.00    -0.389 OA
HETATM   14  H   UNL     1      43.511 -13.981   1.344  1.00  0.00     0.210 HD
ENDBRANCH   2  13
ENDBRANCH   1   2
BRANCH   1  15
HETATM   15  N   UNL     1      42.016 -12.799   3.297  1.00  0.00    -0.068 N 
HETATM   16  H   UNL     1      42.105 -12.650   2.284  1.00  0.00     0.280 HD
HETATM   17  C   UNL     1      40.555 -13.075   3.592  1.00  0.00     0.235 C 
HETATM   18  C   UNL     1      39.708 -11.862   3.221  1.00  0.00     0.037 C 
HETATM   19  C   UNL     1      40.157 -10.590   3.954  1.00  0.00     0.025 C 
HETATM   20  C   UNL     1      41.639 -10.355   3.627  1.00  0.00     0.037 C 
HETATM   21  C   UNL     1      42.509 -11.551   3.992  1.00  0.00     0.235 C 
BRANCH  19  22
HETATM   22  C   UNL     1      39.856 -10.623   5.431  1.00  0.00    -0.018 A 
HETATM   23  C   UNL     1      38.714 -11.142   6.094  1.00  0.00     0.147 A 
HETATM   24  N   UNL     1      38.761 -10.978   7.414  1.00  0.00    -0.187 NA
HETATM   25  N   UNL     1      39.975 -10.456   7.632  1.00  0.00    -0.289 N 
HETATM   26  H   UNL     1      40.268 -10.295   8.591  1.00  0.00     0.188 HD
HETATM   27  C   UNL     1      40.660 -10.207   6.476  1.00  0.00     0.118 A 
ENDBRANCH  19  22
ENDBRANCH   1  15
TORSDOF 6
ENDMDL
MODEL 5
REMARK VINA RESULT:      -7.9      7.088      8.988
REMARK  6 active torsions:
REMARK  status: ('A' for Active; 'I' for Inactive)
REMARK    1  A    between atoms: C_3  and  C_4 
REMARK    2  A    between atoms: C_9  and  C_10 
REMARK    3  A    between atoms: C_10  and  O_11 
REMARK    4  A    between atoms: C_10  and  C_12 
REMARK    5  A    between atoms: C_12  and  N_13 
REMARK    6  A    between atoms: C_17  and  C_18 
ROOT
HETATM    1  C   UNL     1      42.739 -11.838   6.255  1.00  0.00     0.271 C 
ENDROOT
BRANCH   1   2
HETATM    2  C   UNL     1      44.281 -11.750   6.415  1.00  0.00     0.177 C 
BRANCH   2   3
HETATM    3  C   UNL     1      44.705 -10.902   7.596  1.00  0.00    -0.027 A 
HETATM    4  C   UNL     1      44.006 -10.924   8.817  1.00  0.00     0.025 A 
HETATM    5  C   UNL     1      44.428 -10.150   9.913  1.00  0.00     0.048 A 
HETATM    6  C   UNL     1      45.556  -9.334   9.773  1.00  0.00     0.016 A 
HETATM    7  C   UNL     1      46.254  -9.298   8.567  1.00  0.00     0.001 A 
HETATM    8  C   UNL     1      45.835 -10.078   7.487  1.00  0.00     0.010 A 
BRANCH   5   9
HETATM    9  C   UNL     1      43.651 -10.198  11.210  1.00  0.00     0.417 C 
HETATM   10  F   UNL     1      42.303 -10.207  11.043  1.00  0.00    -0.166 F 
HETATM   11  F   UNL     1      43.958 -11.289  11.957  1.00  0.00    -0.166 F 
HETATM   12  F   UNL     1      43.929  -9.116  11.992  1.00  0.00    -0.166 F 
ENDBRANCH   5   9
ENDBRANCH   2   3
BRANCH   2  13
HETATM   13  O   UNL     1      44.879 -11.283   5.208  1.00  0.00    -0.389 OA
HETATM   14  H   UNL     1      44.246 -10.659   4.799  1.00  0.00     0.210 HD
ENDBRANCH   2  13
ENDBRANCH   1   2
BRANCH   1  15
HETATM   15  N   UNL     1      42.121 -13.164   6.738  1.00  0.00    -0.068 N 
HETATM   16  H   UNL     1      41.728 -12.986   7.672  1.00  0.00     0.280 HD
HETATM   17  C   UNL     1      40.989 -13.637   5.848  1.00  0.00     0.235 C 
HETATM   18  C   UNL     1      40.422 -14.950   6.375  1.00  0.00     0.037 C 
HETATM   19  C   UNL     1      41.491 -16.047   6.484  1.00  0.00     0.025 C 
HETATM   20  C   UNL     1      42.613 -15.522   7.390  1.00  0.00     0.037 C 
HETATM   21  C   UNL     1      43.201 -14.211   6.885  1.00  0.00     0.235 C 
BRANCH  19  22
HETATM   22  C   UNL     1      41.970 -16.538   5.141  1.00  0.00    -0.018 A 
HETATM   23  C   UNL     1      41.358 -16.390   3.870  1.00  0.00     0.147 A 
HETATM   24  N   UNL     1      42.044 -16.978   2.893  1.00  0.00    -0.187 NA
HETATM   25  N   UNL     1      43.156 -17.416   3.495  1.00  0.00    -0.289 N 
HETATM   26  H   UNL     1      43.874 -17.857   2.927  1.00  0.00     0.188 HD
HETATM   27  C   UNL     1      43.150 -17.195   4.844  1.00  0.00     0.118 A 
ENDBRANCH  19  22
ENDBRANCH   1  15
TORSDOF 6
ENDMDL
MODEL 6
REMARK VINA RESULT:      -7.8      2.096      2.646
REMARK  6 active torsions:
REMARK  status: ('A' for Active; 'I' for Inactive)
REMARK    1  A    between atoms: C_3  and  C_4 
REMARK    2  A    between atoms: C_9  and  C_10 
REMARK    3  A    between atoms: C_10  and  O_11 
REMARK    4  A    between atoms: C_10  and  C_12 
REMARK    5  A    between atoms: C_12  and  N_13 
REMARK    6  A    between atoms: C_17  and  C_18 
ROOT
HETATM    1  C   UNL     1      42.645 -14.366   2.744  1.00  0.00     0.271 C 
ENDROOT
BRANCH   1   2
HETATM    2  C   UNL     1      42.629 -15.774   2.089  1.00  0.00     0.177 C 
BRANCH   2   3
HETATM    3  C   UNL     1      43.105 -16.867   3.024  1.00  0.00    -0.027 A 
HETATM    4  C   UNL     1      43.067 -16.718   4.422  1.00  0.00     0.025 A 
HETATM    5  C   UNL     1      43.488 -17.752   5.278  1.00  0.00     0.048 A 
HETATM    6  C   UNL     1      43.967 -18.942   4.718  1.00  0.00     0.016 A 
HETATM    7  C   UNL     1      44.016 -19.100   3.334  1.00  0.00     0.001 A 
HETATM    8  C   UNL     1      43.586 -18.073   2.493  1.00  0.00     0.010 A 
BRANCH   5   9
HETATM    9  C   UNL     1      43.434 -17.556   6.777  1.00  0.00     0.417 C 
HETATM   10  F   UNL     1      43.363 -18.716   7.480  1.00  0.00    -0.166 F 
HETATM   11  F   UNL     1      44.512 -16.878   7.250  1.00  0.00    -0.166 F 
HETATM   12  F   UNL     1      42.341 -16.825   7.139  1.00  0.00    -0.166 F 
ENDBRANCH   5   9
ENDBRANCH   2   3
BRANCH   2  13
HETATM   13  O   UNL     1      43.386 -15.767   0.881  1.00  0.00    -0.389 OA
HETATM   14  H   UNL     1      42.750 -15.876   0.146  1.00  0.00     0.210 HD
ENDBRANCH   2  13
ENDBRANCH   1   2
BRANCH   1  15
HETATM   15  N   UNL     1      41.534 -13.420   2.251  1.00  0.00    -0.068 N 
HETATM   16  H   UNL     1      41.075 -13.038   3.089  1.00  0.00     0.280 HD
HETATM   17  C   UNL     1      42.078 -12.250   1.455  1.00  0.00     0.235 C 
HETATM   18  C   UNL     1      40.934 -11.353   0.994  1.00  0.00     0.037 C 
HETATM   19  C   UNL     1      39.895 -12.115   0.158  1.00  0.00     0.025 C 
HETATM   20  C   UNL     1      39.377 -13.287   1.004  1.00  0.00     0.037 C 
HETATM   21  C   UNL     1      40.500 -14.202   1.475  1.00  0.00     0.235 C 
BRANCH  19  22
HETATM   22  C   UNL     1      40.413 -12.522  -1.197  1.00  0.00    -0.018 A 
HETATM   23  C   UNL     1      40.039 -13.633  -1.996  1.00  0.00     0.147 A 
HETATM   24  N   UNL     1      40.726 -13.709  -3.134  1.00  0.00    -0.187 NA
HETATM   25  N   UNL     1      41.470 -12.596  -3.138  1.00  0.00    -0.289 N 
HETATM   26  H   UNL     1      42.047 -12.401  -3.952  1.00  0.00     0.188 HD
HETATM   27  C   UNL     1      41.334 -11.863  -1.992  1.00  0.00     0.118 A 
ENDBRANCH  19  22
ENDBRANCH   1  15
TORSDOF 6
ENDMDL
MODEL 7
REMARK VINA RESULT:      -7.5      1.897      2.607
REMARK  6 active torsions:
REMARK  status: ('A' for Active; 'I' for Inactive)
REMARK    1  A    between atoms: C_3  and  C_4 
REMARK    2  A    between atoms: C_9  and  C_10 
REMARK    3  A    between atoms: C_10  and  O_11 
REMARK    4  A    between atoms: C_10  and  C_12 
REMARK    5  A    between atoms: C_12  and  N_13 
REMARK    6  A    between atoms: C_17  and  C_18 
ROOT
HETATM    1  C   UNL     1      40.561 -13.714   1.859  1.00  0.00     0.271 C 
ENDROOT
BRANCH   1   2
HETATM    2  C   UNL     1      40.205 -14.684   3.018  1.00  0.00     0.177 C 
BRANCH   2   3
HETATM    3  C   UNL     1      41.413 -15.409   3.574  1.00  0.00    -0.027 A 
HETATM    4  C   UNL     1      41.860 -16.629   3.037  1.00  0.00     0.025 A 
HETATM    5  C   UNL     1      43.000 -17.278   3.547  1.00  0.00     0.048 A 
HETATM    6  C   UNL     1      43.685 -16.697   4.621  1.00  0.00     0.016 A 
HETATM    7  C   UNL     1      43.249 -15.491   5.167  1.00  0.00     0.001 A 
HETATM    8  C   UNL     1      42.124 -14.850   4.647  1.00  0.00     0.010 A 
BRANCH   5   9
HETATM    9  C   UNL     1      43.451 -18.589   2.944  1.00  0.00     0.417 C 
HETATM   10  F   UNL     1      42.633 -19.054   1.966  1.00  0.00    -0.166 F 
HETATM   11  F   UNL     1      44.696 -18.511   2.408  1.00  0.00    -0.166 F 
HETATM   12  F   UNL     1      43.510 -19.571   3.889  1.00  0.00    -0.166 F 
ENDBRANCH   5   9
ENDBRANCH   2   3
BRANCH   2  13
HETATM   13  O   UNL     1      39.200 -15.605   2.602  1.00  0.00    -0.389 OA
HETATM   14  H   UNL     1      39.434 -16.475   2.985  1.00  0.00     0.210 HD
ENDBRANCH   2  13
ENDBRANCH   1   2
BRANCH   1  15
HETATM   15  N   UNL     1      39.517 -13.660   0.727  1.00  0.00    -0.068 N 
HETATM   16  H   UNL     1      38.697 -14.187   1.054  1.00  0.00     0.280 HD
HETATM   17  C   UNL     1      39.061 -12.247   0.423  1.00  0.00     0.235 C 
HETATM   18  C   UNL     1      38.034 -12.259  -0.703  1.00  0.00     0.037 C 
HETATM   19  C   UNL     1      38.574 -12.918  -1.980  1.00  0.00     0.025 C 
HETATM   20  C   UNL     1      39.023 -14.342  -1.621  1.00  0.00     0.037 C 
HETATM   21  C   UNL     1      40.054 -14.359  -0.501  1.00  0.00     0.235 C 
BRANCH  19  22
HETATM   22  C   UNL     1      39.637 -12.096  -2.663  1.00  0.00    -0.018 A 
HETATM   23  C   UNL     1      39.646 -10.704  -2.937  1.00  0.00     0.147 A 
HETATM   24  N   UNL     1      40.739 -10.310  -3.587  1.00  0.00    -0.187 NA
HETATM   25  N   UNL     1      41.497 -11.412  -3.643  1.00  0.00    -0.289 N 
HETATM   26  H   UNL     1      42.425 -11.342  -4.050  1.00  0.00     0.188 HD
HETATM   27  C   UNL     1      40.874 -12.511  -3.121  1.00  0.00     0.118 A 
ENDBRANCH  19  22
ENDBRANCH   1  15
TORSDOF 6
ENDMDL
MODEL 8
REMARK VINA RESULT:      -7.5      1.783      2.272
REMARK  6 active torsions:
REMARK  status: ('A' for Active; 'I' for Inactive)
REMARK    1  A    between atoms: C_3  and  C_4 
REMARK    2  A    between atoms: C_9  and  C_10 
REMARK    3  A    between atoms: C_10  and  O_11 
REMARK    4  A    between atoms: C_10  and  C_12 
REMARK    5  A    between atoms: C_12  and  N_13 
REMARK    6  A    between atoms: C_17  and  C_18 
ROOT
HETATM    1  C   UNL     1      41.752 -14.907   2.040  1.00  0.00     0.271 C 
ENDROOT
BRANCH   1   2
HETATM    2  C   UNL     1      41.560 -15.550   3.440  1.00  0.00     0.177 C 
BRANCH   2   3
HETATM    3  C   UNL     1      42.552 -16.659   3.723  1.00  0.00    -0.027 A 
HETATM    4  C   UNL     1      42.560 -17.856   2.985  1.00  0.00     0.025 A 
HETATM    5  C   UNL     1      43.506 -18.865   3.242  1.00  0.00     0.048 A 
HETATM    6  C   UNL     1      44.443 -18.672   4.263  1.00  0.00     0.016 A 
HETATM    7  C   UNL     1      44.443 -17.492   5.006  1.00  0.00     0.001 A 
HETATM    8  C   UNL     1      43.507 -16.491   4.737  1.00  0.00     0.010 A 
BRANCH   5   9
HETATM    9  C   UNL     1      43.483 -20.141   2.429  1.00  0.00     0.417 C 
HETATM   10  F   UNL     1      42.320 -20.344   1.758  1.00  0.00    -0.166 F 
HETATM   11  F   UNL     1      44.479 -20.184   1.507  1.00  0.00    -0.166 F 
HETATM   12  F   UNL     1      43.658 -21.235   3.224  1.00  0.00    -0.166 F 
ENDBRANCH   5   9
ENDBRANCH   2   3
BRANCH   2  13
HETATM   13  O   UNL     1      40.219 -16.010   3.594  1.00  0.00    -0.389 OA
HETATM   14  H   UNL     1      40.086 -16.725   2.940  1.00  0.00     0.210 HD
ENDBRANCH   2  13
ENDBRANCH   1   2
BRANCH   1  15
HETATM   15  N   UNL     1      40.568 -14.042   1.566  1.00  0.00    -0.068 N 
HETATM   16  H   UNL     1      39.709 -14.536   1.842  1.00  0.00     0.280 HD
HETATM   17  C   UNL     1      40.544 -12.678   2.227  1.00  0.00     0.235 C 
HETATM   18  C   UNL     1      39.355 -11.871   1.718  1.00  0.00     0.037 C 
HETATM   19  C   UNL     1      39.369 -11.709   0.191  1.00  0.00     0.025 C 
HETATM   20  C   UNL     1      39.396 -13.113  -0.430  1.00  0.00     0.037 C 
HETATM   21  C   UNL     1      40.577 -13.941   0.058  1.00  0.00     0.235 C 
BRANCH  19  22
HETATM   22  C   UNL     1      40.473 -10.805  -0.295  1.00  0.00    -0.018 A 
HETATM   23  C   UNL     1      41.300  -9.929   0.454  1.00  0.00     0.147 A 
HETATM   24  N   UNL     1      42.158  -9.250  -0.305  1.00  0.00    -0.187 NA
HETATM   25  N   UNL     1      41.976  -9.755  -1.531  1.00  0.00    -0.289 N 
HETATM   26  H   UNL     1      42.573  -9.427  -2.284  1.00  0.00     0.188 HD
HETATM   27  C   UNL     1      40.965 -10.674  -1.581  1.00  0.00     0.118 A 
ENDBRANCH  19  22
ENDBRANCH   1  15
TORSDOF 6
ENDMDL
MODEL 9
REMARK VINA RESULT:      -7.4      6.208      8.487
REMARK  6 active torsions:
REMARK  status: ('A' for Active; 'I' for Inactive)
REMARK    1  A    between atoms: C_3  and  C_4 
REMARK    2  A    between atoms: C_9  and  C_10 
REMARK    3  A    between atoms: C_10  and  O_11 
REMARK    4  A    between atoms: C_10  and  C_12 
REMARK    5  A    between atoms: C_12  and  N_13 
REMARK    6  A    between atoms: C_17  and  C_18 
ROOT
HETATM    1  C   UNL     1      42.566 -11.247   6.234  1.00  0.00     0.271 C 
ENDROOT
BRANCH   1   2
HETATM    2  C   UNL     1      43.065 -11.750   4.853  1.00  0.00     0.177 C 
BRANCH   2   3
HETATM    3  C   UNL     1      43.046 -13.260   4.732  1.00  0.00    -0.027 A 
HETATM    4  C   UNL     1      43.086 -13.907   3.484  1.00  0.00     0.025 A 
HETATM    5  C   UNL     1      43.094 -15.311   3.390  1.00  0.00     0.048 A 
HETATM    6  C   UNL     1      43.048 -16.069   4.565  1.00  0.00     0.016 A 
HETATM    7  C   UNL     1      43.002 -15.441   5.808  1.00  0.00     0.001 A 
HETATM    8  C   UNL     1      43.004 -14.047   5.893  1.00  0.00     0.010 A 
BRANCH   5   9
HETATM    9  C   UNL     1      43.137 -15.972   2.030  1.00  0.00     0.417 C 
HETATM   10  F   UNL     1      43.481 -17.285   2.069  1.00  0.00    -0.166 F 
HETATM   11  F   UNL     1      41.945 -15.900   1.382  1.00  0.00    -0.166 F 
HETATM   12  F   UNL     1      44.046 -15.366   1.215  1.00  0.00    -0.166 F 
ENDBRANCH   5   9
ENDBRANCH   2   3
BRANCH   2  13
HETATM   13  O   UNL     1      44.363 -11.229   4.574  1.00  0.00    -0.389 OA
HETATM   14  H   UNL     1      44.963 -11.996   4.480  1.00  0.00     0.210 HD
ENDBRANCH   2  13
ENDBRANCH   1   2
BRANCH   1  15
HETATM   15  N   UNL     1      43.597 -10.414   7.021  1.00  0.00    -0.068 N 
HETATM   16  H   UNL     1      44.281 -10.065   6.337  1.00  0.00     0.280 HD
HETATM   17  C   UNL     1      42.975  -9.211   7.701  1.00  0.00     0.235 C 
HETATM   18  C   UNL     1      44.041  -8.431   8.463  1.00  0.00     0.037 C 
HETATM   19  C   UNL     1      44.770  -9.297   9.500  1.00  0.00     0.025 C 
HETATM   20  C   UNL     1      45.378 -10.500   8.765  1.00  0.00     0.037 C 
HETATM   21  C   UNL     1      44.334 -11.300   7.999  1.00  0.00     0.235 C 
BRANCH  19  22
HETATM   22  C   UNL     1      43.896  -9.674  10.670  1.00  0.00    -0.018 A 
HETATM   23  C   UNL     1      42.890  -8.908  11.312  1.00  0.00     0.147 A 
HETATM   24  N   UNL     1      42.333  -9.542  12.341  1.00  0.00    -0.187 NA
HETATM   25  N   UNL     1      42.887 -10.760  12.310  1.00  0.00    -0.289 N 
HETATM   26  H   UNL     1      42.568 -11.456  12.978  1.00  0.00     0.188 HD
HETATM   27  C   UNL     1      43.843 -10.882  11.341  1.00  0.00     0.118 A 
ENDBRANCH  19  22
ENDBRANCH   1  15
TORSDOF 6
ENDMDL
MODEL 10
REMARK VINA RESULT:      -7.3      1.766      2.200
REMARK  6 active torsions:
REMARK  status: ('A' for Active; 'I' for Inactive)
REMARK    1  A    between atoms: C_3  and  C_4 
REMARK    2  A    between atoms: C_9  and  C_10 
REMARK    3  A    between atoms: C_10  and  O_11 
REMARK    4  A    between atoms: C_10  and  C_12 
REMARK    5  A    between atoms: C_12  and  N_13 
REMARK    6  A    between atoms: C_17  and  C_18 
ROOT
HETATM    1  C   UNL     1      42.808 -12.485   2.824  1.00  0.00     0.271 C 
ENDROOT
BRANCH   1   2
HETATM    2  C   UNL     1      42.678 -12.903   4.314  1.00  0.00     0.177 C 
BRANCH   2   3
HETATM    3  C   UNL     1      42.837 -14.395   4.525  1.00  0.00    -0.027 A 
HETATM    4  C   UNL     1      42.963 -15.290   3.447  1.00  0.00     0.025 A 
HETATM    5  C   UNL     1      43.136 -16.669   3.660  1.00  0.00     0.048 A 
HETATM    6  C   UNL     1      43.169 -17.153   4.973  1.00  0.00     0.016 A 
HETATM    7  C   UNL     1      43.040 -16.278   6.050  1.00  0.00     0.001 A 
HETATM    8  C   UNL     1      42.879 -14.909   5.829  1.00  0.00     0.010 A 
BRANCH   5   9
HETATM    9  C   UNL     1      43.266 -17.602   2.476  1.00  0.00     0.417 C 
HETATM   10  F   UNL     1      44.281 -18.497   2.591  1.00  0.00    -0.166 F 
HETATM   11  F   UNL     1      42.135 -18.321   2.257  1.00  0.00    -0.166 F 
HETATM   12  F   UNL     1      43.501 -16.908   1.326  1.00  0.00    -0.166 F 
ENDBRANCH   5   9
ENDBRANCH   2   3
BRANCH   2  13
HETATM   13  O   UNL     1      41.443 -12.438   4.853  1.00  0.00    -0.389 OA
HETATM   14  H   UNL     1      40.887 -13.226   5.013  1.00  0.00     0.210 HD
ENDBRANCH   2  13
ENDBRANCH   1   2
BRANCH   1  15
HETATM   15  N   UNL     1      41.486 -12.048   2.166  1.00  0.00    -0.068 N 
HETATM   16  H   UNL     1      40.906 -11.636   2.909  1.00  0.00     0.280 HD
HETATM   17  C   UNL     1      41.688 -10.987   1.102  1.00  0.00     0.235 C 
HETATM   18  C   UNL     1      40.348 -10.598   0.488  1.00  0.00     0.037 C 
HETATM   19  C   UNL     1      39.608 -11.803  -0.112  1.00  0.00     0.025 C 
HETATM   20  C   UNL     1      39.430 -12.847   1.000  1.00  0.00     0.037 C 
HETATM   21  C   UNL     1      40.755 -13.257   1.628  1.00  0.00     0.235 C 
BRANCH  19  22
HETATM   22  C   UNL     1      40.271 -12.341  -1.354  1.00  0.00    -0.018 A 
HETATM   23  C   UNL     1      39.985 -13.532  -2.070  1.00  0.00     0.147 A 
HETATM   24  N   UNL     1      40.791 -13.717  -3.113  1.00  0.00    -0.187 NA
HETATM   25  N   UNL     1      41.531 -12.602  -3.152  1.00  0.00    -0.289 N 
HETATM   26  H   UNL     1      42.193 -12.485  -3.915  1.00  0.00     0.188 HD
HETATM   27  C   UNL     1      41.272 -11.758  -2.109  1.00  0.00     0.118 A 
ENDBRANCH  19  22
ENDBRANCH   1  15
TORSDOF 6
ENDMDL
