MODEL 1
REMARK VINA RESULT:      -9.3      0.000      0.000
REMARK  5 active torsions:
REMARK  status: ('A' for Active; 'I' for Inactive)
REMARK    1  A    between atoms: C_7  and  C_8 
REMARK    2  A    between atoms: C_16  and  C_17 
REMARK    3  A    between atoms: C_19  and  O_20 
REMARK    4  A    between atoms: C_24  and  C_25 
REMARK       I    between atoms: C_25  and  N_26 
REMARK    5  A    between atoms: N_26  and  C_27 
ROOT
HETATM    1  C   UNL     1      38.955  -9.936   1.571  1.00  0.00     0.070 C 
HETATM    2  C   UNL     1      40.145 -10.606   2.221  1.00  0.00     0.037 A 
HETATM    3  N   UNL     1      40.419 -10.188   3.520  1.00  0.00    -0.192 N 
HETATM    4  C   UNL     1      41.500 -10.579   4.214  1.00  0.00     0.726 A 
HETATM    5  N   UNL     1      42.336 -11.505   3.671  1.00  0.00    -0.083 N 
HETATM    6  N   UNL     1      43.438 -11.679   4.426  1.00  0.00    -0.135 NA
HETATM    7  C   UNL     1      43.157 -10.900   5.487  1.00  0.00     0.199 A 
HETATM    8  N   UNL     1      41.968 -10.198   5.373  1.00  0.00    -0.041 NA
HETATM    9  C   UNL     1      42.139 -12.121   2.354  1.00  0.00     0.202 A 
HETATM   10  C   UNL     1      40.940 -11.529   1.611  1.00  0.00     0.062 A 
HETATM   11  H   UNL     1      39.821  -9.468   3.917  1.00  0.00     0.184 HD
ENDROOT
BRANCH  10  12
HETATM   12  C   UNL     1      40.621 -12.024   0.225  1.00  0.00     0.256 C 
HETATM   13  N   UNL     1      39.487 -12.804   0.116  1.00  0.00    -0.323 N 
HETATM   14  H   UNL     1      38.875 -12.902   0.910  1.00  0.00     0.169 HD
HETATM   15  O   UNL     1      41.331 -11.685  -0.717  1.00  0.00    -0.267 OA
BRANCH  13  16
HETATM   16  C   UNL     1      39.019 -13.464  -1.045  1.00  0.00     0.035 A 
HETATM   17  C   UNL     1      39.443 -14.731  -1.451  1.00  0.00     0.029 A 
HETATM   18  C   UNL     1      38.906 -15.324  -2.598  1.00  0.00     0.002 A 
HETATM   19  C   UNL     1      37.946 -14.655  -3.352  1.00  0.00     0.000 A 
HETATM   20  C   UNL     1      37.517 -13.392  -2.958  1.00  0.00     0.002 A 
HETATM   21  C   UNL     1      38.046 -12.802  -1.807  1.00  0.00     0.029 A 
ENDBRANCH  13  16
ENDBRANCH  10  12
BRANCH   9  22
HETATM   22  C   UNL     1      42.095 -13.639   2.506  1.00  0.00    -0.025 A 
HETATM   23  C   UNL     1      41.094 -14.281   3.257  1.00  0.00     0.046 A 
HETATM   24  C   UNL     1      41.102 -15.669   3.382  1.00  0.00     0.066 A 
HETATM   25  C   UNL     1      42.098 -16.435   2.790  1.00  0.00     0.036 A 
HETATM   26  C   UNL     1      43.106 -15.811   2.060  1.00  0.00     0.003 A 
HETATM   27  C   UNL     1      43.107 -14.422   1.920  1.00  0.00     0.010 A 
BRANCH  24  28
HETATM   28  O   UNL     1      40.141 -16.323   4.094  1.00  0.00    -0.361 OA
HETATM   29  H   UNL     1      39.380 -16.492   3.515  1.00  0.00     0.217 HD
ENDBRANCH  24  28
ENDBRANCH   9  22
BRANCH   7  30
HETATM   30  C   UNL     1      44.026 -10.772   6.652  1.00  0.00     0.016 A 
HETATM   31  C   UNL     1      43.497 -10.456   7.911  1.00  0.00     0.039 A 
HETATM   32  C   UNL     1      44.340 -10.335   9.015  1.00  0.00     0.035 A 
HETATM   33 CL   UNL     1      43.679  -9.946  10.556  1.00  0.00    -0.084 Cl
HETATM   34  C   UNL     1      45.715 -10.525   8.884  1.00  0.00     0.024 A 
HETATM   35  C   UNL     1      46.252 -10.839   7.637  1.00  0.00     0.003 A 
HETATM   36  C   UNL     1      45.412 -10.962   6.527  1.00  0.00     0.015 A 
ENDBRANCH   7  30
TORSDOF 5
ENDMDL
MODEL 2
REMARK VINA RESULT:      -9.1      4.033      7.323
REMARK  5 active torsions:
REMARK  status: ('A' for Active; 'I' for Inactive)
REMARK    1  A    between atoms: C_7  and  C_8 
REMARK    2  A    between atoms: C_16  and  C_17 
REMARK    3  A    between atoms: C_19  and  O_20 
REMARK    4  A    between atoms: C_24  and  C_25 
REMARK       I    between atoms: C_25  and  N_26 
REMARK    5  A    between atoms: N_26  and  C_27 
ROOT
HETATM    1  C   UNL     1      41.195 -10.743   1.279  1.00  0.00     0.070 C 
HETATM    2  C   UNL     1      41.662 -11.714   2.341  1.00  0.00     0.037 A 
HETATM    3  N   UNL     1      42.150 -12.924   1.857  1.00  0.00    -0.192 N 
HETATM    4  C   UNL     1      42.498 -13.954   2.646  1.00  0.00     0.726 A 
HETATM    5  N   UNL     1      42.466 -13.793   3.997  1.00  0.00    -0.083 N 
HETATM    6  N   UNL     1      42.703 -14.953   4.639  1.00  0.00    -0.135 NA
HETATM    7  C   UNL     1      42.984 -15.772   3.608  1.00  0.00     0.199 A 
HETATM    8  N   UNL     1      42.850 -15.179   2.363  1.00  0.00    -0.041 NA
HETATM    9  C   UNL     1      42.071 -12.550   4.669  1.00  0.00     0.202 A 
HETATM   10  C   UNL     1      41.598 -11.482   3.682  1.00  0.00     0.062 A 
HETATM   11  H   UNL     1      42.139 -13.066   0.850  1.00  0.00     0.184 HD
ENDROOT
BRANCH  10  12
HETATM   12  C   UNL     1      41.119 -10.156   4.211  1.00  0.00     0.256 C 
HETATM   13  N   UNL     1      39.840 -10.147   4.732  1.00  0.00    -0.323 N 
HETATM   14  H   UNL     1      39.347 -11.018   4.848  1.00  0.00     0.169 HD
HETATM   15  O   UNL     1      41.876  -9.190   4.199  1.00  0.00    -0.267 OA
BRANCH  13  16
HETATM   16  C   UNL     1      39.124  -9.023   5.205  1.00  0.00     0.035 A 
HETATM   17  C   UNL     1      39.369  -8.396   6.428  1.00  0.00     0.029 A 
HETATM   18  C   UNL     1      38.633  -7.268   6.807  1.00  0.00     0.002 A 
HETATM   19  C   UNL     1      37.643  -6.761   5.970  1.00  0.00     0.000 A 
HETATM   20  C   UNL     1      37.389  -7.379   4.750  1.00  0.00     0.002 A 
HETATM   21  C   UNL     1      38.130  -8.500   4.366  1.00  0.00     0.029 A 
ENDBRANCH  13  16
ENDBRANCH  10  12
BRANCH   9  22
HETATM   22  C   UNL     1      43.197 -12.094   5.593  1.00  0.00    -0.025 A 
HETATM   23  C   UNL     1      43.019 -11.988   6.984  1.00  0.00     0.046 A 
HETATM   24  C   UNL     1      44.070 -11.551   7.788  1.00  0.00     0.066 A 
HETATM   25  C   UNL     1      45.296 -11.200   7.236  1.00  0.00     0.036 A 
HETATM   26  C   UNL     1      45.480 -11.282   5.858  1.00  0.00     0.003 A 
HETATM   27  C   UNL     1      44.438 -11.723   5.041  1.00  0.00     0.010 A 
BRANCH  24  28
HETATM   28  O   UNL     1      43.933 -11.447   9.140  1.00  0.00    -0.361 OA
HETATM   29  H   UNL     1      42.990 -11.372   9.356  1.00  0.00     0.217 HD
ENDBRANCH  24  28
ENDBRANCH   9  22
BRANCH   7  30
HETATM   30  C   UNL     1      43.371 -17.170   3.767  1.00  0.00     0.016 A 
HETATM   31  C   UNL     1      43.332 -18.053   2.678  1.00  0.00     0.039 A 
HETATM   32  C   UNL     1      43.703 -19.387   2.844  1.00  0.00     0.035 A 
HETATM   33 CL   UNL     1      43.652 -20.462   1.501  1.00  0.00    -0.084 Cl
HETATM   34  C   UNL     1      44.115 -19.860   4.090  1.00  0.00     0.024 A 
HETATM   35  C   UNL     1      44.157 -18.991   5.178  1.00  0.00     0.003 A 
HETATM   36  C   UNL     1      43.787 -17.653   5.017  1.00  0.00     0.015 A 
ENDBRANCH   7  30
TORSDOF 5
ENDMDL
MODEL 3
REMARK VINA RESULT:      -9.0      3.099      6.488
REMARK  5 active torsions:
REMARK  status: ('A' for Active; 'I' for Inactive)
REMARK    1  A    between atoms: C_7  and  C_8 
REMARK    2  A    between atoms: C_16  and  C_17 
REMARK    3  A    between atoms: C_19  and  O_20 
REMARK    4  A    between atoms: C_24  and  C_25 
REMARK       I    between atoms: C_25  and  N_26 
REMARK    5  A    between atoms: N_26  and  C_27 
ROOT
HETATM    1  C   UNL     1      43.899 -14.164   6.549  1.00  0.00     0.070 C 
HETATM    2  C   UNL     1      42.676 -13.698   5.792  1.00  0.00     0.037 A 
HETATM    3  N   UNL     1      42.456 -12.324   5.819  1.00  0.00    -0.192 N 
HETATM    4  C   UNL     1      41.362 -11.736   5.307  1.00  0.00     0.726 A 
HETATM    5  N   UNL     1      40.451 -12.497   4.642  1.00  0.00    -0.083 N 
HETATM    6  N   UNL     1      39.353 -11.786   4.319  1.00  0.00    -0.135 NA
HETATM    7  C   UNL     1      39.709 -10.553   4.726  1.00  0.00     0.199 A 
HETATM    8  N   UNL     1      40.943 -10.500   5.354  1.00  0.00    -0.041 NA
HETATM    9  C   UNL     1      40.581 -13.944   4.437  1.00  0.00     0.202 A 
HETATM   10  C   UNL     1      41.805 -14.524   5.146  1.00  0.00     0.062 A 
HETATM   11  H   UNL     1      43.110 -11.754   6.348  1.00  0.00     0.184 HD
ENDROOT
BRANCH  10  12
HETATM   12  C   UNL     1      42.063 -16.005   5.070  1.00  0.00     0.256 C 
HETATM   13  N   UNL     1      42.954 -16.407   4.093  1.00  0.00    -0.323 N 
HETATM   14  H   UNL     1      43.469 -15.712   3.578  1.00  0.00     0.169 HD
HETATM   15  O   UNL     1      41.527 -16.756   5.879  1.00  0.00    -0.267 OA
BRANCH  13  16
HETATM   16  C   UNL     1      43.297 -17.736   3.753  1.00  0.00     0.035 A 
HETATM   17  C   UNL     1      43.976 -18.612   4.603  1.00  0.00     0.029 A 
HETATM   18  C   UNL     1      44.251 -19.923   4.198  1.00  0.00     0.002 A 
HETATM   19  C   UNL     1      43.854 -20.368   2.940  1.00  0.00     0.000 A 
HETATM   20  C   UNL     1      43.179 -19.503   2.085  1.00  0.00     0.002 A 
HETATM   21  C   UNL     1      42.896 -18.196   2.492  1.00  0.00     0.029 A 
ENDBRANCH  13  16
ENDBRANCH  10  12
BRANCH   9  22
HETATM   22  C   UNL     1      40.518 -14.252   2.943  1.00  0.00    -0.025 A 
HETATM   23  C   UNL     1      41.000 -13.350   1.978  1.00  0.00     0.046 A 
HETATM   24  C   UNL     1      40.907 -13.665   0.624  1.00  0.00     0.066 A 
HETATM   25  C   UNL     1      40.328 -14.856   0.204  1.00  0.00     0.036 A 
HETATM   26  C   UNL     1      39.829 -15.750   1.148  1.00  0.00     0.003 A 
HETATM   27  C   UNL     1      39.920 -15.451   2.508  1.00  0.00     0.010 A 
BRANCH  24  28
HETATM   28  O   UNL     1      41.374 -12.818  -0.336  1.00  0.00    -0.361 OA
HETATM   29  H   UNL     1      40.994 -11.936  -0.190  1.00  0.00     0.217 HD
ENDBRANCH  24  28
ENDBRANCH   9  22
BRANCH   7  30
HETATM   30  C   UNL     1      38.872  -9.371   4.554  1.00  0.00     0.016 A 
HETATM   31  C   UNL     1      38.628  -8.502   5.627  1.00  0.00     0.039 A 
HETATM   32  C   UNL     1      37.824  -7.377   5.450  1.00  0.00     0.035 A 
HETATM   33 CL   UNL     1      37.532  -6.317   6.774  1.00  0.00    -0.084 Cl
HETATM   34  C   UNL     1      37.252  -7.101   4.208  1.00  0.00     0.024 A 
HETATM   35  C   UNL     1      37.488  -7.958   3.135  1.00  0.00     0.003 A 
HETATM   36  C   UNL     1      38.293  -9.087   3.307  1.00  0.00     0.015 A 
ENDBRANCH   7  30
TORSDOF 5
ENDMDL
MODEL 4
REMARK VINA RESULT:      -9.0      4.358      8.041
REMARK  5 active torsions:
REMARK  status: ('A' for Active; 'I' for Inactive)
REMARK    1  A    between atoms: C_7  and  C_8 
REMARK    2  A    between atoms: C_16  and  C_17 
REMARK    3  A    between atoms: C_19  and  O_20 
REMARK    4  A    between atoms: C_24  and  C_25 
REMARK       I    between atoms: C_25  and  N_26 
REMARK    5  A    between atoms: N_26  and  C_27 
ROOT
HETATM    1  C   UNL     1      39.118 -11.388   3.447  1.00  0.00     0.070 C 
HETATM    2  C   UNL     1      40.190 -12.249   4.076  1.00  0.00     0.037 A 
HETATM    3  N   UNL     1      40.481 -13.423   3.387  1.00  0.00    -0.192 N 
HETATM    4  C   UNL     1      41.315 -14.368   3.850  1.00  0.00     0.726 A 
HETATM    5  N   UNL     1      41.993 -14.145   5.008  1.00  0.00    -0.083 N 
HETATM    6  N   UNL     1      42.671 -15.239   5.404  1.00  0.00    -0.135 NA
HETATM    7  C   UNL     1      42.450 -16.074   4.371  1.00  0.00     0.199 A 
HETATM    8  N   UNL     1      41.602 -15.562   3.403  1.00  0.00    -0.041 NA
HETATM    9  C   UNL     1      41.877 -12.919   5.806  1.00  0.00     0.202 A 
HETATM   10  C   UNL     1      40.828 -11.958   5.245  1.00  0.00     0.062 A 
HETATM   11  H   UNL     1      39.950 -13.616   2.542  1.00  0.00     0.184 HD
ENDROOT
BRANCH  10  12
HETATM   12  C   UNL     1      40.555 -10.667   5.969  1.00  0.00     0.256 C 
HETATM   13  N   UNL     1      41.370  -9.606   5.625  1.00  0.00    -0.323 N 
HETATM   14  H   UNL     1      42.002  -9.699   4.846  1.00  0.00     0.169 HD
HETATM   15  O   UNL     1      39.625 -10.605   6.767  1.00  0.00    -0.267 OA
BRANCH  13  16
HETATM   16  C   UNL     1      41.383  -8.320   6.215  1.00  0.00     0.035 A 
HETATM   17  C   UNL     1      40.544  -7.272   5.832  1.00  0.00     0.029 A 
HETATM   18  C   UNL     1      40.603  -6.039   6.490  1.00  0.00     0.002 A 
HETATM   19  C   UNL     1      41.503  -5.841   7.533  1.00  0.00     0.000 A 
HETATM   20  C   UNL     1      42.345  -6.878   7.923  1.00  0.00     0.002 A 
HETATM   21  C   UNL     1      42.281  -8.113   7.272  1.00  0.00     0.029 A 
ENDBRANCH  13  16
ENDBRANCH  10  12
BRANCH   9  22
HETATM   22  C   UNL     1      43.260 -12.299   5.987  1.00  0.00    -0.025 A 
HETATM   23  C   UNL     1      44.097 -12.017   4.892  1.00  0.00     0.046 A 
HETATM   24  C   UNL     1      45.359 -11.466   5.105  1.00  0.00     0.066 A 
HETATM   25  C   UNL     1      45.818 -11.204   6.389  1.00  0.00     0.036 A 
HETATM   26  C   UNL     1      45.008 -11.496   7.484  1.00  0.00     0.003 A 
HETATM   27  C   UNL     1      43.738 -12.042   7.286  1.00  0.00     0.010 A 
BRANCH  24  28
HETATM   28  O   UNL     1      46.189 -11.172   4.065  1.00  0.00    -0.361 OA
HETATM   29  H   UNL     1      46.991 -11.715   4.138  1.00  0.00     0.217 HD
ENDBRANCH  24  28
ENDBRANCH   9  22
BRANCH   7  30
HETATM   30  C   UNL     1      43.022 -17.413   4.275  1.00  0.00     0.016 A 
HETATM   31  C   UNL     1      43.031 -18.103   3.055  1.00  0.00     0.039 A 
HETATM   32  C   UNL     1      43.580 -19.383   2.978  1.00  0.00     0.035 A 
HETATM   33 CL   UNL     1      43.586 -20.221   1.475  1.00  0.00    -0.084 Cl
HETATM   34  C   UNL     1      44.123 -19.992   4.108  1.00  0.00     0.024 A 
HETATM   35  C   UNL     1      44.120 -19.315   5.326  1.00  0.00     0.003 A 
HETATM   36  C   UNL     1      43.571 -18.032   5.409  1.00  0.00     0.015 A 
ENDBRANCH   7  30
TORSDOF 5
ENDMDL
MODEL 5
REMARK VINA RESULT:      -8.9      4.426      8.484
REMARK  5 active torsions:
REMARK  status: ('A' for Active; 'I' for Inactive)
REMARK    1  A    between atoms: C_7  and  C_8 
REMARK    2  A    between atoms: C_16  and  C_17 
REMARK    3  A    between atoms: C_19  and  O_20 
REMARK    4  A    between atoms: C_24  and  C_25 
REMARK       I    between atoms: C_25  and  N_26 
REMARK    5  A    between atoms: N_26  and  C_27 
ROOT
HETATM    1  C   UNL     1      39.649  -9.753   4.425  1.00  0.00     0.070 C 
HETATM    2  C   UNL     1      40.603 -10.842   4.858  1.00  0.00     0.037 A 
HETATM    3  N   UNL     1      40.815 -11.847   3.918  1.00  0.00    -0.192 N 
HETATM    4  C   UNL     1      41.532 -12.955   4.164  1.00  0.00     0.726 A 
HETATM    5  N   UNL     1      42.171 -13.079   5.359  1.00  0.00    -0.083 N 
HETATM    6  N   UNL     1      42.722 -14.300   5.501  1.00  0.00    -0.135 NA
HETATM    7  C   UNL     1      42.473 -14.844   4.295  1.00  0.00     0.199 A 
HETATM    8  N   UNL     1      41.725 -14.035   3.454  1.00  0.00    -0.041 NA
HETATM    9  C   UNL     1      42.133 -12.068   6.421  1.00  0.00     0.202 A 
HETATM   10  C   UNL     1      41.208 -10.900   6.078  1.00  0.00     0.062 A 
HETATM   11  H   UNL     1      40.309 -11.781   3.039  1.00  0.00     0.184 HD
ENDROOT
BRANCH  10  12
HETATM   12  C   UNL     1      41.025  -9.791   7.080  1.00  0.00     0.256 C 
HETATM   13  N   UNL     1      40.200 -10.083   8.149  1.00  0.00    -0.323 N 
HETATM   14  H   UNL     1      39.871 -11.026   8.277  1.00  0.00     0.169 HD
HETATM   15  O   UNL     1      41.631  -8.735   6.932  1.00  0.00    -0.267 OA
BRANCH  13  16
HETATM   16  C   UNL     1      39.793  -9.196   9.173  1.00  0.00     0.035 A 
HETATM   17  C   UNL     1      39.049  -8.035   8.954  1.00  0.00     0.029 A 
HETATM   18  C   UNL     1      38.661  -7.227  10.028  1.00  0.00     0.002 A 
HETATM   19  C   UNL     1      39.016  -7.571  11.330  1.00  0.00     0.000 A 
HETATM   20  C   UNL     1      39.758  -8.725  11.560  1.00  0.00     0.002 A 
HETATM   21  C   UNL     1      40.139  -9.537  10.488  1.00  0.00     0.029 A 
ENDBRANCH  13  16
ENDBRANCH  10  12
BRANCH   9  22
HETATM   22  C   UNL     1      43.559 -11.654   6.778  1.00  0.00    -0.025 A 
HETATM   23  C   UNL     1      43.918 -11.276   8.084  1.00  0.00     0.046 A 
HETATM   24  C   UNL     1      45.227 -10.889   8.361  1.00  0.00     0.066 A 
HETATM   25  C   UNL     1      46.190 -10.855   7.360  1.00  0.00     0.036 A 
HETATM   26  C   UNL     1      45.844 -11.209   6.058  1.00  0.00     0.003 A 
HETATM   27  C   UNL     1      44.538 -11.604   5.767  1.00  0.00     0.010 A 
BRANCH  24  28
HETATM   28  O   UNL     1      45.609 -10.527   9.618  1.00  0.00    -0.361 OA
HETATM   29  H   UNL     1      44.990  -9.859   9.955  1.00  0.00     0.217 HD
ENDBRANCH  24  28
ENDBRANCH   9  22
BRANCH   7  30
HETATM   30  C   UNL     1      42.920 -16.175   3.899  1.00  0.00     0.016 A 
HETATM   31  C   UNL     1      43.186 -17.159   4.862  1.00  0.00     0.039 A 
HETATM   32  C   UNL     1      43.615 -18.426   4.470  1.00  0.00     0.035 A 
HETATM   33 CL   UNL     1      43.937 -19.626   5.661  1.00  0.00    -0.084 Cl
HETATM   34  C   UNL     1      43.786 -18.732   3.120  1.00  0.00     0.024 A 
HETATM   35  C   UNL     1      43.525 -17.762   2.155  1.00  0.00     0.003 A 
HETATM   36  C   UNL     1      43.095 -16.490   2.542  1.00  0.00     0.015 A 
ENDBRANCH   7  30
TORSDOF 5
ENDMDL
MODEL 6
REMARK VINA RESULT:      -8.8      4.307      6.397
REMARK  5 active torsions:
REMARK  status: ('A' for Active; 'I' for Inactive)
REMARK    1  A    between atoms: C_7  and  C_8 
REMARK    2  A    between atoms: C_16  and  C_17 
REMARK    3  A    between atoms: C_19  and  O_20 
REMARK    4  A    between atoms: C_24  and  C_25 
REMARK       I    between atoms: C_25  and  N_26 
REMARK    5  A    between atoms: N_26  and  C_27 
ROOT
HETATM    1  C   UNL     1      39.178 -10.501   3.653  1.00  0.00     0.070 C 
HETATM    2  C   UNL     1      39.965 -11.586   2.954  1.00  0.00     0.037 A 
HETATM    3  N   UNL     1      40.168 -12.740   3.704  1.00  0.00    -0.192 N 
HETATM    4  C   UNL     1      40.941 -13.762   3.301  1.00  0.00     0.726 A 
HETATM    5  N   UNL     1      41.489 -13.727   2.056  1.00  0.00    -0.083 N 
HETATM    6  N   UNL     1      42.345 -14.749   1.863  1.00  0.00    -0.135 NA
HETATM    7  C   UNL     1      42.188 -15.443   3.005  1.00  0.00     0.199 A 
HETATM    8  N   UNL     1      41.334 -14.845   3.918  1.00  0.00    -0.041 NA
HETATM    9  C   UNL     1      41.293 -12.630   1.101  1.00  0.00     0.202 A 
HETATM   10  C   UNL     1      40.485 -11.478   1.699  1.00  0.00     0.062 A 
HETATM   11  H   UNL     1      39.796 -12.758   4.650  1.00  0.00     0.184 HD
ENDROOT
BRANCH  10  12
HETATM   12  C   UNL     1      40.226 -10.253   0.862  1.00  0.00     0.256 C 
HETATM   13  N   UNL     1      41.309  -9.418   0.674  1.00  0.00    -0.323 N 
HETATM   14  H   UNL     1      42.221  -9.713   0.984  1.00  0.00     0.169 HD
HETATM   15  O   UNL     1      39.117 -10.084   0.365  1.00  0.00    -0.267 OA
BRANCH  13  16
HETATM   16  C   UNL     1      41.312  -8.168   0.012  1.00  0.00     0.035 A 
HETATM   17  C   UNL     1      40.804  -6.989   0.561  1.00  0.00     0.029 A 
HETATM   18  C   UNL     1      40.874  -5.787  -0.151  1.00  0.00     0.002 A 
HETATM   19  C   UNL     1      41.447  -5.754  -1.420  1.00  0.00     0.000 A 
HETATM   20  C   UNL     1      41.956  -6.923  -1.977  1.00  0.00     0.002 A 
HETATM   21  C   UNL     1      41.895  -8.122  -1.262  1.00  0.00     0.029 A 
ENDBRANCH  13  16
ENDBRANCH  10  12
BRANCH   9  22
HETATM   22  C   UNL     1      40.720 -13.188  -0.200  1.00  0.00    -0.025 A 
HETATM   23  C   UNL     1      39.925 -14.348  -0.224  1.00  0.00     0.046 A 
HETATM   24  C   UNL     1      39.437 -14.830  -1.437  1.00  0.00     0.066 A 
HETATM   25  C   UNL     1      39.737 -14.192  -2.634  1.00  0.00     0.036 A 
HETATM   26  C   UNL     1      40.539 -13.054  -2.626  1.00  0.00     0.003 A 
HETATM   27  C   UNL     1      41.030 -12.555  -1.419  1.00  0.00     0.010 A 
BRANCH  24  28
HETATM   28  O   UNL     1      38.655 -15.945  -1.494  1.00  0.00    -0.361 OA
HETATM   29  H   UNL     1      39.169 -16.707  -1.178  1.00  0.00     0.217 HD
ENDBRANCH  24  28
ENDBRANCH   9  22
BRANCH   7  30
HETATM   30  C   UNL     1      42.869 -16.703   3.288  1.00  0.00     0.016 A 
HETATM   31  C   UNL     1      42.794 -17.776   2.389  1.00  0.00     0.039 A 
HETATM   32  C   UNL     1      43.447 -18.975   2.672  1.00  0.00     0.035 A 
HETATM   33 CL   UNL     1      43.348 -20.285   1.560  1.00  0.00    -0.084 Cl
HETATM   34  C   UNL     1      44.181 -19.124   3.848  1.00  0.00     0.024 A 
HETATM   35  C   UNL     1      44.262 -18.063   4.749  1.00  0.00     0.003 A 
HETATM   36  C   UNL     1      43.609 -16.860   4.470  1.00  0.00     0.015 A 
ENDBRANCH   7  30
TORSDOF 5
ENDMDL
MODEL 7
REMARK VINA RESULT:      -8.7      4.443      6.098
REMARK  5 active torsions:
REMARK  status: ('A' for Active; 'I' for Inactive)
REMARK    1  A    between atoms: C_7  and  C_8 
REMARK    2  A    between atoms: C_16  and  C_17 
REMARK    3  A    between atoms: C_19  and  O_20 
REMARK    4  A    between atoms: C_24  and  C_25 
REMARK       I    between atoms: C_25  and  N_26 
REMARK    5  A    between atoms: N_26  and  C_27 
ROOT
HETATM    1  C   UNL     1      38.677 -10.760   3.790  1.00  0.00     0.070 C 
HETATM    2  C   UNL     1      39.586 -11.746   3.091  1.00  0.00     0.037 A 
HETATM    3  N   UNL     1      39.814 -12.930   3.787  1.00  0.00    -0.192 N 
HETATM    4  C   UNL     1      40.684 -13.872   3.386  1.00  0.00     0.726 A 
HETATM    5  N   UNL     1      41.318 -13.722   2.191  1.00  0.00    -0.083 N 
HETATM    6  N   UNL     1      42.254 -14.672   2.005  1.00  0.00    -0.135 NA
HETATM    7  C   UNL     1      42.063 -15.446   3.090  1.00  0.00     0.199 A 
HETATM    8  N   UNL     1      41.105 -14.963   3.967  1.00  0.00    -0.041 NA
HETATM    9  C   UNL     1      41.116 -12.582   1.289  1.00  0.00     0.202 A 
HETATM   10  C   UNL     1      40.188 -11.525   1.889  1.00  0.00     0.062 A 
HETATM   11  H   UNL     1      39.375 -13.032   4.698  1.00  0.00     0.184 HD
ENDROOT
BRANCH  10  12
HETATM   12  C   UNL     1      39.907 -10.269   1.108  1.00  0.00     0.256 C 
HETATM   13  N   UNL     1      38.771 -10.296   0.323  1.00  0.00    -0.323 N 
HETATM   14  H   UNL     1      38.135 -11.074   0.399  1.00  0.00     0.169 HD
HETATM   15  O   UNL     1      40.646  -9.298   1.235  1.00  0.00    -0.267 OA
BRANCH  13  16
HETATM   16  C   UNL     1      38.333  -9.291  -0.571  1.00  0.00     0.035 A 
HETATM   17  C   UNL     1      37.536  -8.206  -0.201  1.00  0.00     0.029 A 
HETATM   18  C   UNL     1      37.172  -7.239  -1.144  1.00  0.00     0.002 A 
HETATM   19  C   UNL     1      37.596  -7.351  -2.466  1.00  0.00     0.000 A 
HETATM   20  C   UNL     1      38.390  -8.428  -2.846  1.00  0.00     0.002 A 
HETATM   21  C   UNL     1      38.761  -9.390  -1.902  1.00  0.00     0.029 A 
ENDBRANCH  13  16
ENDBRANCH  10  12
BRANCH   9  22
HETATM   22  C   UNL     1      40.680 -13.092  -0.082  1.00  0.00    -0.025 A 
HETATM   23  C   UNL     1      41.134 -12.498  -1.274  1.00  0.00     0.046 A 
HETATM   24  C   UNL     1      40.697 -12.986  -2.504  1.00  0.00     0.066 A 
HETATM   25  C   UNL     1      39.802 -14.046  -2.576  1.00  0.00     0.036 A 
HETATM   26  C   UNL     1      39.330 -14.631  -1.404  1.00  0.00     0.003 A 
HETATM   27  C   UNL     1      39.763 -14.157  -0.165  1.00  0.00     0.010 A 
BRANCH  24  28
HETATM   28  O   UNL     1      41.126 -12.439  -3.676  1.00  0.00    -0.361 OA
HETATM   29  H   UNL     1      41.960 -11.968  -3.518  1.00  0.00     0.217 HD
ENDBRANCH  24  28
ENDBRANCH   9  22
BRANCH   7  30
HETATM   30  C   UNL     1      42.807 -16.674   3.350  1.00  0.00     0.016 A 
HETATM   31  C   UNL     1      42.744 -17.754   2.458  1.00  0.00     0.039 A 
HETATM   32  C   UNL     1      43.458 -18.922   2.720  1.00  0.00     0.035 A 
HETATM   33 CL   UNL     1      43.373 -20.241   1.617  1.00  0.00    -0.084 Cl
HETATM   34  C   UNL     1      44.241 -19.034   3.868  1.00  0.00     0.024 A 
HETATM   35  C   UNL     1      44.311 -17.967   4.762  1.00  0.00     0.003 A 
HETATM   36  C   UNL     1      43.597 -16.794   4.504  1.00  0.00     0.015 A 
ENDBRANCH   7  30
TORSDOF 5
ENDMDL
MODEL 8
REMARK VINA RESULT:      -8.5      5.048      9.139
REMARK  5 active torsions:
REMARK  status: ('A' for Active; 'I' for Inactive)
REMARK    1  A    between atoms: C_7  and  C_8 
REMARK    2  A    between atoms: C_16  and  C_17 
REMARK    3  A    between atoms: C_19  and  O_20 
REMARK    4  A    between atoms: C_24  and  C_25 
REMARK       I    between atoms: C_25  and  N_26 
REMARK    5  A    between atoms: N_26  and  C_27 
ROOT
HETATM    1  C   UNL     1      40.666  -8.053   4.551  1.00  0.00     0.070 C 
HETATM    2  C   UNL     1      41.336  -9.180   5.303  1.00  0.00     0.037 A 
HETATM    3  N   UNL     1      41.731 -10.258   4.516  1.00  0.00    -0.192 N 
HETATM    4  C   UNL     1      42.233 -11.399   5.017  1.00  0.00     0.726 A 
HETATM    5  N   UNL     1      42.461 -11.491   6.356  1.00  0.00    -0.083 N 
HETATM    6  N   UNL     1      42.827 -12.737   6.711  1.00  0.00    -0.135 NA
HETATM    7  C   UNL     1      42.910 -13.340   5.510  1.00  0.00     0.199 A 
HETATM    8  N   UNL     1      42.533 -12.535   4.447  1.00  0.00    -0.041 NA
HETATM    9  C   UNL     1      42.195 -10.410   7.312  1.00  0.00     0.202 A 
HETATM   10  C   UNL     1      41.531  -9.201   6.651  1.00  0.00     0.062 A 
HETATM   11  H   UNL     1      41.527 -10.214   3.521  1.00  0.00     0.184 HD
ENDROOT
BRANCH  10  12
HETATM   12  C   UNL     1      41.153  -8.018   7.502  1.00  0.00     0.256 C 
HETATM   13  N   UNL     1      42.117  -7.036   7.622  1.00  0.00    -0.323 N 
HETATM   14  H   UNL     1      42.950  -7.089   7.058  1.00  0.00     0.169 HD
HETATM   15  O   UNL     1      40.030  -7.959   7.992  1.00  0.00    -0.267 OA
BRANCH  13  16
HETATM   16  C   UNL     1      42.052  -5.877   8.429  1.00  0.00     0.035 A 
HETATM   17  C   UNL     1      41.333  -4.727   8.093  1.00  0.00     0.029 A 
HETATM   18  C   UNL     1      41.297  -3.633   8.964  1.00  0.00     0.002 A 
HETATM   19  C   UNL     1      41.982  -3.676  10.176  1.00  0.00     0.000 A 
HETATM   20  C   UNL     1      42.702  -4.815  10.520  1.00  0.00     0.002 A 
HETATM   21  C   UNL     1      42.732  -5.912   9.655  1.00  0.00     0.029 A 
ENDBRANCH  13  16
ENDBRANCH  10  12
BRANCH   9  22
HETATM   22  C   UNL     1      43.475 -10.083   8.077  1.00  0.00    -0.025 A 
HETATM   23  C   UNL     1      44.663  -9.723   7.416  1.00  0.00     0.046 A 
HETATM   24  C   UNL     1      45.813  -9.448   8.154  1.00  0.00     0.066 A 
HETATM   25  C   UNL     1      45.812  -9.540   9.540  1.00  0.00     0.036 A 
HETATM   26  C   UNL     1      44.648  -9.914  10.206  1.00  0.00     0.003 A 
HETATM   27  C   UNL     1      43.487 -10.186   9.481  1.00  0.00     0.010 A 
BRANCH  24  28
HETATM   28  O   UNL     1      46.977  -9.087   7.544  1.00  0.00    -0.361 OA
HETATM   29  H   UNL     1      47.389  -8.369   8.052  1.00  0.00     0.217 HD
ENDBRANCH  24  28
ENDBRANCH   9  22
BRANCH   7  30
HETATM   30  C   UNL     1      43.331 -14.725   5.326  1.00  0.00     0.016 A 
HETATM   31  C   UNL     1      43.065 -15.403   4.128  1.00  0.00     0.039 A 
HETATM   32  C   UNL     1      43.472 -16.727   3.966  1.00  0.00     0.035 A 
HETATM   33 CL   UNL     1      43.140 -17.549   2.491  1.00  0.00    -0.084 Cl
HETATM   34  C   UNL     1      44.145 -17.393   4.990  1.00  0.00     0.024 A 
HETATM   35  C   UNL     1      44.414 -16.729   6.185  1.00  0.00     0.003 A 
HETATM   36  C   UNL     1      44.009 -15.402   6.352  1.00  0.00     0.015 A 
ENDBRANCH   7  30
TORSDOF 5
ENDMDL
MODEL 9
REMARK VINA RESULT:      -8.3      4.121      6.735
REMARK  5 active torsions:
REMARK  status: ('A' for Active; 'I' for Inactive)
REMARK    1  A    between atoms: C_7  and  C_8 
REMARK    2  A    between atoms: C_16  and  C_17 
REMARK    3  A    between atoms: C_19  and  O_20 
REMARK    4  A    between atoms: C_24  and  C_25 
REMARK       I    between atoms: C_25  and  N_26 
REMARK    5  A    between atoms: N_26  and  C_27 
ROOT
HETATM    1  C   UNL     1      45.701 -11.492   6.028  1.00  0.00     0.070 C 
HETATM    2  C   UNL     1      44.564 -10.869   6.805  1.00  0.00     0.037 A 
HETATM    3  N   UNL     1      44.952  -9.989   7.812  1.00  0.00    -0.192 N 
HETATM    4  C   UNL     1      44.096  -9.431   8.683  1.00  0.00     0.726 A 
HETATM    5  N   UNL     1      42.761  -9.653   8.534  1.00  0.00    -0.083 N 
HETATM    6  N   UNL     1      42.057  -9.145   9.564  1.00  0.00    -0.135 NA
HETATM    7  C   UNL     1      43.025  -8.522  10.263  1.00  0.00     0.199 A 
HETATM    8  N   UNL     1      44.298  -8.697   9.744  1.00  0.00    -0.041 NA
HETATM    9  C   UNL     1      42.178 -10.474   7.467  1.00  0.00     0.202 A 
HETATM   10  C   UNL     1      43.245 -11.141   6.598  1.00  0.00     0.062 A 
HETATM   11  H   UNL     1      45.949  -9.850   7.955  1.00  0.00     0.184 HD
ENDROOT
BRANCH  10  12
HETATM   12  C   UNL     1      42.814 -12.051   5.479  1.00  0.00     0.256 C 
HETATM   13  N   UNL     1      42.448 -13.329   5.855  1.00  0.00    -0.323 N 
HETATM   14  H   UNL     1      42.365 -13.551   6.834  1.00  0.00     0.169 HD
HETATM   15  O   UNL     1      42.765 -11.619   4.332  1.00  0.00    -0.267 OA
BRANCH  13  16
HETATM   16  C   UNL     1      42.095 -14.397   4.999  1.00  0.00     0.035 A 
HETATM   17  C   UNL     1      40.824 -14.573   4.448  1.00  0.00     0.029 A 
HETATM   18  C   UNL     1      40.567 -15.643   3.584  1.00  0.00     0.002 A 
HETATM   19  C   UNL     1      41.575 -16.550   3.268  1.00  0.00     0.000 A 
HETATM   20  C   UNL     1      42.845 -16.385   3.813  1.00  0.00     0.002 A 
HETATM   21  C   UNL     1      43.105 -15.311   4.669  1.00  0.00     0.029 A 
ENDBRANCH  13  16
ENDBRANCH  10  12
BRANCH   9  22
HETATM   22  C   UNL     1      41.163  -9.642   6.685  1.00  0.00    -0.025 A 
HETATM   23  C   UNL     1      39.827 -10.053   6.533  1.00  0.00     0.046 A 
HETATM   24  C   UNL     1      38.939  -9.271   5.797  1.00  0.00     0.066 A 
HETATM   25  C   UNL     1      39.356  -8.092   5.192  1.00  0.00     0.036 A 
HETATM   26  C   UNL     1      40.681  -7.683   5.319  1.00  0.00     0.003 A 
HETATM   27  C   UNL     1      41.580  -8.453   6.058  1.00  0.00     0.010 A 
BRANCH  24  28
HETATM   28  O   UNL     1      37.635  -9.636   5.638  1.00  0.00    -0.361 OA
HETATM   29  H   UNL     1      37.067  -8.948   6.020  1.00  0.00     0.217 HD
ENDBRANCH  24  28
ENDBRANCH   9  22
BRANCH   7  30
HETATM   30  C   UNL     1      42.778  -7.749  11.475  1.00  0.00     0.016 A 
HETATM   31  C   UNL     1      42.004  -6.580  11.436  1.00  0.00     0.039 A 
HETATM   32  C   UNL     1      41.778  -5.850  12.602  1.00  0.00     0.035 A 
HETATM   33 CL   UNL     1      40.826  -4.417  12.541  1.00  0.00    -0.084 Cl
HETATM   34  C   UNL     1      42.316  -6.268  13.818  1.00  0.00     0.024 A 
HETATM   35  C   UNL     1      43.087  -7.428  13.869  1.00  0.00     0.003 A 
HETATM   36  C   UNL     1      43.317  -8.164  12.703  1.00  0.00     0.015 A 
ENDBRANCH   7  30
TORSDOF 5
ENDMDL
MODEL 10
REMARK VINA RESULT:      -8.2      4.053      5.696
REMARK  5 active torsions:
REMARK  status: ('A' for Active; 'I' for Inactive)
REMARK    1  A    between atoms: C_7  and  C_8 
REMARK    2  A    between atoms: C_16  and  C_17 
REMARK    3  A    between atoms: C_19  and  O_20 
REMARK    4  A    between atoms: C_24  and  C_25 
REMARK       I    between atoms: C_25  and  N_26 
REMARK    5  A    between atoms: N_26  and  C_27 
ROOT
HETATM    1  C   UNL     1      38.634 -10.285   3.360  1.00  0.00     0.070 C 
HETATM    2  C   UNL     1      39.526 -11.326   2.722  1.00  0.00     0.037 A 
HETATM    3  N   UNL     1      39.703 -12.486   3.469  1.00  0.00    -0.192 N 
HETATM    4  C   UNL     1      40.550 -13.470   3.125  1.00  0.00     0.726 A 
HETATM    5  N   UNL     1      41.212 -13.389   1.939  1.00  0.00    -0.083 N 
HETATM    6  N   UNL     1      42.122 -14.374   1.812  1.00  0.00    -0.135 NA
HETATM    7  C   UNL     1      41.885 -15.096   2.923  1.00  0.00     0.199 A 
HETATM    8  N   UNL     1      40.926 -14.549   3.759  1.00  0.00    -0.041 NA
HETATM    9  C   UNL     1      41.064 -12.282   0.988  1.00  0.00     0.202 A 
HETATM   10  C   UNL     1      40.158 -11.173   1.524  1.00  0.00     0.062 A 
HETATM   11  H   UNL     1      39.243 -12.537   4.375  1.00  0.00     0.184 HD
ENDROOT
BRANCH  10  12
HETATM   12  C   UNL     1      39.931  -9.943   0.687  1.00  0.00     0.256 C 
HETATM   13  N   UNL     1      38.787  -9.949  -0.086  1.00  0.00    -0.323 N 
HETATM   14  H   UNL     1      38.114 -10.688   0.032  1.00  0.00     0.169 HD
HETATM   15  O   UNL     1      40.720  -9.005   0.762  1.00  0.00    -0.267 OA
BRANCH  13  16
HETATM   16  C   UNL     1      38.390  -8.966  -1.023  1.00  0.00     0.035 A 
HETATM   17  C   UNL     1      37.668  -7.817  -0.695  1.00  0.00     0.029 A 
HETATM   18  C   UNL     1      37.342  -6.879  -1.681  1.00  0.00     0.002 A 
HETATM   19  C   UNL     1      37.730  -7.083  -3.002  1.00  0.00     0.000 A 
HETATM   20  C   UNL     1      38.449  -8.225  -3.340  1.00  0.00     0.002 A 
HETATM   21  C   UNL     1      38.783  -9.159  -2.355  1.00  0.00     0.029 A 
ENDBRANCH  13  16
ENDBRANCH  10  12
BRANCH   9  22
HETATM   22  C   UNL     1      40.640 -12.835  -0.371  1.00  0.00    -0.025 A 
HETATM   23  C   UNL     1      39.782 -13.943  -0.487  1.00  0.00     0.046 A 
HETATM   24  C   UNL     1      39.435 -14.424  -1.747  1.00  0.00     0.066 A 
HETATM   25  C   UNL     1      39.936 -13.836  -2.901  1.00  0.00     0.036 A 
HETATM   26  C   UNL     1      40.802 -12.749  -2.801  1.00  0.00     0.003 A 
HETATM   27  C   UNL     1      41.154 -12.253  -1.545  1.00  0.00     0.010 A 
BRANCH  24  28
HETATM   28  O   UNL     1      38.598 -15.490  -1.894  1.00  0.00    -0.361 OA
HETATM   29  H   UNL     1      37.682 -15.191  -1.772  1.00  0.00     0.217 HD
ENDBRANCH  24  28
ENDBRANCH   9  22
BRANCH   7  30
HETATM   30  C   UNL     1      42.586 -16.335   3.248  1.00  0.00     0.016 A 
HETATM   31  C   UNL     1      42.728 -16.750   4.580  1.00  0.00     0.039 A 
HETATM   32  C   UNL     1      43.401 -17.934   4.877  1.00  0.00     0.035 A 
HETATM   33 CL   UNL     1      43.569 -18.433   6.516  1.00  0.00    -0.084 Cl
HETATM   34  C   UNL     1      43.942 -18.718   3.859  1.00  0.00     0.024 A 
HETATM   35  C   UNL     1      43.806 -18.315   2.532  1.00  0.00     0.003 A 
HETATM   36  C   UNL     1      43.132 -17.129   2.229  1.00  0.00     0.015 A 
ENDBRANCH   7  30
TORSDOF 5
ENDMDL
