MODEL 1
REMARK VINA RESULT:      -9.1      0.000      0.000
REMARK  6 active torsions:
REMARK  status: ('A' for Active; 'I' for Inactive)
REMARK    1  A    between atoms: C_2  and  O_3 
REMARK    2  A    between atoms: O_3  and  C_4 
REMARK    3  A    between atoms: C_7  and  N_8 
REMARK    4  A    between atoms: N_8  and  C_9 
REMARK    5  A    between atoms: C_10  and  C_11 
REMARK    6  A    between atoms: C_14  and  C_15 
ROOT
HETATM    1  C   UNL     1      39.474 -11.758   4.889  1.00  0.00     0.113 C 
HETATM    2  C   UNL     1      40.512 -11.351   5.645  1.00  0.00     0.082 C 
HETATM    3  C   UNL     1      40.522  -9.939   6.208  1.00  0.00     0.024 C 
HETATM    4  N   UNL     1      40.532  -8.767   6.675  1.00  0.00    -0.096 N 
ENDROOT
BRANCH   2   5
HETATM    5  C   UNL     1      41.639 -12.210   5.883  1.00  0.00     0.119 A 
HETATM    6  S   UNL     1      43.187 -11.540   6.308  1.00  0.00    -0.078 SA
HETATM    7  C   UNL     1      43.865 -13.106   6.383  1.00  0.00     0.084 A 
HETATM    8  C   UNL     1      42.905 -14.053   6.106  1.00  0.00     0.081 A 
HETATM    9  N   UNL     1      41.643 -13.537   5.831  1.00  0.00    -0.239 NA
BRANCH   8  10
HETATM   10  C   UNL     1      43.104 -15.478   6.021  1.00  0.00     0.070 A 
HETATM   11  C   UNL     1      43.248 -16.285   7.276  1.00  0.00     0.301 A 
HETATM   12  O   UNL     1      43.146 -15.797   8.398  1.00  0.00    -0.259 OA
HETATM   13  O   UNL     1      43.510 -17.646   7.136  1.00  0.00    -0.274 OA
HETATM   14  C   UNL     1      43.589 -18.267   5.880  1.00  0.00     0.089 A 
HETATM   15  C   UNL     1      43.409 -17.528   4.717  1.00  0.00     0.000 A 
HETATM   16  C   UNL     1      43.849 -19.635   5.851  1.00  0.00     0.039 A 
HETATM   17  C   UNL     1      43.490 -18.179   3.484  1.00  0.00     0.033 A 
HETATM   18  C   UNL     1      43.167 -16.101   4.829  1.00  0.00     0.034 A 
HETATM   19  C   UNL     1      43.750 -19.552   3.442  1.00  0.00     0.012 A 
HETATM   20  C   UNL     1      43.930 -20.282   4.619  1.00  0.00     0.022 A 
HETATM   21 BR   UNL     1      43.863 -20.431   1.772  1.00  0.00    -0.051 Br
ENDBRANCH   8  10
ENDBRANCH   2   5
BRANCH   1  22
HETATM   22  N   UNL     1      39.336 -12.962   4.235  1.00  0.00    -0.364 N 
HETATM   23  H   UNL     1      38.940 -13.713   4.808  1.00  0.00     0.165 HD
BRANCH  22  24
HETATM   24  C   UNL     1      39.503 -13.277   2.879  1.00  0.00     0.032 A 
HETATM   25  C   UNL     1      39.978 -14.553   2.545  1.00  0.00     0.032 A 
HETATM   26  C   UNL     1      40.182 -14.924   1.214  1.00  0.00     0.039 A 
HETATM   27  C   UNL     1      39.909 -14.029   0.182  1.00  0.00     0.068 A 
HETATM   28  C   UNL     1      39.471 -12.744   0.497  1.00  0.00     0.039 A 
HETATM   29  C   UNL     1      39.279 -12.372   1.836  1.00  0.00     0.032 A 
BRANCH  27  30
HETATM   30  O   UNL     1      40.124 -14.517  -1.076  1.00  0.00    -0.352 OA
BRANCH  30  31
HETATM   31  C   UNL     1      39.377 -13.914  -2.130  1.00  0.00     0.171 C 
HETATM   32  C   UNL     1      38.663 -15.020  -2.887  1.00  0.00     0.034 C 
ENDBRANCH  30  31
ENDBRANCH  27  30
ENDBRANCH  22  24
ENDBRANCH   1  22
TORSDOF 6
ENDMDL
MODEL 2
REMARK VINA RESULT:      -8.7      3.934      7.299
REMARK  6 active torsions:
REMARK  status: ('A' for Active; 'I' for Inactive)
REMARK    1  A    between atoms: C_2  and  O_3 
REMARK    2  A    between atoms: O_3  and  C_4 
REMARK    3  A    between atoms: C_7  and  N_8 
REMARK    4  A    between atoms: N_8  and  C_9 
REMARK    5  A    between atoms: C_10  and  C_11 
REMARK    6  A    between atoms: C_14  and  C_15 
ROOT
HETATM    1  C   UNL     1      39.768 -14.633   2.249  1.00  0.00     0.113 C 
HETATM    2  C   UNL     1      39.879 -13.405   1.703  1.00  0.00     0.082 C 
HETATM    3  C   UNL     1      39.514 -13.197   0.242  1.00  0.00     0.024 C 
HETATM    4  N   UNL     1      39.212 -13.025  -0.971  1.00  0.00    -0.096 N 
ENDROOT
BRANCH   2   5
HETATM    5  C   UNL     1      40.392 -12.298   2.463  1.00  0.00     0.119 A 
HETATM    6  S   UNL     1      39.749 -10.698   2.236  1.00  0.00    -0.078 SA
HETATM    7  C   UNL     1      40.830 -10.079   3.405  1.00  0.00     0.084 A 
HETATM    8  C   UNL     1      41.605 -11.093   3.920  1.00  0.00     0.081 A 
HETATM    9  N   UNL     1      41.345 -12.351   3.385  1.00  0.00    -0.239 NA
BRANCH   8  10
HETATM   10  C   UNL     1      42.666 -10.958   4.886  1.00  0.00     0.070 A 
HETATM   11  C   UNL     1      44.074 -11.292   4.496  1.00  0.00     0.301 A 
HETATM   12  O   UNL     1      44.390 -11.625   3.358  1.00  0.00    -0.259 OA
HETATM   13  O   UNL     1      45.050 -11.213   5.488  1.00  0.00    -0.274 OA
HETATM   14  C   UNL     1      44.755 -10.791   6.794  1.00  0.00     0.089 A 
HETATM   15  C   UNL     1      43.458 -10.438   7.144  1.00  0.00     0.000 A 
HETATM   16  C   UNL     1      45.804 -10.741   7.708  1.00  0.00     0.039 A 
HETATM   17  C   UNL     1      43.202 -10.019   8.452  1.00  0.00     0.033 A 
HETATM   18  C   UNL     1      42.414 -10.540   6.141  1.00  0.00     0.034 A 
HETATM   19  C   UNL     1      44.247  -9.964   9.378  1.00  0.00     0.012 A 
HETATM   20  C   UNL     1      45.547 -10.324   9.013  1.00  0.00     0.022 A 
HETATM   21 BR   UNL     1      43.898  -9.400  11.149  1.00  0.00    -0.051 Br
ENDBRANCH   8  10
ENDBRANCH   2   5
BRANCH   1  22
HETATM   22  N   UNL     1      40.129 -15.019   3.520  1.00  0.00    -0.364 N 
HETATM   23  H   UNL     1      39.461 -14.753   4.249  1.00  0.00     0.165 HD
BRANCH  22  24
HETATM   24  C   UNL     1      41.177 -15.846   3.949  1.00  0.00     0.032 A 
HETATM   25  C   UNL     1      41.958 -16.489   2.978  1.00  0.00     0.032 A 
HETATM   26  C   UNL     1      43.006 -17.339   3.339  1.00  0.00     0.039 A 
HETATM   27  C   UNL     1      43.302 -17.563   4.682  1.00  0.00     0.068 A 
HETATM   28  C   UNL     1      42.513 -16.961   5.660  1.00  0.00     0.039 A 
HETATM   29  C   UNL     1      41.454 -16.117   5.293  1.00  0.00     0.032 A 
BRANCH  27  30
HETATM   30  O   UNL     1      44.364 -18.393   4.906  1.00  0.00    -0.352 OA
BRANCH  30  31
HETATM   31  C   UNL     1      44.284 -19.698   4.335  1.00  0.00     0.171 C 
HETATM   32  C   UNL     1      43.975 -20.678   5.453  1.00  0.00     0.034 C 
ENDBRANCH  30  31
ENDBRANCH  27  30
ENDBRANCH  22  24
ENDBRANCH   1  22
TORSDOF 6
ENDMDL
MODEL 3
REMARK VINA RESULT:      -8.5      4.341      7.314
REMARK  6 active torsions:
REMARK  status: ('A' for Active; 'I' for Inactive)
REMARK    1  A    between atoms: C_2  and  O_3 
REMARK    2  A    between atoms: O_3  and  C_4 
REMARK    3  A    between atoms: C_7  and  N_8 
REMARK    4  A    between atoms: N_8  and  C_9 
REMARK    5  A    between atoms: C_10  and  C_11 
REMARK    6  A    between atoms: C_14  and  C_15 
ROOT
HETATM    1  C   UNL     1      39.616 -13.494   3.553  1.00  0.00     0.113 C 
HETATM    2  C   UNL     1      40.116 -12.260   3.344  1.00  0.00     0.082 C 
HETATM    3  C   UNL     1      39.403 -11.312   2.393  1.00  0.00     0.024 C 
HETATM    4  N   UNL     1      38.813 -10.525   1.603  1.00  0.00    -0.096 N 
ENDROOT
BRANCH   2   5
HETATM    5  C   UNL     1      41.346 -11.843   3.960  1.00  0.00     0.119 A 
HETATM    6  S   UNL     1      42.813 -11.748   3.030  1.00  0.00    -0.078 SA
HETATM    7  C   UNL     1      43.677 -11.237   4.412  1.00  0.00     0.084 A 
HETATM    8  C   UNL     1      42.831 -11.146   5.494  1.00  0.00     0.081 A 
HETATM    9  N   UNL     1      41.509 -11.483   5.228  1.00  0.00    -0.239 NA
BRANCH   8  10
HETATM   10  C   UNL     1      43.199 -10.800   6.844  1.00  0.00     0.070 A 
HETATM   11  C   UNL     1      44.105 -11.705   7.623  1.00  0.00     0.301 A 
HETATM   12  O   UNL     1      44.610 -12.716   7.144  1.00  0.00    -0.259 OA
HETATM   13  O   UNL     1      44.371 -11.361   8.947  1.00  0.00    -0.274 OA
HETATM   14  C   UNL     1      43.861 -10.192   9.532  1.00  0.00     0.089 A 
HETATM   15  C   UNL     1      43.058  -9.329   8.797  1.00  0.00     0.000 A 
HETATM   16  C   UNL     1      44.192  -9.937  10.861  1.00  0.00     0.039 A 
HETATM   17  C   UNL     1      42.571  -8.172   9.410  1.00  0.00     0.033 A 
HETATM   18  C   UNL     1      42.737  -9.676   7.425  1.00  0.00     0.034 A 
HETATM   19  C   UNL     1      42.897  -7.906  10.743  1.00  0.00     0.012 A 
HETATM   20  C   UNL     1      43.704  -8.783  11.471  1.00  0.00     0.022 A 
HETATM   21 BR   UNL     1      42.235  -6.341  11.572  1.00  0.00    -0.051 Br
ENDBRANCH   8  10
ENDBRANCH   2   5
BRANCH   1  22
HETATM   22  N   UNL     1      40.168 -14.503   4.309  1.00  0.00    -0.364 N 
HETATM   23  H   UNL     1      39.693 -14.674   5.200  1.00  0.00     0.165 HD
BRANCH  22  24
HETATM   24  C   UNL     1      41.169 -15.430   3.984  1.00  0.00     0.032 A 
HETATM   25  C   UNL     1      41.138 -16.025   2.715  1.00  0.00     0.032 A 
HETATM   26  C   UNL     1      42.096 -16.968   2.335  1.00  0.00     0.039 A 
HETATM   27  C   UNL     1      43.113 -17.335   3.214  1.00  0.00     0.068 A 
HETATM   28  C   UNL     1      43.137 -16.780   4.491  1.00  0.00     0.039 A 
HETATM   29  C   UNL     1      42.166 -15.842   4.874  1.00  0.00     0.032 A 
BRANCH  27  30
HETATM   30  O   UNL     1      44.002 -18.246   2.718  1.00  0.00    -0.352 OA
BRANCH  30  31
HETATM   31  C   UNL     1      43.813 -19.603   3.116  1.00  0.00     0.171 C 
HETATM   32  C   UNL     1      43.545 -20.422   1.866  1.00  0.00     0.034 C 
ENDBRANCH  30  31
ENDBRANCH  27  30
ENDBRANCH  22  24
ENDBRANCH   1  22
TORSDOF 6
ENDMDL
MODEL 4
REMARK VINA RESULT:      -8.3      3.053      6.988
REMARK  6 active torsions:
REMARK  status: ('A' for Active; 'I' for Inactive)
REMARK    1  A    between atoms: C_2  and  O_3 
REMARK    2  A    between atoms: O_3  and  C_4 
REMARK    3  A    between atoms: C_7  and  N_8 
REMARK    4  A    between atoms: N_8  and  C_9 
REMARK    5  A    between atoms: C_10  and  C_11 
REMARK    6  A    between atoms: C_14  and  C_15 
ROOT
HETATM    1  C   UNL     1      43.170 -13.873   6.859  1.00  0.00     0.113 C 
HETATM    2  C   UNL     1      42.721 -12.706   6.357  1.00  0.00     0.082 C 
HETATM    3  C   UNL     1      43.344 -11.399   6.821  1.00  0.00     0.024 C 
HETATM    4  N   UNL     1      43.861 -10.315   7.207  1.00  0.00    -0.096 N 
ENDROOT
BRANCH   2   5
HETATM    5  C   UNL     1      41.623 -12.670   5.430  1.00  0.00     0.119 A 
HETATM    6  S   UNL     1      40.002 -12.380   5.992  1.00  0.00    -0.078 SA
HETATM    7  C   UNL     1      39.407 -12.506   4.396  1.00  0.00     0.084 A 
HETATM    8  C   UNL     1      40.442 -12.742   3.520  1.00  0.00     0.081 A 
HETATM    9  N   UNL     1      41.697 -12.825   4.114  1.00  0.00    -0.239 NA
BRANCH   8  10
HETATM   10  C   UNL     1      40.333 -12.960   2.100  1.00  0.00     0.070 A 
HETATM   11  C   UNL     1      40.026 -14.333   1.581  1.00  0.00     0.301 A 
HETATM   12  O   UNL     1      39.801 -15.289   2.316  1.00  0.00    -0.259 OA
HETATM   13  O   UNL     1      40.002 -14.504   0.198  1.00  0.00    -0.274 OA
HETATM   14  C   UNL     1      40.204 -13.437  -0.691  1.00  0.00     0.089 A 
HETATM   15  C   UNL     1      40.443 -12.155  -0.210  1.00  0.00     0.000 A 
HETATM   16  C   UNL     1      40.154 -13.714  -2.055  1.00  0.00     0.039 A 
HETATM   17  C   UNL     1      40.636 -11.116  -1.123  1.00  0.00     0.033 A 
HETATM   18  C   UNL     1      40.506 -11.951   1.226  1.00  0.00     0.034 A 
HETATM   19  C   UNL     1      40.587 -11.382  -2.494  1.00  0.00     0.012 A 
HETATM   20  C   UNL     1      40.347 -12.676  -2.964  1.00  0.00     0.022 A 
HETATM   21 BR   UNL     1      40.851  -9.975  -3.730  1.00  0.00    -0.051 Br
ENDBRANCH   8  10
ENDBRANCH   2   5
BRANCH   1  22
HETATM   22  N   UNL     1      42.674 -15.134   6.617  1.00  0.00    -0.364 N 
HETATM   23  H   UNL     1      41.825 -15.363   7.143  1.00  0.00     0.165 HD
BRANCH  22  24
HETATM   24  C   UNL     1      43.052 -16.085   5.659  1.00  0.00     0.032 A 
HETATM   25  C   UNL     1      44.178 -16.879   5.917  1.00  0.00     0.032 A 
HETATM   26  C   UNL     1      44.617 -17.834   4.996  1.00  0.00     0.039 A 
HETATM   27  C   UNL     1      43.935 -18.021   3.795  1.00  0.00     0.068 A 
HETATM   28  C   UNL     1      42.836 -17.215   3.507  1.00  0.00     0.039 A 
HETATM   29  C   UNL     1      42.406 -16.250   4.429  1.00  0.00     0.032 A 
BRANCH  27  30
HETATM   30  O   UNL     1      44.447 -18.999   2.990  1.00  0.00    -0.352 OA
BRANCH  30  31
HETATM   31  C   UNL     1      43.730 -20.232   2.951  1.00  0.00     0.171 C 
HETATM   32  C   UNL     1      43.375 -20.519   1.503  1.00  0.00     0.034 C 
ENDBRANCH  30  31
ENDBRANCH  27  30
ENDBRANCH  22  24
ENDBRANCH   1  22
TORSDOF 6
ENDMDL
MODEL 5
REMARK VINA RESULT:      -8.3      3.882      6.770
REMARK  6 active torsions:
REMARK  status: ('A' for Active; 'I' for Inactive)
REMARK    1  A    between atoms: C_2  and  O_3 
REMARK    2  A    between atoms: O_3  and  C_4 
REMARK    3  A    between atoms: C_7  and  N_8 
REMARK    4  A    between atoms: N_8  and  C_9 
REMARK    5  A    between atoms: C_10  and  C_11 
REMARK    6  A    between atoms: C_14  and  C_15 
ROOT
HETATM    1  C   UNL     1      43.592 -17.676   2.036  1.00  0.00     0.113 C 
HETATM    2  C   UNL     1      43.631 -18.279   3.241  1.00  0.00     0.082 C 
HETATM    3  C   UNL     1      43.744 -19.793   3.319  1.00  0.00     0.024 C 
HETATM    4  N   UNL     1      43.837 -21.049   3.385  1.00  0.00    -0.096 N 
ENDROOT
BRANCH   2   5
HETATM    5  C   UNL     1      43.510 -17.520   4.456  1.00  0.00     0.119 A 
HETATM    6  S   UNL     1      43.588 -18.310   6.003  1.00  0.00    -0.078 SA
HETATM    7  C   UNL     1      43.364 -16.815   6.798  1.00  0.00     0.084 A 
HETATM    8  C   UNL     1      43.258 -15.798   5.876  1.00  0.00     0.081 A 
HETATM    9  N   UNL     1      43.350 -16.205   4.549  1.00  0.00    -0.239 NA
BRANCH   8  10
HETATM   10  C   UNL     1      43.010 -14.407   6.158  1.00  0.00     0.070 A 
HETATM   11  C   UNL     1      41.683 -13.802   5.807  1.00  0.00     0.301 A 
HETATM   12  O   UNL     1      40.757 -14.455   5.336  1.00  0.00    -0.259 OA
HETATM   13  O   UNL     1      41.521 -12.437   6.034  1.00  0.00    -0.274 OA
HETATM   14  C   UNL     1      42.528 -11.651   6.614  1.00  0.00     0.089 A 
HETATM   15  C   UNL     1      43.741 -12.220   6.982  1.00  0.00     0.000 A 
HETATM   16  C   UNL     1      42.262 -10.297   6.804  1.00  0.00     0.039 A 
HETATM   17  C   UNL     1      44.720 -11.409   7.561  1.00  0.00     0.033 A 
HETATM   18  C   UNL     1      43.952 -13.634   6.729  1.00  0.00     0.034 A 
HETATM   19  C   UNL     1      44.464 -10.049   7.757  1.00  0.00     0.012 A 
HETATM   20  C   UNL     1      43.241  -9.489   7.381  1.00  0.00     0.022 A 
HETATM   21 BR   UNL     1      45.791  -8.951   8.538  1.00  0.00    -0.051 Br
ENDBRANCH   8  10
ENDBRANCH   2   5
BRANCH   1  22
HETATM   22  N   UNL     1      43.411 -16.336   1.777  1.00  0.00    -0.364 N 
HETATM   23  H   UNL     1      44.224 -15.870   1.362  1.00  0.00     0.165 HD
BRANCH  22  24
HETATM   24  C   UNL     1      42.249 -15.553   1.843  1.00  0.00     0.032 A 
HETATM   25  C   UNL     1      42.388 -14.158   1.878  1.00  0.00     0.032 A 
HETATM   26  C   UNL     1      41.272 -13.322   1.960  1.00  0.00     0.039 A 
HETATM   27  C   UNL     1      39.988 -13.861   2.003  1.00  0.00     0.068 A 
HETATM   28  C   UNL     1      39.834 -15.245   2.006  1.00  0.00     0.039 A 
HETATM   29  C   UNL     1      40.958 -16.082   1.935  1.00  0.00     0.032 A 
BRANCH  27  30
HETATM   30  O   UNL     1      38.979 -12.941   2.057  1.00  0.00    -0.352 OA
BRANCH  30  31
HETATM   31  C   UNL     1      39.108 -11.911   3.036  1.00  0.00     0.171 C 
HETATM   32  C   UNL     1      38.351 -10.694   2.534  1.00  0.00     0.034 C 
ENDBRANCH  30  31
ENDBRANCH  27  30
ENDBRANCH  22  24
ENDBRANCH   1  22
TORSDOF 6
ENDMDL
MODEL 6
REMARK VINA RESULT:      -8.0      3.626      6.741
REMARK  6 active torsions:
REMARK  status: ('A' for Active; 'I' for Inactive)
REMARK    1  A    between atoms: C_2  and  O_3 
REMARK    2  A    between atoms: O_3  and  C_4 
REMARK    3  A    between atoms: C_7  and  N_8 
REMARK    4  A    between atoms: N_8  and  C_9 
REMARK    5  A    between atoms: C_10  and  C_11 
REMARK    6  A    between atoms: C_14  and  C_15 
ROOT
HETATM    1  C   UNL     1      43.757 -17.985   2.931  1.00  0.00     0.113 C 
HETATM    2  C   UNL     1      43.743 -18.048   4.277  1.00  0.00     0.082 C 
HETATM    3  C   UNL     1      43.825 -19.401   4.966  1.00  0.00     0.024 C 
HETATM    4  N   UNL     1      43.893 -20.524   5.537  1.00  0.00    -0.096 N 
ENDROOT
BRANCH   2   5
HETATM    5  C   UNL     1      43.592 -16.862   5.075  1.00  0.00     0.119 A 
HETATM    6  S   UNL     1      44.763 -16.465   6.298  1.00  0.00    -0.078 SA
HETATM    7  C   UNL     1      43.882 -15.061   6.711  1.00  0.00     0.084 A 
HETATM    8  C   UNL     1      42.769 -14.946   5.909  1.00  0.00     0.081 A 
HETATM    9  N   UNL     1      42.616 -15.968   4.978  1.00  0.00    -0.239 NA
BRANCH   8  10
HETATM   10  C   UNL     1      41.755 -13.925   5.990  1.00  0.00     0.070 A 
HETATM   11  C   UNL     1      40.355 -14.297   6.378  1.00  0.00     0.301 A 
HETATM   12  O   UNL     1      40.032 -15.438   6.693  1.00  0.00    -0.259 OA
HETATM   13  O   UNL     1      39.398 -13.284   6.371  1.00  0.00    -0.274 OA
HETATM   14  C   UNL     1      39.720 -11.953   6.065  1.00  0.00     0.089 A 
HETATM   15  C   UNL     1      41.027 -11.599   5.751  1.00  0.00     0.000 A 
HETATM   16  C   UNL     1      38.690 -11.017   6.093  1.00  0.00     0.039 A 
HETATM   17  C   UNL     1      41.313 -10.264   5.457  1.00  0.00     0.033 A 
HETATM   18  C   UNL     1      42.041 -12.638   5.719  1.00  0.00     0.034 A 
HETATM   19  C   UNL     1      40.287  -9.316   5.482  1.00  0.00     0.012 A 
HETATM   20  C   UNL     1      38.978  -9.685   5.798  1.00  0.00     0.022 A 
HETATM   21 BR   UNL     1      40.675  -7.509   5.080  1.00  0.00    -0.051 Br
ENDBRANCH   8  10
ENDBRANCH   2   5
BRANCH   1  22
HETATM   22  N   UNL     1      43.610 -16.864   2.145  1.00  0.00    -0.364 N 
HETATM   23  H   UNL     1      44.393 -16.686   1.510  1.00  0.00     0.165 HD
BRANCH  22  24
HETATM   24  C   UNL     1      42.499 -16.028   1.965  1.00  0.00     0.032 A 
HETATM   25  C   UNL     1      42.720 -14.653   1.803  1.00  0.00     0.032 A 
HETATM   26  C   UNL     1      41.655 -13.763   1.636  1.00  0.00     0.039 A 
HETATM   27  C   UNL     1      40.342 -14.229   1.620  1.00  0.00     0.068 A 
HETATM   28  C   UNL     1      40.103 -15.588   1.816  1.00  0.00     0.039 A 
HETATM   29  C   UNL     1      41.174 -16.476   1.995  1.00  0.00     0.032 A 
BRANCH  27  30
HETATM   30  O   UNL     1      39.393 -13.267   1.425  1.00  0.00    -0.352 OA
BRANCH  30  31
HETATM   31  C   UNL     1      38.952 -12.563   2.584  1.00  0.00     0.171 C 
HETATM   32  C   UNL     1      39.153 -11.079   2.332  1.00  0.00     0.034 C 
ENDBRANCH  30  31
ENDBRANCH  27  30
ENDBRANCH  22  24
ENDBRANCH   1  22
TORSDOF 6
ENDMDL
MODEL 7
REMARK VINA RESULT:      -7.9      3.693      7.344
REMARK  6 active torsions:
REMARK  status: ('A' for Active; 'I' for Inactive)
REMARK    1  A    between atoms: C_2  and  O_3 
REMARK    2  A    between atoms: O_3  and  C_4 
REMARK    3  A    between atoms: C_7  and  N_8 
REMARK    4  A    between atoms: N_8  and  C_9 
REMARK    5  A    between atoms: C_10  and  C_11 
REMARK    6  A    between atoms: C_14  and  C_15 
ROOT
HETATM    1  C   UNL     1      42.648  -9.883   6.522  1.00  0.00     0.113 C 
HETATM    2  C   UNL     1      41.927 -10.484   5.555  1.00  0.00     0.082 C 
HETATM    3  C   UNL     1      41.536  -9.700   4.312  1.00  0.00     0.024 C 
HETATM    4  N   UNL     1      41.212  -9.049   3.281  1.00  0.00    -0.096 N 
ENDROOT
BRANCH   2   5
HETATM    5  C   UNL     1      41.469 -11.838   5.703  1.00  0.00     0.119 A 
HETATM    6  S   UNL     1      39.811 -12.172   6.107  1.00  0.00    -0.078 SA
HETATM    7  C   UNL     1      40.126 -13.851   6.092  1.00  0.00     0.084 A 
HETATM    8  C   UNL     1      41.444 -14.084   5.772  1.00  0.00     0.081 A 
HETATM    9  N   UNL     1      42.198 -12.937   5.545  1.00  0.00    -0.239 NA
BRANCH   8  10
HETATM   10  C   UNL     1      42.100 -15.366   5.713  1.00  0.00     0.070 A 
HETATM   11  C   UNL     1      42.732 -15.935   6.948  1.00  0.00     0.301 A 
HETATM   12  O   UNL     1      42.669 -15.385   8.043  1.00  0.00    -0.259 OA
HETATM   13  O   UNL     1      43.415 -17.143   6.819  1.00  0.00    -0.274 OA
HETATM   14  C   UNL     1      43.478 -17.840   5.603  1.00  0.00     0.089 A 
HETATM   15  C   UNL     1      42.853 -17.336   4.469  1.00  0.00     0.000 A 
HETATM   16  C   UNL     1      44.180 -19.043   5.584  1.00  0.00     0.039 A 
HETATM   17  C   UNL     1      42.933 -18.059   3.276  1.00  0.00     0.033 A 
HETATM   18  C   UNL     1      42.161 -16.063   4.564  1.00  0.00     0.034 A 
HETATM   19  C   UNL     1      43.635 -19.266   3.245  1.00  0.00     0.012 A 
HETATM   20  C   UNL     1      44.259 -19.762   4.392  1.00  0.00     0.022 A 
HETATM   21 BR   UNL     1      43.744 -20.242   1.629  1.00  0.00    -0.051 Br
ENDBRANCH   8  10
ENDBRANCH   2   5
BRANCH   1  22
HETATM   22  N   UNL     1      43.017 -10.409   7.739  1.00  0.00    -0.364 N 
HETATM   23  H   UNL     1      43.375 -11.368   7.697  1.00  0.00     0.165 HD
BRANCH  22  24
HETATM   24  C   UNL     1      43.128  -9.791   8.993  1.00  0.00     0.032 A 
HETATM   25  C   UNL     1      43.818 -10.465  10.009  1.00  0.00     0.032 A 
HETATM   26  C   UNL     1      43.951  -9.912  11.286  1.00  0.00     0.039 A 
HETATM   27  C   UNL     1      43.401  -8.665  11.574  1.00  0.00     0.068 A 
HETATM   28  C   UNL     1      42.681  -7.997  10.587  1.00  0.00     0.039 A 
HETATM   29  C   UNL     1      42.540  -8.562   9.310  1.00  0.00     0.032 A 
BRANCH  27  30
HETATM   30  O   UNL     1      43.619  -8.221  12.848  1.00  0.00    -0.352 OA
BRANCH  30  31
HETATM   31  C   UNL     1      42.492  -7.684  13.537  1.00  0.00     0.171 C 
HETATM   32  C   UNL     1      41.969  -8.753  14.480  1.00  0.00     0.034 C 
ENDBRANCH  30  31
ENDBRANCH  27  30
ENDBRANCH  22  24
ENDBRANCH   1  22
TORSDOF 6
ENDMDL
MODEL 8
REMARK VINA RESULT:      -7.9      2.097      2.703
REMARK  6 active torsions:
REMARK  status: ('A' for Active; 'I' for Inactive)
REMARK    1  A    between atoms: C_2  and  O_3 
REMARK    2  A    between atoms: O_3  and  C_4 
REMARK    3  A    between atoms: C_7  and  N_8 
REMARK    4  A    between atoms: N_8  and  C_9 
REMARK    5  A    between atoms: C_10  and  C_11 
REMARK    6  A    between atoms: C_14  and  C_15 
ROOT
HETATM    1  C   UNL     1      40.595  -9.549   4.762  1.00  0.00     0.113 C 
HETATM    2  C   UNL     1      40.878 -10.254   5.875  1.00  0.00     0.082 C 
HETATM    3  C   UNL     1      40.178  -9.910   7.180  1.00  0.00     0.024 C 
HETATM    4  N   UNL     1      39.598  -9.625   8.264  1.00  0.00    -0.096 N 
ENDROOT
BRANCH   2   5
HETATM    5  C   UNL     1      41.874 -11.289   5.865  1.00  0.00     0.119 A 
HETATM    6  S   UNL     1      43.287 -11.168   6.872  1.00  0.00    -0.078 SA
HETATM    7  C   UNL     1      43.864 -12.660   6.276  1.00  0.00     0.084 A 
HETATM    8  C   UNL     1      42.972 -13.186   5.369  1.00  0.00     0.081 A 
HETATM    9  N   UNL     1      41.841 -12.406   5.147  1.00  0.00    -0.239 NA
BRANCH   8  10
HETATM   10  C   UNL     1      43.132 -14.402   4.613  1.00  0.00     0.070 A 
HETATM   11  C   UNL     1      42.982 -14.376   3.121  1.00  0.00     0.301 A 
HETATM   12  O   UNL     1      42.784 -13.343   2.489  1.00  0.00    -0.259 OA
HETATM   13  O   UNL     1      43.076 -15.592   2.446  1.00  0.00    -0.274 OA
HETATM   14  C   UNL     1      43.349 -16.797   3.112  1.00  0.00     0.089 A 
HETATM   15  C   UNL     1      43.534 -16.815   4.488  1.00  0.00     0.000 A 
HETATM   16  C   UNL     1      43.428 -17.955   2.343  1.00  0.00     0.039 A 
HETATM   17  C   UNL     1      43.808 -18.032   5.117  1.00  0.00     0.033 A 
HETATM   18  C   UNL     1      43.410 -15.569   5.224  1.00  0.00     0.034 A 
HETATM   19  C   UNL     1      43.890 -19.200   4.356  1.00  0.00     0.012 A 
HETATM   20  C   UNL     1      43.702 -19.168   2.972  1.00  0.00     0.022 A 
HETATM   21 BR   UNL     1      44.259 -20.848   5.209  1.00  0.00    -0.051 Br
ENDBRANCH   8  10
ENDBRANCH   2   5
BRANCH   1  22
HETATM   22  N   UNL     1      41.186  -9.665   3.525  1.00  0.00    -0.364 N 
HETATM   23  H   UNL     1      42.123  -9.256   3.463  1.00  0.00     0.165 HD
BRANCH  22  24
HETATM   24  C   UNL     1      40.779 -10.386   2.394  1.00  0.00     0.032 A 
HETATM   25  C   UNL     1      39.661 -11.225   2.506  1.00  0.00     0.032 A 
HETATM   26  C   UNL     1      39.213 -11.984   1.421  1.00  0.00     0.039 A 
HETATM   27  C   UNL     1      39.870 -11.916   0.194  1.00  0.00     0.068 A 
HETATM   28  C   UNL     1      41.003 -11.115   0.076  1.00  0.00     0.039 A 
HETATM   29  C   UNL     1      41.457 -10.364   1.170  1.00  0.00     0.032 A 
BRANCH  27  30
HETATM   30  O   UNL     1      39.322 -12.683  -0.794  1.00  0.00    -0.352 OA
BRANCH  30  31
HETATM   31  C   UNL     1      39.886 -13.980  -0.980  1.00  0.00     0.171 C 
HETATM   32  C   UNL     1      39.032 -14.719  -1.995  1.00  0.00     0.034 C 
ENDBRANCH  30  31
ENDBRANCH  27  30
ENDBRANCH  22  24
ENDBRANCH   1  22
TORSDOF 6
ENDMDL
MODEL 9
REMARK VINA RESULT:      -7.9      3.093      7.427
REMARK  6 active torsions:
REMARK  status: ('A' for Active; 'I' for Inactive)
REMARK    1  A    between atoms: C_2  and  O_3 
REMARK    2  A    between atoms: O_3  and  C_4 
REMARK    3  A    between atoms: C_7  and  N_8 
REMARK    4  A    between atoms: N_8  and  C_9 
REMARK    5  A    between atoms: C_10  and  C_11 
REMARK    6  A    between atoms: C_14  and  C_15 
ROOT
HETATM    1  C   UNL     1      42.085 -12.994   6.327  1.00  0.00     0.113 C 
HETATM    2  C   UNL     1      41.187 -12.290   5.610  1.00  0.00     0.082 C 
HETATM    3  C   UNL     1      39.964 -11.709   6.302  1.00  0.00     0.024 C 
HETATM    4  N   UNL     1      38.949 -11.227   6.875  1.00  0.00    -0.096 N 
ENDROOT
BRANCH   2   5
HETATM    5  C   UNL     1      41.334 -12.127   4.190  1.00  0.00     0.119 A 
HETATM    6  S   UNL     1      42.596 -11.121   3.541  1.00  0.00    -0.078 SA
HETATM    7  C   UNL     1      42.074 -11.459   1.951  1.00  0.00     0.084 A 
HETATM    8  C   UNL     1      40.997 -12.316   1.977  1.00  0.00     0.081 A 
HETATM    9  N   UNL     1      40.588 -12.697   3.251  1.00  0.00    -0.239 NA
BRANCH   8  10
HETATM   10  C   UNL     1      40.248 -12.788   0.840  1.00  0.00     0.070 A 
HETATM   11  C   UNL     1      40.532 -14.147   0.274  1.00  0.00     0.301 A 
HETATM   12  O   UNL     1      41.345 -14.920   0.772  1.00  0.00    -0.259 OA
HETATM   13  O   UNL     1      39.829 -14.524  -0.869  1.00  0.00    -0.274 OA
HETATM   14  C   UNL     1      38.854 -13.702  -1.453  1.00  0.00     0.089 A 
HETATM   15  C   UNL     1      38.557 -12.461  -0.902  1.00  0.00     0.000 A 
HETATM   16  C   UNL     1      38.205 -14.177  -2.590  1.00  0.00     0.039 A 
HETATM   17  C   UNL     1      37.578 -11.670  -1.507  1.00  0.00     0.033 A 
HETATM   18  C   UNL     1      39.295 -12.026   0.270  1.00  0.00     0.034 A 
HETATM   19  C   UNL     1      36.920 -12.137  -2.648  1.00  0.00     0.012 A 
HETATM   20  C   UNL     1      37.228 -13.386  -3.192  1.00  0.00     0.022 A 
HETATM   21 BR   UNL     1      35.595 -11.063  -3.467  1.00  0.00    -0.051 Br
ENDBRANCH   8  10
ENDBRANCH   2   5
BRANCH   1  22
HETATM   22  N   UNL     1      43.197 -13.656   5.857  1.00  0.00    -0.364 N 
HETATM   23  H   UNL     1      44.074 -13.137   5.960  1.00  0.00     0.165 HD
BRANCH  22  24
HETATM   24  C   UNL     1      43.339 -14.977   5.410  1.00  0.00     0.032 A 
HETATM   25  C   UNL     1      42.962 -15.279   4.094  1.00  0.00     0.032 A 
HETATM   26  C   UNL     1      43.063 -16.579   3.592  1.00  0.00     0.039 A 
HETATM   27  C   UNL     1      43.551 -17.609   4.393  1.00  0.00     0.068 A 
HETATM   28  C   UNL     1      43.895 -17.334   5.715  1.00  0.00     0.039 A 
HETATM   29  C   UNL     1      43.781 -16.029   6.219  1.00  0.00     0.032 A 
BRANCH  27  30
HETATM   30  O   UNL     1      43.625 -18.828   3.782  1.00  0.00    -0.352 OA
BRANCH  30  31
HETATM   31  C   UNL     1      43.205 -18.884   2.420  1.00  0.00     0.171 C 
HETATM   32  C   UNL     1      43.527 -20.270   1.890  1.00  0.00     0.034 C 
ENDBRANCH  30  31
ENDBRANCH  27  30
ENDBRANCH  22  24
ENDBRANCH   1  22
TORSDOF 6
ENDMDL
MODEL 10
REMARK VINA RESULT:      -7.7      2.049      2.548
REMARK  6 active torsions:
REMARK  status: ('A' for Active; 'I' for Inactive)
REMARK    1  A    between atoms: C_2  and  O_3 
REMARK    2  A    between atoms: O_3  and  C_4 
REMARK    3  A    between atoms: C_7  and  N_8 
REMARK    4  A    between atoms: N_8  and  C_9 
REMARK    5  A    between atoms: C_10  and  C_11 
REMARK    6  A    between atoms: C_14  and  C_15 
ROOT
HETATM    1  C   UNL     1      41.437  -9.850   2.308  1.00  0.00     0.113 C 
HETATM    2  C   UNL     1      41.205  -9.975   3.629  1.00  0.00     0.082 C 
HETATM    3  C   UNL     1      41.210  -8.738   4.513  1.00  0.00     0.024 C 
HETATM    4  N   UNL     1      41.215  -7.711   5.247  1.00  0.00    -0.096 N 
ENDROOT
BRANCH   2   5
HETATM    5  C   UNL     1      41.010 -11.266   4.230  1.00  0.00     0.119 A 
HETATM    6  S   UNL     1      39.587 -11.596   5.174  1.00  0.00    -0.078 SA
HETATM    7  C   UNL     1      40.134 -13.186   5.476  1.00  0.00     0.084 A 
HETATM    8  C   UNL     1      41.340 -13.401   4.848  1.00  0.00     0.081 A 
HETATM    9  N   UNL     1      41.827 -12.309   4.137  1.00  0.00    -0.239 NA
BRANCH   8  10
HETATM   10  C   UNL     1      42.140 -14.597   4.912  1.00  0.00     0.070 A 
HETATM   11  C   UNL     1      43.117 -14.779   6.034  1.00  0.00     0.301 A 
HETATM   12  O   UNL     1      43.234 -13.975   6.953  1.00  0.00    -0.259 OA
HETATM   13  O   UNL     1      43.917 -15.921   6.009  1.00  0.00    -0.274 OA
HETATM   14  C   UNL     1      43.793 -16.898   5.009  1.00  0.00     0.089 A 
HETATM   15  C   UNL     1      42.855 -16.753   3.994  1.00  0.00     0.000 A 
HETATM   16  C   UNL     1      44.636 -18.004   5.080  1.00  0.00     0.039 A 
HETATM   17  C   UNL     1      42.757 -17.747   3.018  1.00  0.00     0.033 A 
HETATM   18  C   UNL     1      42.030 -15.559   3.975  1.00  0.00     0.034 A 
HETATM   19  C   UNL     1      43.597 -18.861   3.079  1.00  0.00     0.012 A 
HETATM   20  C   UNL     1      44.536 -18.995   4.105  1.00  0.00     0.022 A 
HETATM   21 BR   UNL     1      43.464 -20.206   1.756  1.00  0.00    -0.051 Br
ENDBRANCH   8  10
ENDBRANCH   2   5
BRANCH   1  22
HETATM   22  N   UNL     1      41.551 -10.859   1.379  1.00  0.00    -0.364 N 
HETATM   23  H   UNL     1      42.344 -11.489   1.532  1.00  0.00     0.165 HD
BRANCH  22  24
HETATM   24  C   UNL     1      40.670 -11.253   0.361  1.00  0.00     0.032 A 
HETATM   25  C   UNL     1      41.212 -11.668  -0.864  1.00  0.00     0.032 A 
HETATM   26  C   UNL     1      40.390 -12.057  -1.924  1.00  0.00     0.039 A 
HETATM   27  C   UNL     1      39.004 -12.045  -1.784  1.00  0.00     0.068 A 
HETATM   28  C   UNL     1      38.448 -11.600  -0.586  1.00  0.00     0.039 A 
HETATM   29  C   UNL     1      39.277 -11.199   0.472  1.00  0.00     0.032 A 
BRANCH  27  30
HETATM   30  O   UNL     1      38.310 -12.470  -2.881  1.00  0.00    -0.352 OA
BRANCH  30  31
HETATM   31  C   UNL     1      37.553 -13.670  -2.731  1.00  0.00     0.171 C 
HETATM   32  C   UNL     1      38.225 -14.751  -3.559  1.00  0.00     0.034 C 
ENDBRANCH  30  31
ENDBRANCH  27  30
ENDBRANCH  22  24
ENDBRANCH   1  22
TORSDOF 6
ENDMDL
