MODEL 1
REMARK VINA RESULT:      -7.9      0.000      0.000
REMARK  6 active torsions:
REMARK  status: ('A' for Active; 'I' for Inactive)
REMARK    1  A    between atoms: C_9  and  C_10 
REMARK       I    between atoms: C_10  and  N_11 
REMARK    2  A    between atoms: N_11  and  C_12 
REMARK    3  A    between atoms: C_12  and  C_13 
REMARK    4  A    between atoms: C_13  and  O_14 
REMARK    5  A    between atoms: C_13  and  C_15 
REMARK    6  A    between atoms: C_18  and  O_19 
ROOT
HETATM    1  C   UNL     1      40.701 -13.771   3.518  1.00  0.00     0.258 C 
HETATM    2  N   UNL     1      41.554 -12.888   4.141  1.00  0.00    -0.350 N 
HETATM    3  O   UNL     1      39.527 -13.502   3.285  1.00  0.00    -0.267 OA
HETATM    4  H   UNL     1      42.480 -13.228   4.398  1.00  0.00     0.163 HD
ENDROOT
BRANCH   2   5
HETATM    5  C   UNL     1      41.104 -11.595   4.660  1.00  0.00     0.114 C 
HETATM    6  C   UNL     1      40.481 -11.797   6.044  1.00  0.00     0.035 C 
BRANCH   5   7
HETATM    7  C   UNL     1      42.272 -10.569   4.646  1.00  0.00     0.173 C 
BRANCH   7   8
HETATM    8  O   UNL     1      43.030 -10.653   3.435  1.00  0.00    -0.389 OA
HETATM    9  H   UNL     1      42.878  -9.823   2.951  1.00  0.00     0.210 HD
ENDBRANCH   7   8
BRANCH   7  10
HETATM   10  C   UNL     1      43.180 -10.679   5.858  1.00  0.00    -0.028 A 
HETATM   11  C   UNL     1      42.967  -9.837   6.958  1.00  0.00     0.012 A 
HETATM   12  C   UNL     1      43.767  -9.942   8.098  1.00  0.00     0.037 A 
HETATM   13  C   UNL     1      44.783 -10.896   8.171  1.00  0.00     0.068 A 
HETATM   14  C   UNL     1      45.008 -11.733   7.078  1.00  0.00     0.037 A 
HETATM   15  C   UNL     1      44.214 -11.623   5.930  1.00  0.00     0.012 A 
BRANCH  13  16
HETATM   16  O   UNL     1      45.478 -10.902   9.348  1.00  0.00    -0.356 OA
HETATM   17  C   UNL     1      45.003 -10.043  10.376  1.00  0.00     0.210 C 
ENDBRANCH  13  16
ENDBRANCH   7  10
ENDBRANCH   5   7
ENDBRANCH   2   5
BRANCH   1  18
HETATM   18  C   UNL     1      41.287 -15.050   3.151  1.00  0.00     0.105 A 
HETATM   19  C   UNL     1      42.254 -15.774   3.826  1.00  0.00     0.169 A 
HETATM   20  N   UNL     1      42.926 -15.525   4.997  1.00  0.00    -0.233 NA
HETATM   21  N   UNL     1      42.488 -16.927   3.065  1.00  0.00    -0.219 N 
HETATM   22  C   UNL     1      43.793 -16.419   5.371  1.00  0.00     0.035 A 
HETATM   23  C   UNL     1      44.568 -16.187   6.641  1.00  0.00     0.070 C 
HETATM   24  C   UNL     1      44.088 -17.688   4.635  1.00  0.00     0.053 A 
HETATM   25  C   UNL     1      43.420 -17.887   3.487  1.00  0.00     0.036 A 
HETATM   26  C   UNL     1      43.623 -19.114   2.649  1.00  0.00     0.070 C 
HETATM   27  N   UNL     1      41.716 -16.954   1.953  1.00  0.00    -0.170 NA
HETATM   28  C   UNL     1      40.987 -15.835   2.007  1.00  0.00     0.071 A 
HETATM   29  C   UNL     1      40.000 -15.543   0.935  1.00  0.00     0.073 C 
ENDBRANCH   1  18
TORSDOF 6
ENDMDL
MODEL 2
REMARK VINA RESULT:      -7.8      4.321      7.680
REMARK  6 active torsions:
REMARK  status: ('A' for Active; 'I' for Inactive)
REMARK    1  A    between atoms: C_9  and  C_10 
REMARK       I    between atoms: C_10  and  N_11 
REMARK    2  A    between atoms: N_11  and  C_12 
REMARK    3  A    between atoms: C_12  and  C_13 
REMARK    4  A    between atoms: C_13  and  O_14 
REMARK    5  A    between atoms: C_13  and  C_15 
REMARK    6  A    between atoms: C_18  and  O_19 
ROOT
HETATM    1  C   UNL     1      39.880 -12.819   2.166  1.00  0.00     0.258 C 
HETATM    2  N   UNL     1      40.923 -13.691   1.951  1.00  0.00    -0.350 N 
HETATM    3  O   UNL     1      39.317 -12.718   3.251  1.00  0.00    -0.267 OA
HETATM    4  H   UNL     1      41.262 -13.794   0.995  1.00  0.00     0.163 HD
ENDROOT
BRANCH   2   5
HETATM    5  C   UNL     1      41.381 -14.634   2.973  1.00  0.00     0.114 C 
HETATM    6  C   UNL     1      40.461 -15.858   2.977  1.00  0.00     0.035 C 
BRANCH   5   7
HETATM    7  C   UNL     1      42.881 -14.983   2.754  1.00  0.00     0.173 C 
BRANCH   7   8
HETATM    8  O   UNL     1      43.276 -14.773   1.395  1.00  0.00    -0.389 OA
HETATM    9  H   UNL     1      42.520 -15.035   0.840  1.00  0.00     0.210 HD
ENDBRANCH   7   8
BRANCH   7  10
HETATM   10  C   UNL     1      43.240 -16.387   3.208  1.00  0.00    -0.028 A 
HETATM   11  C   UNL     1      43.240 -17.435   2.278  1.00  0.00     0.012 A 
HETATM   12  C   UNL     1      43.600 -18.728   2.665  1.00  0.00     0.037 A 
HETATM   13  C   UNL     1      43.980 -18.999   3.979  1.00  0.00     0.068 A 
HETATM   14  C   UNL     1      43.976 -17.965   4.914  1.00  0.00     0.037 A 
HETATM   15  C   UNL     1      43.606 -16.669   4.532  1.00  0.00     0.012 A 
BRANCH  13  16
HETATM   16  O   UNL     1      44.323 -20.301   4.218  1.00  0.00    -0.356 OA
HETATM   17  C   UNL     1      43.978 -20.830   5.491  1.00  0.00     0.210 C 
ENDBRANCH  13  16
ENDBRANCH   7  10
ENDBRANCH   5   7
ENDBRANCH   2   5
BRANCH   1  18
HETATM   18  C   UNL     1      39.488 -12.019   1.016  1.00  0.00     0.105 A 
HETATM   19  C   UNL     1      39.179 -12.452  -0.261  1.00  0.00     0.169 A 
HETATM   20  N   UNL     1      39.144 -13.707  -0.815  1.00  0.00    -0.233 NA
HETATM   21  N   UNL     1      38.877 -11.303  -1.005  1.00  0.00    -0.219 N 
HETATM   22  C   UNL     1      38.809 -13.782  -2.068  1.00  0.00     0.035 A 
HETATM   23  C   UNL     1      38.770 -15.136  -2.727  1.00  0.00     0.070 C 
HETATM   24  C   UNL     1      38.447 -12.613  -2.930  1.00  0.00     0.053 A 
HETATM   25  C   UNL     1      38.508 -11.400  -2.355  1.00  0.00     0.036 A 
HETATM   26  C   UNL     1      38.175 -10.146  -3.106  1.00  0.00     0.070 C 
HETATM   27  N   UNL     1      38.982 -10.182  -0.253  1.00  0.00    -0.170 NA
HETATM   28  C   UNL     1      39.339 -10.609   0.962  1.00  0.00     0.071 A 
HETATM   29  C   UNL     1      39.530  -9.629   2.063  1.00  0.00     0.073 C 
ENDBRANCH   1  18
TORSDOF 6
ENDMDL
MODEL 3
REMARK VINA RESULT:      -7.7      2.644      7.257
REMARK  6 active torsions:
REMARK  status: ('A' for Active; 'I' for Inactive)
REMARK    1  A    between atoms: C_9  and  C_10 
REMARK       I    between atoms: C_10  and  N_11 
REMARK    2  A    between atoms: N_11  and  C_12 
REMARK    3  A    between atoms: C_12  and  C_13 
REMARK    4  A    between atoms: C_13  and  O_14 
REMARK    5  A    between atoms: C_13  and  C_15 
REMARK    6  A    between atoms: C_18  and  O_19 
ROOT
HETATM    1  C   UNL     1      41.586 -13.077   5.591  1.00  0.00     0.258 C 
HETATM    2  N   UNL     1      41.468 -13.115   4.220  1.00  0.00    -0.350 N 
HETATM    3  O   UNL     1      41.700 -14.091   6.272  1.00  0.00    -0.267 OA
HETATM    4  H   UNL     1      41.265 -12.239   3.740  1.00  0.00     0.163 HD
ENDROOT
BRANCH   2   5
HETATM    5  C   UNL     1      41.375 -14.372   3.475  1.00  0.00     0.114 C 
HETATM    6  C   UNL     1      40.252 -14.261   2.439  1.00  0.00     0.035 C 
BRANCH   5   7
HETATM    7  C   UNL     1      42.755 -14.740   2.860  1.00  0.00     0.173 C 
BRANCH   7   8
HETATM    8  O   UNL     1      42.789 -14.482   1.453  1.00  0.00    -0.389 OA
HETATM    9  H   UNL     1      43.562 -13.913   1.292  1.00  0.00     0.210 HD
ENDBRANCH   7   8
BRANCH   7  10
HETATM   10  C   UNL     1      43.179 -16.168   3.155  1.00  0.00    -0.028 A 
HETATM   11  C   UNL     1      43.608 -16.508   4.446  1.00  0.00     0.012 A 
HETATM   12  C   UNL     1      43.970 -17.822   4.751  1.00  0.00     0.037 A 
HETATM   13  C   UNL     1      43.900 -18.824   3.783  1.00  0.00     0.068 A 
HETATM   14  C   UNL     1      43.483 -18.494   2.494  1.00  0.00     0.037 A 
HETATM   15  C   UNL     1      43.128 -17.176   2.183  1.00  0.00     0.012 A 
BRANCH  13  16
HETATM   16  O   UNL     1      44.268 -20.067   4.219  1.00  0.00    -0.356 OA
HETATM   17  C   UNL     1      43.901 -20.413   5.547  1.00  0.00     0.210 C 
ENDBRANCH  13  16
ENDBRANCH   7  10
ENDBRANCH   5   7
ENDBRANCH   2   5
BRANCH   1  18
HETATM   18  C   UNL     1      41.567 -11.748   6.183  1.00  0.00     0.105 A 
HETATM   19  C   UNL     1      42.620 -11.044   6.738  1.00  0.00     0.169 A 
HETATM   20  N   UNL     1      43.946 -11.360   6.894  1.00  0.00    -0.233 NA
HETATM   21  N   UNL     1      42.090  -9.823   7.177  1.00  0.00    -0.219 N 
HETATM   22  C   UNL     1      44.694 -10.466   7.467  1.00  0.00     0.035 A 
HETATM   23  C   UNL     1      46.155 -10.770   7.675  1.00  0.00     0.070 C 
HETATM   24  C   UNL     1      44.220  -9.129   7.944  1.00  0.00     0.053 A 
HETATM   25  C   UNL     1      42.913  -8.863   7.786  1.00  0.00     0.036 A 
HETATM   26  C   UNL     1      42.306  -7.564   8.224  1.00  0.00     0.070 C 
HETATM   27  N   UNL     1      40.763  -9.736   6.923  1.00  0.00    -0.170 NA
HETATM   28  C   UNL     1      40.448 -10.885   6.317  1.00  0.00     0.071 A 
HETATM   29  C   UNL     1      39.051 -11.128   5.872  1.00  0.00     0.073 C 
ENDBRANCH   1  18
TORSDOF 6
ENDMDL
MODEL 4
REMARK VINA RESULT:      -7.6      2.600      7.389
REMARK  6 active torsions:
REMARK  status: ('A' for Active; 'I' for Inactive)
REMARK    1  A    between atoms: C_9  and  C_10 
REMARK       I    between atoms: C_10  and  N_11 
REMARK    2  A    between atoms: N_11  and  C_12 
REMARK    3  A    between atoms: C_12  and  C_13 
REMARK    4  A    between atoms: C_13  and  O_14 
REMARK    5  A    between atoms: C_13  and  C_15 
REMARK    6  A    between atoms: C_18  and  O_19 
ROOT
HETATM    1  C   UNL     1      41.774 -12.427   5.192  1.00  0.00     0.258 C 
HETATM    2  N   UNL     1      42.332 -13.287   4.273  1.00  0.00    -0.350 N 
HETATM    3  O   UNL     1      40.595 -12.092   5.151  1.00  0.00    -0.267 OA
HETATM    4  H   UNL     1      43.342 -13.426   4.311  1.00  0.00     0.163 HD
ENDROOT
BRANCH   2   5
HETATM    5  C   UNL     1      41.588 -13.795   3.120  1.00  0.00     0.114 C 
HETATM    6  C   UNL     1      42.510 -13.826   1.899  1.00  0.00     0.035 C 
BRANCH   5   7
HETATM    7  C   UNL     1      40.949 -15.174   3.453  1.00  0.00     0.173 C 
BRANCH   7   8
HETATM    8  O   UNL     1      40.080 -15.089   4.587  1.00  0.00    -0.389 OA
HETATM    9  H   UNL     1      40.091 -14.161   4.879  1.00  0.00     0.210 HD
ENDBRANCH   7   8
BRANCH   7  10
HETATM   10  C   UNL     1      41.974 -16.278   3.642  1.00  0.00    -0.028 A 
HETATM   11  C   UNL     1      42.430 -16.584   4.931  1.00  0.00     0.012 A 
HETATM   12  C   UNL     1      43.347 -17.618   5.133  1.00  0.00     0.037 A 
HETATM   13  C   UNL     1      43.816 -18.375   4.059  1.00  0.00     0.068 A 
HETATM   14  C   UNL     1      43.374 -18.073   2.772  1.00  0.00     0.037 A 
HETATM   15  C   UNL     1      42.462 -17.031   2.565  1.00  0.00     0.012 A 
BRANCH  13  16
HETATM   16  O   UNL     1      44.696 -19.366   4.399  1.00  0.00    -0.356 OA
HETATM   17  C   UNL     1      44.177 -20.450   5.157  1.00  0.00     0.210 C 
ENDBRANCH  13  16
ENDBRANCH   7  10
ENDBRANCH   5   7
ENDBRANCH   2   5
BRANCH   1  18
HETATM   18  C   UNL     1      42.679 -11.939   6.221  1.00  0.00     0.105 A 
HETATM   19  C   UNL     1      42.771 -10.662   6.744  1.00  0.00     0.169 A 
HETATM   20  N   UNL     1      42.071  -9.514   6.473  1.00  0.00    -0.233 NA
HETATM   21  N   UNL     1      43.800 -10.699   7.696  1.00  0.00    -0.219 N 
HETATM   22  C   UNL     1      42.405  -8.455   7.149  1.00  0.00     0.035 A 
HETATM   23  C   UNL     1      41.676  -7.164   6.878  1.00  0.00     0.070 C 
HETATM   24  C   UNL     1      43.470  -8.409   8.199  1.00  0.00     0.053 A 
HETATM   25  C   UNL     1      44.142  -9.550   8.425  1.00  0.00     0.036 A 
HETATM   26  C   UNL     1      45.236  -9.641   9.445  1.00  0.00     0.070 C 
HETATM   27  N   UNL     1      44.348 -11.933   7.789  1.00  0.00    -0.170 NA
HETATM   28  C   UNL     1      43.672 -12.682   6.912  1.00  0.00     0.071 A 
HETATM   29  C   UNL     1      44.003 -14.123   6.760  1.00  0.00     0.073 C 
ENDBRANCH   1  18
TORSDOF 6
ENDMDL
MODEL 5
REMARK VINA RESULT:      -7.6      3.288      6.876
REMARK  6 active torsions:
REMARK  status: ('A' for Active; 'I' for Inactive)
REMARK    1  A    between atoms: C_9  and  C_10 
REMARK       I    between atoms: C_10  and  N_11 
REMARK    2  A    between atoms: N_11  and  C_12 
REMARK    3  A    between atoms: C_12  and  C_13 
REMARK    4  A    between atoms: C_13  and  O_14 
REMARK    5  A    between atoms: C_13  and  C_15 
REMARK    6  A    between atoms: C_18  and  O_19 
ROOT
HETATM    1  C   UNL     1      39.892 -12.885   5.448  1.00  0.00     0.258 C 
HETATM    2  N   UNL     1      40.953 -13.740   5.255  1.00  0.00    -0.350 N 
HETATM    3  O   UNL     1      39.320 -12.775   6.528  1.00  0.00    -0.267 OA
HETATM    4  H   UNL     1      41.299 -13.855   4.303  1.00  0.00     0.163 HD
ENDROOT
BRANCH   2   5
HETATM    5  C   UNL     1      41.423 -14.655   6.297  1.00  0.00     0.114 C 
HETATM    6  C   UNL     1      40.534 -15.902   6.311  1.00  0.00     0.035 C 
BRANCH   5   7
HETATM    7  C   UNL     1      42.934 -14.969   6.101  1.00  0.00     0.173 C 
BRANCH   7   8
HETATM    8  O   UNL     1      43.680 -13.787   5.797  1.00  0.00    -0.389 OA
HETATM    9  H   UNL     1      43.112 -13.030   6.026  1.00  0.00     0.210 HD
ENDBRANCH   7   8
BRANCH   7  10
HETATM   10  C   UNL     1      43.190 -16.049   5.066  1.00  0.00    -0.028 A 
HETATM   11  C   UNL     1      43.665 -17.302   5.479  1.00  0.00     0.012 A 
HETATM   12  C   UNL     1      43.876 -18.323   4.549  1.00  0.00     0.037 A 
HETATM   13  C   UNL     1      43.607 -18.121   3.195  1.00  0.00     0.068 A 
HETATM   14  C   UNL     1      43.143 -16.876   2.774  1.00  0.00     0.037 A 
HETATM   15  C   UNL     1      42.939 -15.848   3.702  1.00  0.00     0.012 A 
BRANCH  13  16
HETATM   16  O   UNL     1      43.842 -19.207   2.398  1.00  0.00    -0.356 OA
HETATM   17  C   UNL     1      43.766 -20.484   3.017  1.00  0.00     0.210 C 
ENDBRANCH  13  16
ENDBRANCH   7  10
ENDBRANCH   5   7
ENDBRANCH   2   5
BRANCH   1  18
HETATM   18  C   UNL     1      39.491 -12.115   4.281  1.00  0.00     0.105 A 
HETATM   19  C   UNL     1      39.545 -12.488   2.950  1.00  0.00     0.169 A 
HETATM   20  N   UNL     1      39.969 -13.645   2.345  1.00  0.00    -0.233 NA
HETATM   21  N   UNL     1      39.058 -11.400   2.214  1.00  0.00    -0.219 N 
HETATM   22  C   UNL     1      39.891 -13.685   1.048  1.00  0.00     0.035 A 
HETATM   23  C   UNL     1      40.358 -14.927   0.334  1.00  0.00     0.070 C 
HETATM   24  C   UNL     1      39.362 -12.582   0.186  1.00  0.00     0.053 A 
HETATM   25  C   UNL     1      38.972 -11.462   0.815  1.00  0.00     0.036 A 
HETATM   26  C   UNL     1      38.427 -10.279   0.071  1.00  0.00     0.070 C 
HETATM   27  N   UNL     1      38.705 -10.371   3.021  1.00  0.00    -0.170 NA
HETATM   28  C   UNL     1      38.955 -10.801   4.262  1.00  0.00     0.071 A 
HETATM   29  C   UNL     1      38.663  -9.919   5.422  1.00  0.00     0.073 C 
ENDBRANCH   1  18
TORSDOF 6
ENDMDL
MODEL 6
REMARK VINA RESULT:      -7.6      3.190      5.818
REMARK  6 active torsions:
REMARK  status: ('A' for Active; 'I' for Inactive)
REMARK    1  A    between atoms: C_9  and  C_10 
REMARK       I    between atoms: C_10  and  N_11 
REMARK    2  A    between atoms: N_11  and  C_12 
REMARK    3  A    between atoms: C_12  and  C_13 
REMARK    4  A    between atoms: C_13  and  O_14 
REMARK    5  A    between atoms: C_13  and  C_15 
REMARK    6  A    between atoms: C_18  and  O_19 
ROOT
HETATM    1  C   UNL     1      42.137 -13.412   2.328  1.00  0.00     0.258 C 
HETATM    2  N   UNL     1      41.540 -12.609   3.273  1.00  0.00    -0.350 N 
HETATM    3  O   UNL     1      43.319 -13.734   2.386  1.00  0.00    -0.267 OA
HETATM    4  H   UNL     1      40.586 -12.297   3.093  1.00  0.00     0.163 HD
ENDROOT
BRANCH   2   5
HETATM    5  C   UNL     1      42.291 -11.998   4.371  1.00  0.00     0.114 C 
HETATM    6  C   UNL     1      42.212 -10.473   4.248  1.00  0.00     0.035 C 
BRANCH   5   7
HETATM    7  C   UNL     1      41.788 -12.539   5.739  1.00  0.00     0.173 C 
BRANCH   7   8
HETATM    8  O   UNL     1      42.185 -11.688   6.818  1.00  0.00    -0.389 OA
HETATM    9  H   UNL     1      42.331 -12.263   7.589  1.00  0.00     0.210 HD
ENDBRANCH   7   8
BRANCH   7  10
HETATM   10  C   UNL     1      42.205 -13.975   6.004  1.00  0.00    -0.028 A 
HETATM   11  C   UNL     1      41.268 -15.006   5.847  1.00  0.00     0.012 A 
HETATM   12  C   UNL     1      41.637 -16.338   6.052  1.00  0.00     0.037 A 
HETATM   13  C   UNL     1      42.946 -16.669   6.403  1.00  0.00     0.068 A 
HETATM   14  C   UNL     1      43.883 -15.650   6.569  1.00  0.00     0.037 A 
HETATM   15  C   UNL     1      43.514 -14.314   6.374  1.00  0.00     0.012 A 
BRANCH  13  16
HETATM   16  O   UNL     1      43.175 -18.009   6.557  1.00  0.00    -0.356 OA
HETATM   17  C   UNL     1      43.846 -18.669   5.493  1.00  0.00     0.210 C 
ENDBRANCH  13  16
ENDBRANCH   7  10
ENDBRANCH   5   7
ENDBRANCH   2   5
BRANCH   1  18
HETATM   18  C   UNL     1      41.268 -13.858   1.250  1.00  0.00     0.105 A 
HETATM   19  C   UNL     1      40.925 -13.183   0.093  1.00  0.00     0.169 A 
HETATM   20  N   UNL     1      41.280 -11.943  -0.378  1.00  0.00    -0.233 NA
HETATM   21  N   UNL     1      40.058 -14.027  -0.615  1.00  0.00    -0.219 N 
HETATM   22  C   UNL     1      40.776 -11.590  -1.523  1.00  0.00     0.035 A 
HETATM   23  C   UNL     1      41.124 -10.233  -2.078  1.00  0.00     0.070 C 
HETATM   24  C   UNL     1      39.866 -12.435  -2.358  1.00  0.00     0.053 A 
HETATM   25  C   UNL     1      39.530 -13.634  -1.855  1.00  0.00     0.036 A 
HETATM   26  C   UNL     1      38.622 -14.578  -2.585  1.00  0.00     0.070 C 
HETATM   27  N   UNL     1      39.849 -15.191   0.044  1.00  0.00    -0.170 NA
HETATM   28  C   UNL     1      40.581 -15.097   1.158  1.00  0.00     0.071 A 
HETATM   29  C   UNL     1      40.602 -16.225   2.126  1.00  0.00     0.073 C 
ENDBRANCH   1  18
TORSDOF 6
ENDMDL
MODEL 7
REMARK VINA RESULT:      -7.4      3.211      5.757
REMARK  6 active torsions:
REMARK  status: ('A' for Active; 'I' for Inactive)
REMARK    1  A    between atoms: C_9  and  C_10 
REMARK       I    between atoms: C_10  and  N_11 
REMARK    2  A    between atoms: N_11  and  C_12 
REMARK    3  A    between atoms: C_12  and  C_13 
REMARK    4  A    between atoms: C_13  and  O_14 
REMARK    5  A    between atoms: C_13  and  C_15 
REMARK    6  A    between atoms: C_18  and  O_19 
ROOT
HETATM    1  C   UNL     1      44.259 -11.346   7.503  1.00  0.00     0.258 C 
HETATM    2  N   UNL     1      43.709 -10.783   8.632  1.00  0.00    -0.350 N 
HETATM    3  O   UNL     1      45.464 -11.326   7.276  1.00  0.00    -0.267 OA
HETATM    4  H   UNL     1      42.691 -10.744   8.692  1.00  0.00     0.163 HD
ENDROOT
BRANCH   2   5
HETATM    5  C   UNL     1      44.507 -10.035   9.605  1.00  0.00     0.114 C 
HETATM    6  C   UNL     1      44.387  -8.537   9.308  1.00  0.00     0.035 C 
BRANCH   5   7
HETATM    7  C   UNL     1      44.093 -10.418  11.054  1.00  0.00     0.173 C 
BRANCH   7   8
HETATM    8  O   UNL     1      43.626 -11.768  11.127  1.00  0.00    -0.389 OA
HETATM    9  H   UNL     1      42.658 -11.735  11.042  1.00  0.00     0.210 HD
ENDBRANCH   7   8
BRANCH   7  10
HETATM   10  C   UNL     1      43.077  -9.464  11.658  1.00  0.00    -0.028 A 
HETATM   11  C   UNL     1      41.712  -9.656  11.401  1.00  0.00     0.012 A 
HETATM   12  C   UNL     1      40.757  -8.812  11.972  1.00  0.00     0.037 A 
HETATM   13  C   UNL     1      41.139  -7.772  12.819  1.00  0.00     0.068 A 
HETATM   14  C   UNL     1      42.495  -7.567  13.073  1.00  0.00     0.037 A 
HETATM   15  C   UNL     1      43.456  -8.405  12.495  1.00  0.00     0.012 A 
BRANCH  13  16
HETATM   16  O   UNL     1      40.104  -7.033  13.322  1.00  0.00    -0.356 OA
HETATM   17  C   UNL     1      38.804  -7.342  12.837  1.00  0.00     0.210 C 
ENDBRANCH  13  16
ENDBRANCH   7  10
ENDBRANCH   5   7
ENDBRANCH   2   5
BRANCH   1  18
HETATM   18  C   UNL     1      43.312 -11.970   6.592  1.00  0.00     0.105 A 
HETATM   19  C   UNL     1      43.219 -13.303   6.236  1.00  0.00     0.169 A 
HETATM   20  N   UNL     1      43.951 -14.401   6.615  1.00  0.00    -0.233 NA
HETATM   21  N   UNL     1      42.157 -13.396   5.326  1.00  0.00    -0.219 N 
HETATM   22  C   UNL     1      43.606 -15.539   6.090  1.00  0.00     0.035 A 
HETATM   23  C   UNL     1      44.388 -16.773   6.462  1.00  0.00     0.070 C 
HETATM   24  C   UNL     1      42.473 -15.735   5.133  1.00  0.00     0.053 A 
HETATM   25  C   UNL     1      41.791 -14.634   4.776  1.00  0.00     0.036 A 
HETATM   26  C   UNL     1      40.637 -14.687   3.820  1.00  0.00     0.070 C 
HETATM   27  N   UNL     1      41.588 -12.188   5.100  1.00  0.00    -0.170 NA
HETATM   28  C   UNL     1      42.273 -11.332   5.866  1.00  0.00     0.071 A 
HETATM   29  C   UNL     1      41.901  -9.893   5.880  1.00  0.00     0.073 C 
ENDBRANCH   1  18
TORSDOF 6
ENDMDL
MODEL 8
REMARK VINA RESULT:      -7.4      3.565      7.560
REMARK  6 active torsions:
REMARK  status: ('A' for Active; 'I' for Inactive)
REMARK    1  A    between atoms: C_9  and  C_10 
REMARK       I    between atoms: C_10  and  N_11 
REMARK    2  A    between atoms: N_11  and  C_12 
REMARK    3  A    between atoms: C_12  and  C_13 
REMARK    4  A    between atoms: C_13  and  O_14 
REMARK    5  A    between atoms: C_13  and  C_15 
REMARK    6  A    between atoms: C_18  and  O_19 
ROOT
HETATM    1  C   UNL     1      41.003 -12.929   1.834  1.00  0.00     0.258 C 
HETATM    2  N   UNL     1      40.746 -12.989   3.185  1.00  0.00    -0.350 N 
HETATM    3  O   UNL     1      42.004 -13.428   1.330  1.00  0.00    -0.267 OA
HETATM    4  H   UNL     1      39.952 -12.456   3.538  1.00  0.00     0.163 HD
ENDROOT
BRANCH   2   5
HETATM    5  C   UNL     1      41.692 -13.570   4.139  1.00  0.00     0.114 C 
HETATM    6  C   UNL     1      41.932 -12.575   5.278  1.00  0.00     0.035 C 
BRANCH   5   7
HETATM    7  C   UNL     1      41.190 -14.961   4.621  1.00  0.00     0.173 C 
BRANCH   7   8
HETATM    8  O   UNL     1      41.147 -15.036   6.049  1.00  0.00    -0.389 OA
HETATM    9  H   UNL     1      41.598 -15.861   6.300  1.00  0.00     0.210 HD
ENDBRANCH   7   8
BRANCH   7  10
HETATM   10  C   UNL     1      41.987 -16.117   4.044  1.00  0.00    -0.028 A 
HETATM   11  C   UNL     1      43.005 -16.703   4.809  1.00  0.00     0.012 A 
HETATM   12  C   UNL     1      43.729 -17.791   4.314  1.00  0.00     0.037 A 
HETATM   13  C   UNL     1      43.444 -18.323   3.056  1.00  0.00     0.068 A 
HETATM   14  C   UNL     1      42.440 -17.741   2.284  1.00  0.00     0.037 A 
HETATM   15  C   UNL     1      41.718 -16.646   2.774  1.00  0.00     0.012 A 
BRANCH  13  16
HETATM   16  O   UNL     1      44.217 -19.394   2.700  1.00  0.00    -0.356 OA
HETATM   17  C   UNL     1      43.609 -20.372   1.866  1.00  0.00     0.210 C 
ENDBRANCH  13  16
ENDBRANCH   7  10
ENDBRANCH   5   7
ENDBRANCH   2   5
BRANCH   1  18
HETATM   18  C   UNL     1      40.004 -12.233   1.038  1.00  0.00     0.105 A 
HETATM   19  C   UNL     1      39.353 -12.678  -0.098  1.00  0.00     0.169 A 
HETATM   20  N   UNL     1      39.440 -13.857  -0.796  1.00  0.00    -0.233 NA
HETATM   21  N   UNL     1      38.498 -11.641  -0.495  1.00  0.00    -0.219 N 
HETATM   22  C   UNL     1      38.682 -13.969  -1.845  1.00  0.00     0.035 A 
HETATM   23  C   UNL     1      38.750 -15.239  -2.654  1.00  0.00     0.070 C 
HETATM   24  C   UNL     1      37.722 -12.926  -2.326  1.00  0.00     0.053 A 
HETATM   25  C   UNL     1      37.678 -11.781  -1.625  1.00  0.00     0.036 A 
HETATM   26  C   UNL     1      36.766 -10.653  -2.001  1.00  0.00     0.070 C 
HETATM   27  N   UNL     1      38.585 -10.577   0.338  1.00  0.00    -0.170 NA
HETATM   28  C   UNL     1      39.481 -10.933   1.265  1.00  0.00     0.071 A 
HETATM   29  C   UNL     1      39.815  -9.995   2.368  1.00  0.00     0.073 C 
ENDBRANCH   1  18
TORSDOF 6
ENDMDL
MODEL 9
REMARK VINA RESULT:      -7.4      2.669      5.669
REMARK  6 active torsions:
REMARK  status: ('A' for Active; 'I' for Inactive)
REMARK    1  A    between atoms: C_9  and  C_10 
REMARK       I    between atoms: C_10  and  N_11 
REMARK    2  A    between atoms: N_11  and  C_12 
REMARK    3  A    between atoms: C_12  and  C_13 
REMARK    4  A    between atoms: C_13  and  O_14 
REMARK    5  A    between atoms: C_13  and  C_15 
REMARK    6  A    between atoms: C_18  and  O_19 
ROOT
HETATM    1  C   UNL     1      41.189 -13.743   3.495  1.00  0.00     0.258 C 
HETATM    2  N   UNL     1      41.961 -12.718   2.997  1.00  0.00    -0.350 N 
HETATM    3  O   UNL     1      40.194 -13.544   4.186  1.00  0.00    -0.267 OA
HETATM    4  H   UNL     1      42.831 -12.969   2.528  1.00  0.00     0.163 HD
ENDROOT
BRANCH   2   5
HETATM    5  C   UNL     1      41.712 -11.315   3.330  1.00  0.00     0.114 C 
HETATM    6  C   UNL     1      42.819 -10.814   4.263  1.00  0.00     0.035 C 
BRANCH   5   7
HETATM    7  C   UNL     1      41.561 -10.469   2.033  1.00  0.00     0.173 C 
BRANCH   7   8
HETATM    8  O   UNL     1      41.262  -9.102   2.330  1.00  0.00    -0.389 OA
HETATM    9  H   UNL     1      40.763  -8.753   1.571  1.00  0.00     0.210 HD
ENDBRANCH   7   8
BRANCH   7  10
HETATM   10  C   UNL     1      40.547 -11.044   1.060  1.00  0.00    -0.028 A 
HETATM   11  C   UNL     1      39.199 -11.121   1.433  1.00  0.00     0.012 A 
HETATM   12  C   UNL     1      38.242 -11.614   0.543  1.00  0.00     0.037 A 
HETATM   13  C   UNL     1      38.606 -12.025  -0.740  1.00  0.00     0.068 A 
HETATM   14  C   UNL     1      39.946 -11.960  -1.118  1.00  0.00     0.037 A 
HETATM   15  C   UNL     1      40.909 -11.475  -0.224  1.00  0.00     0.012 A 
BRANCH  13  16
HETATM   16  O   UNL     1      37.570 -12.470  -1.513  1.00  0.00    -0.356 OA
HETATM   17  C   UNL     1      37.866 -13.499  -2.448  1.00  0.00     0.210 C 
ENDBRANCH  13  16
ENDBRANCH   7  10
ENDBRANCH   5   7
ENDBRANCH   2   5
BRANCH   1  18
HETATM   18  C   UNL     1      41.631 -15.084   3.146  1.00  0.00     0.105 A 
HETATM   19  C   UNL     1      42.543 -15.884   3.811  1.00  0.00     0.169 A 
HETATM   20  N   UNL     1      43.277 -15.675   4.952  1.00  0.00    -0.233 NA
HETATM   21  N   UNL     1      42.634 -17.073   3.075  1.00  0.00    -0.219 N 
HETATM   22  C   UNL     1      44.062 -16.642   5.323  1.00  0.00     0.035 A 
HETATM   23  C   UNL     1      44.901 -16.457   6.562  1.00  0.00     0.070 C 
HETATM   24  C   UNL     1      44.203 -17.953   4.615  1.00  0.00     0.053 A 
HETATM   25  C   UNL     1      43.479 -18.112   3.495  1.00  0.00     0.036 A 
HETATM   26  C   UNL     1      43.530 -19.374   2.686  1.00  0.00     0.070 C 
HETATM   27  N   UNL     1      41.825 -17.051   1.990  1.00  0.00    -0.170 NA
HETATM   28  C   UNL     1      41.215 -15.863   2.035  1.00  0.00     0.071 A 
HETATM   29  C   UNL     1      40.225 -15.500   0.988  1.00  0.00     0.073 C 
ENDBRANCH   1  18
TORSDOF 6
ENDMDL
MODEL 10
REMARK VINA RESULT:      -7.2     16.099     18.545
REMARK  6 active torsions:
REMARK  status: ('A' for Active; 'I' for Inactive)
REMARK    1  A    between atoms: C_9  and  C_10 
REMARK       I    between atoms: C_10  and  N_11 
REMARK    2  A    between atoms: N_11  and  C_12 
REMARK    3  A    between atoms: C_12  and  C_13 
REMARK    4  A    between atoms: C_13  and  O_14 
REMARK    5  A    between atoms: C_13  and  C_15 
REMARK    6  A    between atoms: C_18  and  O_19 
ROOT
HETATM    1  C   UNL     1      47.052 -28.578   1.822  1.00  0.00     0.258 C 
HETATM    2  N   UNL     1      46.524 -29.000   0.623  1.00  0.00    -0.350 N 
HETATM    3  O   UNL     1      47.534 -27.461   1.974  1.00  0.00    -0.267 OA
HETATM    4  H   UNL     1      46.245 -29.978   0.548  1.00  0.00     0.163 HD
ENDROOT
BRANCH   2   5
HETATM    5  C   UNL     1      46.582 -28.183  -0.591  1.00  0.00     0.114 C 
HETATM    6  C   UNL     1      47.602 -28.790  -1.558  1.00  0.00     0.035 C 
BRANCH   5   7
HETATM    7  C   UNL     1      45.161 -28.022  -1.204  1.00  0.00     0.173 C 
BRANCH   7   8
HETATM    8  O   UNL     1      44.143 -28.139  -0.206  1.00  0.00    -0.389 OA
HETATM    9  H   UNL     1      43.704 -27.272  -0.150  1.00  0.00     0.210 HD
ENDBRANCH   7   8
BRANCH   7  10
HETATM   10  C   UNL     1      44.896 -28.974  -2.357  1.00  0.00    -0.028 A 
HETATM   11  C   UNL     1      44.473 -30.282  -2.089  1.00  0.00     0.012 A 
HETATM   12  C   UNL     1      44.190 -31.166  -3.134  1.00  0.00     0.037 A 
HETATM   13  C   UNL     1      44.310 -30.759  -4.463  1.00  0.00     0.068 A 
HETATM   14  C   UNL     1      44.739 -29.462  -4.740  1.00  0.00     0.037 A 
HETATM   15  C   UNL     1      45.032 -28.577  -3.695  1.00  0.00     0.012 A 
BRANCH  13  16
HETATM   16  O   UNL     1      43.988 -31.716  -5.385  1.00  0.00    -0.356 OA
HETATM   17  C   UNL     1      44.089 -31.347  -6.753  1.00  0.00     0.210 C 
ENDBRANCH  13  16
ENDBRANCH   7  10
ENDBRANCH   5   7
ENDBRANCH   2   5
BRANCH   1  18
HETATM   18  C   UNL     1      46.999 -29.550   2.903  1.00  0.00     0.105 A 
HETATM   19  C   UNL     1      45.937 -30.352   3.281  1.00  0.00     0.169 A 
HETATM   20  N   UNL     1      44.666 -30.478   2.778  1.00  0.00    -0.233 NA
HETATM   21  N   UNL     1      46.380 -31.102   4.379  1.00  0.00    -0.219 N 
HETATM   22  C   UNL     1      43.889 -31.337   3.368  1.00  0.00     0.035 A 
HETATM   23  C   UNL     1      42.479 -31.503   2.864  1.00  0.00     0.070 C 
HETATM   24  C   UNL     1      44.286 -32.197   4.527  1.00  0.00     0.053 A 
HETATM   25  C   UNL     1      45.532 -32.033   4.999  1.00  0.00     0.036 A 
HETATM   26  C   UNL     1      46.056 -32.826   6.159  1.00  0.00     0.070 C 
HETATM   27  N   UNL     1      47.662 -30.806   4.699  1.00  0.00    -0.170 NA
HETATM   28  C   UNL     1      48.039 -29.882   3.810  1.00  0.00     0.071 A 
HETATM   29  C   UNL     1      49.419 -29.333   3.855  1.00  0.00     0.073 C 
ENDBRANCH   1  18
TORSDOF 6
ENDMDL
