MODEL 1
REMARK VINA RESULT:      -8.9      0.000      0.000
REMARK  6 active torsions:
REMARK  status: ('A' for Active; 'I' for Inactive)
REMARK    1  A    between atoms: C_2  and  N_3 
REMARK       I    between atoms: N_3  and  C_4 
REMARK    2  A    between atoms: C_4  and  C_6 
REMARK    3  A    between atoms: C_10  and  C_11 
REMARK    4  A    between atoms: C_11  and  N_12 
REMARK       I    between atoms: N_12  and  C_13 
REMARK    5  A    between atoms: C_13  and  C_15 
REMARK    6  A    between atoms: C_18  and  C_22 
ROOT
HETATM    1  N   UNL     1      43.406 -12.767   4.884  1.00  0.00    -0.353 N 
HETATM    2  C   UNL     1      42.687 -13.770   5.495  1.00  0.00     0.251 C 
HETATM    3  O   UNL     1      41.855 -13.568   6.372  1.00  0.00    -0.268 OA
HETATM    4  H   UNL     1      44.139 -12.987   4.228  1.00  0.00     0.163 HD
ENDROOT
BRANCH   1   5
HETATM    5  C   UNL     1      43.227 -11.376   5.238  1.00  0.00     0.161 C 
BRANCH   5   6
HETATM    6  C   UNL     1      44.023 -11.016   6.467  1.00  0.00    -0.040 A 
HETATM    7  C   UNL     1      45.415 -11.192   6.488  1.00  0.00     0.009 A 
HETATM    8  C   UNL     1      46.163 -10.816   7.604  1.00  0.00     0.002 A 
HETATM    9  C   UNL     1      45.531 -10.255   8.716  1.00  0.00     0.017 A 
HETATM   10  C   UNL     1      44.142 -10.081   8.719  1.00  0.00     0.032 A 
HETATM   11  C   UNL     1      43.397 -10.457   7.590  1.00  0.00     0.026 A 
BRANCH  10  12
HETATM   12  C   UNL     1      43.416  -9.460   9.865  1.00  0.00     0.251 C 
HETATM   13  N   UNL     1      42.532 -10.267  10.552  1.00  0.00    -0.357 N 
HETATM   14  H   UNL     1      42.272 -11.164  10.168  1.00  0.00     0.162 HD
HETATM   15  O   UNL     1      43.604  -8.281  10.143  1.00  0.00    -0.268 OA
BRANCH  13  16
HETATM   16  C   UNL     1      41.752  -9.760  11.662  1.00  0.00     0.118 C 
HETATM   17  C   UNL     1      42.462  -9.961  12.989  1.00  0.00     0.026 C 
ENDBRANCH  13  16
ENDBRANCH  10  12
ENDBRANCH   5   6
ENDBRANCH   1   5
BRANCH   2  18
HETATM   18  C   UNL     1      42.982 -15.164   5.065  1.00  0.00     0.032 A 
HETATM   19  C   UNL     1      43.206 -16.124   6.055  1.00  0.00     0.018 A 
HETATM   20  C   UNL     1      43.477 -17.448   5.701  1.00  0.00     0.014 A 
HETATM   21  C   UNL     1      43.524 -17.836   4.352  1.00  0.00    -0.017 A 
HETATM   22  C   UNL     1      43.300 -16.874   3.345  1.00  0.00    -0.050 A 
HETATM   23  C   UNL     1      43.327 -17.218   1.879  1.00  0.00     0.049 C 
HETATM   24  C   UNL     1      43.014 -15.544   3.717  1.00  0.00     0.024 A 
BRANCH  21  25
HETATM   25  C   UNL     1      43.787 -19.231   4.047  1.00  0.00     0.011 A 
HETATM   26  C   UNL     1      43.677 -19.958   2.841  1.00  0.00     0.152 A 
HETATM   27  N   UNL     1      44.012 -21.244   2.985  1.00  0.00    -0.187 NA
HETATM   28  N   UNL     1      44.320 -21.345   4.289  1.00  0.00    -0.289 N 
HETATM   29  H   UNL     1      44.604 -22.252   4.647  1.00  0.00     0.188 HD
HETATM   30  C   UNL     1      44.198 -20.169   4.970  1.00  0.00     0.123 A 
ENDBRANCH  21  25
ENDBRANCH   2  18
TORSDOF 6
ENDMDL
MODEL 2
REMARK VINA RESULT:      -8.8      1.245      1.774
REMARK  6 active torsions:
REMARK  status: ('A' for Active; 'I' for Inactive)
REMARK    1  A    between atoms: C_2  and  N_3 
REMARK       I    between atoms: N_3  and  C_4 
REMARK    2  A    between atoms: C_4  and  C_6 
REMARK    3  A    between atoms: C_10  and  C_11 
REMARK    4  A    between atoms: C_11  and  N_12 
REMARK       I    between atoms: N_12  and  C_13 
REMARK    5  A    between atoms: C_13  and  C_15 
REMARK    6  A    between atoms: C_18  and  C_22 
ROOT
HETATM    1  N   UNL     1      43.230 -12.937   5.480  1.00  0.00    -0.353 N 
HETATM    2  C   UNL     1      42.992 -13.424   4.214  1.00  0.00     0.251 C 
HETATM    3  O   UNL     1      42.640 -12.721   3.273  1.00  0.00    -0.268 OA
HETATM    4  H   UNL     1      43.437 -13.565   6.242  1.00  0.00     0.163 HD
ENDROOT
BRANCH   1   5
HETATM    5  C   UNL     1      43.079 -11.534   5.798  1.00  0.00     0.161 C 
BRANCH   5   6
HETATM    6  C   UNL     1      44.008 -11.122   6.912  1.00  0.00    -0.040 A 
HETATM    7  C   UNL     1      45.357 -10.845   6.645  1.00  0.00     0.009 A 
HETATM    8  C   UNL     1      46.209 -10.415   7.663  1.00  0.00     0.002 A 
HETATM    9  C   UNL     1      45.726 -10.254   8.962  1.00  0.00     0.017 A 
HETATM   10  C   UNL     1      44.385 -10.536   9.251  1.00  0.00     0.032 A 
HETATM   11  C   UNL     1      43.532 -10.962   8.221  1.00  0.00     0.026 A 
BRANCH  10  12
HETATM   12  C   UNL     1      43.806 -10.355  10.614  1.00  0.00     0.251 C 
HETATM   13  N   UNL     1      42.991  -9.256  10.803  1.00  0.00    -0.357 N 
HETATM   14  H   UNL     1      42.955  -8.534  10.098  1.00  0.00     0.162 HD
HETATM   15  O   UNL     1      44.078 -11.150  11.507  1.00  0.00    -0.268 OA
BRANCH  13  16
HETATM   16  C   UNL     1      42.400  -8.966  12.093  1.00  0.00     0.118 C 
HETATM   17  C   UNL     1      43.266  -8.024  12.910  1.00  0.00     0.026 C 
ENDBRANCH  13  16
ENDBRANCH  10  12
ENDBRANCH   5   6
ENDBRANCH   1   5
BRANCH   2  18
HETATM   18  C   UNL     1      43.153 -14.891   4.019  1.00  0.00     0.032 A 
HETATM   19  C   UNL     1      43.222 -15.377   2.711  1.00  0.00     0.018 A 
HETATM   20  C   UNL     1      43.382 -16.744   2.477  1.00  0.00     0.014 A 
HETATM   21  C   UNL     1      43.481 -17.650   3.547  1.00  0.00    -0.017 A 
HETATM   22  C   UNL     1      43.411 -17.169   4.872  1.00  0.00    -0.050 A 
HETATM   23  C   UNL     1      43.518 -18.078   6.067  1.00  0.00     0.049 C 
HETATM   24  C   UNL     1      43.263 -15.784   5.093  1.00  0.00     0.024 A 
BRANCH  21  25
HETATM   25  C   UNL     1      43.670 -19.056   3.242  1.00  0.00     0.011 A 
HETATM   26  C   UNL     1      43.499 -19.781   2.041  1.00  0.00     0.152 A 
HETATM   27  N   UNL     1      43.775 -21.081   2.182  1.00  0.00    -0.187 NA
HETATM   28  N   UNL     1      44.106 -21.193   3.480  1.00  0.00    -0.289 N 
HETATM   29  H   UNL     1      44.355 -22.112   3.834  1.00  0.00     0.188 HD
HETATM   30  C   UNL     1      44.056 -20.011   4.159  1.00  0.00     0.123 A 
ENDBRANCH  21  25
ENDBRANCH   2  18
TORSDOF 6
ENDMDL
MODEL 3
REMARK VINA RESULT:      -8.7      1.826      2.939
REMARK  6 active torsions:
REMARK  status: ('A' for Active; 'I' for Inactive)
REMARK    1  A    between atoms: C_2  and  N_3 
REMARK       I    between atoms: N_3  and  C_4 
REMARK    2  A    between atoms: C_4  and  C_6 
REMARK    3  A    between atoms: C_10  and  C_11 
REMARK    4  A    between atoms: C_11  and  N_12 
REMARK       I    between atoms: N_12  and  C_13 
REMARK    5  A    between atoms: C_13  and  C_15 
REMARK    6  A    between atoms: C_18  and  C_22 
ROOT
HETATM    1  N   UNL     1      43.090 -12.679   3.184  1.00  0.00    -0.353 N 
HETATM    2  C   UNL     1      42.581 -13.633   2.333  1.00  0.00     0.251 C 
HETATM    3  O   UNL     1      41.908 -13.369   1.343  1.00  0.00    -0.268 OA
HETATM    4  H   UNL     1      43.567 -12.947   4.032  1.00  0.00     0.163 HD
ENDROOT
BRANCH   1   5
HETATM    5  C   UNL     1      42.867 -11.266   2.967  1.00  0.00     0.161 C 
BRANCH   5   6
HETATM    6  C   UNL     1      42.586 -10.550   4.264  1.00  0.00    -0.040 A 
HETATM    7  C   UNL     1      41.664  -9.493   4.305  1.00  0.00     0.009 A 
HETATM    8  C   UNL     1      41.362  -8.858   5.510  1.00  0.00     0.002 A 
HETATM    9  C   UNL     1      41.977  -9.272   6.694  1.00  0.00     0.017 A 
HETATM   10  C   UNL     1      42.908 -10.317   6.672  1.00  0.00     0.032 A 
HETATM   11  C   UNL     1      43.202 -10.955   5.456  1.00  0.00     0.026 A 
BRANCH  10  12
HETATM   12  C   UNL     1      43.574 -10.821   7.908  1.00  0.00     0.251 C 
HETATM   13  N   UNL     1      43.191 -10.242   9.102  1.00  0.00    -0.357 N 
HETATM   14  H   UNL     1      42.629  -9.403   9.092  1.00  0.00     0.162 HD
HETATM   15  O   UNL     1      44.432 -11.693   7.830  1.00  0.00    -0.268 OA
BRANCH  13  16
HETATM   16  C   UNL     1      43.794 -10.633  10.359  1.00  0.00     0.118 C 
HETATM   17  C   UNL     1      44.874  -9.659  10.793  1.00  0.00     0.026 C 
ENDBRANCH  13  16
ENDBRANCH  10  12
ENDBRANCH   5   6
ENDBRANCH   1   5
BRANCH   2  18
HETATM   18  C   UNL     1      42.854 -15.056   2.680  1.00  0.00     0.032 A 
HETATM   19  C   UNL     1      43.203 -15.929   1.648  1.00  0.00     0.018 A 
HETATM   20  C   UNL     1      43.478 -17.269   1.924  1.00  0.00     0.014 A 
HETATM   21  C   UNL     1      43.415 -17.760   3.239  1.00  0.00    -0.017 A 
HETATM   22  C   UNL     1      43.064 -16.886   4.289  1.00  0.00    -0.050 A 
HETATM   23  C   UNL     1      42.983 -17.338   5.723  1.00  0.00     0.049 C 
HETATM   24  C   UNL     1      42.801 -15.531   3.997  1.00  0.00     0.024 A 
BRANCH  21  25
HETATM   25  C   UNL     1      43.736 -19.157   3.468  1.00  0.00     0.011 A 
HETATM   26  C   UNL     1      43.540 -20.302   2.664  1.00  0.00     0.152 A 
HETATM   27  N   UNL     1      43.975 -21.421   3.250  1.00  0.00    -0.187 NA
HETATM   28  N   UNL     1      44.433 -20.996   4.440  1.00  0.00    -0.289 N 
HETATM   29  H   UNL     1      44.817 -21.684   5.081  1.00  0.00     0.188 HD
HETATM   30  C   UNL     1      44.310 -19.649   4.620  1.00  0.00     0.123 A 
ENDBRANCH  21  25
ENDBRANCH   2  18
TORSDOF 6
ENDMDL
MODEL 4
REMARK VINA RESULT:      -8.6      4.905      8.427
REMARK  6 active torsions:
REMARK  status: ('A' for Active; 'I' for Inactive)
REMARK    1  A    between atoms: C_2  and  N_3 
REMARK       I    between atoms: N_3  and  C_4 
REMARK    2  A    between atoms: C_4  and  C_6 
REMARK    3  A    between atoms: C_10  and  C_11 
REMARK    4  A    between atoms: C_11  and  N_12 
REMARK       I    between atoms: N_12  and  C_13 
REMARK    5  A    between atoms: C_13  and  C_15 
REMARK    6  A    between atoms: C_18  and  C_22 
ROOT
HETATM    1  N   UNL     1      42.306 -13.660   3.698  1.00  0.00    -0.353 N 
HETATM    2  C   UNL     1      42.303 -12.671   2.740  1.00  0.00     0.251 C 
HETATM    3  O   UNL     1      42.900 -11.608   2.863  1.00  0.00    -0.268 OA
HETATM    4  H   UNL     1      41.733 -14.483   3.589  1.00  0.00     0.163 HD
ENDROOT
BRANCH   1   5
HETATM    5  C   UNL     1      43.028 -13.514   4.942  1.00  0.00     0.161 C 
BRANCH   5   6
HETATM    6  C   UNL     1      43.153 -14.833   5.662  1.00  0.00    -0.040 A 
HETATM    7  C   UNL     1      42.881 -14.920   7.036  1.00  0.00     0.009 A 
HETATM    8  C   UNL     1      42.947 -16.146   7.698  1.00  0.00     0.002 A 
HETATM    9  C   UNL     1      43.283 -17.306   6.996  1.00  0.00     0.017 A 
HETATM   10  C   UNL     1      43.568 -17.238   5.627  1.00  0.00     0.032 A 
HETATM   11  C   UNL     1      43.494 -16.002   4.966  1.00  0.00     0.026 A 
BRANCH  10  12
HETATM   12  C   UNL     1      43.904 -18.447   4.820  1.00  0.00     0.251 C 
HETATM   13  N   UNL     1      43.894 -18.302   3.447  1.00  0.00    -0.357 N 
HETATM   14  H   UNL     1      43.499 -17.468   3.036  1.00  0.00     0.162 HD
HETATM   15  O   UNL     1      44.151 -19.509   5.380  1.00  0.00    -0.268 OA
BRANCH  13  16
HETATM   16  C   UNL     1      44.174 -19.417   2.567  1.00  0.00     0.118 C 
HETATM   17  C   UNL     1      42.901 -20.082   2.076  1.00  0.00     0.026 C 
ENDBRANCH  13  16
ENDBRANCH  10  12
ENDBRANCH   5   6
ENDBRANCH   1   5
BRANCH   2  18
HETATM   18  C   UNL     1      41.498 -12.927   1.514  1.00  0.00     0.032 A 
HETATM   19  C   UNL     1      40.697 -14.071   1.480  1.00  0.00     0.018 A 
HETATM   20  C   UNL     1      39.916 -14.349   0.357  1.00  0.00     0.014 A 
HETATM   21  C   UNL     1      39.917 -13.485  -0.751  1.00  0.00    -0.017 A 
HETATM   22  C   UNL     1      40.723 -12.327  -0.727  1.00  0.00    -0.050 A 
HETATM   23  C   UNL     1      40.770 -11.353  -1.874  1.00  0.00     0.049 C 
HETATM   24  C   UNL     1      41.496 -12.052   0.419  1.00  0.00     0.024 A 
BRANCH  21  25
HETATM   25  C   UNL     1      39.066 -13.815  -1.880  1.00  0.00     0.011 A 
HETATM   26  C   UNL     1      39.233 -14.740  -2.934  1.00  0.00     0.152 A 
HETATM   27  N   UNL     1      38.207 -14.734  -3.790  1.00  0.00    -0.187 NA
HETATM   28  N   UNL     1      37.389 -13.790  -3.294  1.00  0.00    -0.289 N 
HETATM   29  H   UNL     1      36.524 -13.595  -3.789  1.00  0.00     0.188 HD
HETATM   30  C   UNL     1      37.859 -13.207  -2.153  1.00  0.00     0.123 A 
ENDBRANCH  21  25
ENDBRANCH   2  18
TORSDOF 6
ENDMDL
MODEL 5
REMARK VINA RESULT:      -8.3      2.599     10.588
REMARK  6 active torsions:
REMARK  status: ('A' for Active; 'I' for Inactive)
REMARK    1  A    between atoms: C_2  and  N_3 
REMARK       I    between atoms: N_3  and  C_4 
REMARK    2  A    between atoms: C_4  and  C_6 
REMARK    3  A    between atoms: C_10  and  C_11 
REMARK    4  A    between atoms: C_11  and  N_12 
REMARK       I    between atoms: N_12  and  C_13 
REMARK    5  A    between atoms: C_13  and  C_15 
REMARK    6  A    between atoms: C_18  and  C_22 
ROOT
HETATM    1  N   UNL     1      43.742 -11.519   7.925  1.00  0.00    -0.353 N 
HETATM    2  C   UNL     1      44.619 -10.827   8.730  1.00  0.00     0.251 C 
HETATM    3  O   UNL     1      45.834 -10.837   8.574  1.00  0.00    -0.268 OA
HETATM    4  H   UNL     1      42.757 -11.548   8.143  1.00  0.00     0.163 HD
ENDROOT
BRANCH   1   5
HETATM    5  C   UNL     1      44.200 -12.323   6.814  1.00  0.00     0.161 C 
BRANCH   5   6
HETATM    6  C   UNL     1      43.169 -13.350   6.418  1.00  0.00    -0.040 A 
HETATM    7  C   UNL     1      41.816 -12.993   6.315  1.00  0.00     0.009 A 
HETATM    8  C   UNL     1      40.864 -13.926   5.902  1.00  0.00     0.002 A 
HETATM    9  C   UNL     1      41.250 -15.229   5.583  1.00  0.00     0.017 A 
HETATM   10  C   UNL     1      42.594 -15.607   5.690  1.00  0.00     0.032 A 
HETATM   11  C   UNL     1      43.547 -14.662   6.101  1.00  0.00     0.026 A 
BRANCH  10  12
HETATM   12  C   UNL     1      43.070 -16.976   5.335  1.00  0.00     0.251 C 
HETATM   13  N   UNL     1      43.563 -17.152   4.057  1.00  0.00    -0.357 N 
HETATM   14  H   UNL     1      43.428 -16.429   3.366  1.00  0.00     0.162 HD
HETATM   15  O   UNL     1      42.992 -17.884   6.155  1.00  0.00    -0.268 OA
BRANCH  13  16
HETATM   16  C   UNL     1      44.023 -18.446   3.596  1.00  0.00     0.118 C 
HETATM   17  C   UNL     1      43.227 -18.933   2.399  1.00  0.00     0.026 C 
ENDBRANCH  13  16
ENDBRANCH  10  12
ENDBRANCH   5   6
ENDBRANCH   1   5
BRANCH   2  18
HETATM   18  C   UNL     1      44.027 -10.058   9.861  1.00  0.00     0.032 A 
HETATM   19  C   UNL     1      43.838 -10.718  11.077  1.00  0.00     0.018 A 
HETATM   20  C   UNL     1      43.295 -10.037  12.168  1.00  0.00     0.014 A 
HETATM   21  C   UNL     1      42.937  -8.683  12.066  1.00  0.00    -0.017 A 
HETATM   22  C   UNL     1      43.124  -8.007  10.841  1.00  0.00    -0.050 A 
HETATM   23  C   UNL     1      42.772  -6.555  10.658  1.00  0.00     0.049 C 
HETATM   24  C   UNL     1      43.686  -8.704   9.751  1.00  0.00     0.024 A 
BRANCH  21  25
HETATM   25  C   UNL     1      42.401  -8.022  13.241  1.00  0.00     0.011 A 
HETATM   26  C   UNL     1      43.021  -7.221  14.225  1.00  0.00     0.152 A 
HETATM   27  N   UNL     1      42.164  -6.804  15.162  1.00  0.00    -0.187 NA
HETATM   28  N   UNL     1      40.996  -7.353  14.789  1.00  0.00    -0.289 N 
HETATM   29  H   UNL     1      40.178  -7.179  15.364  1.00  0.00     0.188 HD
HETATM   30  C   UNL     1      41.085  -8.095  13.647  1.00  0.00     0.123 A 
ENDBRANCH  21  25
ENDBRANCH   2  18
TORSDOF 6
ENDMDL
MODEL 6
REMARK VINA RESULT:      -8.1      3.080      4.716
REMARK  6 active torsions:
REMARK  status: ('A' for Active; 'I' for Inactive)
REMARK    1  A    between atoms: C_2  and  N_3 
REMARK       I    between atoms: N_3  and  C_4 
REMARK    2  A    between atoms: C_4  and  C_6 
REMARK    3  A    between atoms: C_10  and  C_11 
REMARK    4  A    between atoms: C_11  and  N_12 
REMARK       I    between atoms: N_12  and  C_13 
REMARK    5  A    between atoms: C_13  and  C_15 
REMARK    6  A    between atoms: C_18  and  C_22 
ROOT
HETATM    1  N   UNL     1      44.541 -11.005   8.430  1.00  0.00    -0.353 N 
HETATM    2  C   UNL     1      45.027 -11.460   7.225  1.00  0.00     0.251 C 
HETATM    3  O   UNL     1      46.136 -11.172   6.790  1.00  0.00    -0.268 OA
HETATM    4  H   UNL     1      43.592 -11.200   8.709  1.00  0.00     0.163 HD
ENDROOT
BRANCH   1   5
HETATM    5  C   UNL     1      45.320 -10.138   9.288  1.00  0.00     0.161 C 
BRANCH   5   6
HETATM    6  C   UNL     1      44.471  -9.039   9.874  1.00  0.00    -0.040 A 
HETATM    7  C   UNL     1      44.036  -7.974   9.070  1.00  0.00     0.009 A 
HETATM    8  C   UNL     1      43.210  -6.979   9.594  1.00  0.00     0.002 A 
HETATM    9  C   UNL     1      42.803  -7.035  10.928  1.00  0.00     0.017 A 
HETATM   10  C   UNL     1      43.236  -8.084  11.749  1.00  0.00     0.032 A 
HETATM   11  C   UNL     1      44.062  -9.084  11.214  1.00  0.00     0.026 A 
BRANCH  10  12
HETATM   12  C   UNL     1      42.810  -8.211  13.173  1.00  0.00     0.251 C 
HETATM   13  N   UNL     1      42.871  -7.069  13.947  1.00  0.00    -0.357 N 
HETATM   14  H   UNL     1      43.352  -6.254  13.595  1.00  0.00     0.162 HD
HETATM   15  O   UNL     1      42.450  -9.299  13.611  1.00  0.00    -0.268 OA
BRANCH  13  16
HETATM   16  C   UNL     1      42.511  -7.086  15.349  1.00  0.00     0.118 C 
HETATM   17  C   UNL     1      41.076  -6.641  15.568  1.00  0.00     0.026 C 
ENDBRANCH  13  16
ENDBRANCH  10  12
ENDBRANCH   5   6
ENDBRANCH   1   5
BRANCH   2  18
HETATM   18  C   UNL     1      44.119 -12.321   6.418  1.00  0.00     0.032 A 
HETATM   19  C   UNL     1      43.899 -11.976   5.083  1.00  0.00     0.018 A 
HETATM   20  C   UNL     1      43.063 -12.758   4.284  1.00  0.00     0.014 A 
HETATM   21  C   UNL     1      42.436 -13.903   4.804  1.00  0.00    -0.017 A 
HETATM   22  C   UNL     1      42.652 -14.261   6.152  1.00  0.00    -0.050 A 
HETATM   23  C   UNL     1      42.021 -15.477   6.775  1.00  0.00     0.049 C 
HETATM   24  C   UNL     1      43.509 -13.469   6.943  1.00  0.00     0.024 A 
BRANCH  21  25
HETATM   25  C   UNL     1      41.598 -14.690   3.918  1.00  0.00     0.011 A 
HETATM   26  C   UNL     1      41.874 -15.846   3.155  1.00  0.00     0.152 A 
HETATM   27  N   UNL     1      40.816 -16.265   2.456  1.00  0.00    -0.187 NA
HETATM   28  N   UNL     1      39.864 -15.366   2.756  1.00  0.00    -0.289 N 
HETATM   29  H   UNL     1      38.949 -15.473   2.328  1.00  0.00     0.188 HD
HETATM   30  C   UNL     1      40.282 -14.400   3.625  1.00  0.00     0.123 A 
ENDBRANCH  21  25
ENDBRANCH   2  18
TORSDOF 6
ENDMDL
MODEL 7
REMARK VINA RESULT:      -8.0      5.952      8.579
REMARK  6 active torsions:
REMARK  status: ('A' for Active; 'I' for Inactive)
REMARK    1  A    between atoms: C_2  and  N_3 
REMARK       I    between atoms: N_3  and  C_4 
REMARK    2  A    between atoms: C_4  and  C_6 
REMARK    3  A    between atoms: C_10  and  C_11 
REMARK    4  A    between atoms: C_11  and  N_12 
REMARK       I    between atoms: N_12  and  C_13 
REMARK    5  A    between atoms: C_13  and  C_15 
REMARK    6  A    between atoms: C_18  and  C_22 
ROOT
HETATM    1  N   UNL     1      41.603 -12.740   1.326  1.00  0.00    -0.353 N 
HETATM    2  C   UNL     1      42.464 -13.053   2.353  1.00  0.00     0.251 C 
HETATM    3  O   UNL     1      43.038 -12.212   3.035  1.00  0.00    -0.268 OA
HETATM    4  H   UNL     1      41.218 -13.464   0.738  1.00  0.00     0.163 HD
ENDROOT
BRANCH   1   5
HETATM    5  C   UNL     1      41.306 -11.370   0.970  1.00  0.00     0.161 C 
BRANCH   5   6
HETATM    6  C   UNL     1      41.161 -11.209  -0.522  1.00  0.00    -0.040 A 
HETATM    7  C   UNL     1      40.841 -12.313  -1.326  1.00  0.00     0.009 A 
HETATM    8  C   UNL     1      40.657 -12.162  -2.701  1.00  0.00     0.002 A 
HETATM    9  C   UNL     1      40.789 -10.904  -3.293  1.00  0.00     0.017 A 
HETATM   10  C   UNL     1      41.120  -9.792  -2.509  1.00  0.00     0.032 A 
HETATM   11  C   UNL     1      41.297  -9.951  -1.125  1.00  0.00     0.026 A 
BRANCH  10  12
HETATM   12  C   UNL     1      41.245  -8.420  -3.080  1.00  0.00     0.251 C 
HETATM   13  N   UNL     1      41.490  -8.330  -4.436  1.00  0.00    -0.357 N 
HETATM   14  H   UNL     1      41.749  -9.158  -4.952  1.00  0.00     0.162 HD
HETATM   15  O   UNL     1      41.151  -7.440  -2.349  1.00  0.00    -0.268 OA
BRANCH  13  16
HETATM   16  C   UNL     1      41.660  -7.049  -5.090  1.00  0.00     0.118 C 
HETATM   17  C   UNL     1      43.126  -6.682  -5.240  1.00  0.00     0.026 C 
ENDBRANCH  13  16
ENDBRANCH  10  12
ENDBRANCH   5   6
ENDBRANCH   1   5
BRANCH   2  18
HETATM   18  C   UNL     1      42.712 -14.500   2.603  1.00  0.00     0.032 A 
HETATM   19  C   UNL     1      43.085 -15.300   1.521  1.00  0.00     0.018 A 
HETATM   20  C   UNL     1      43.338 -16.660   1.707  1.00  0.00     0.014 A 
HETATM   21  C   UNL     1      43.227 -17.245   2.980  1.00  0.00    -0.017 A 
HETATM   22  C   UNL     1      42.850 -16.445   4.080  1.00  0.00    -0.050 A 
HETATM   23  C   UNL     1      42.719 -17.000   5.473  1.00  0.00     0.049 C 
HETATM   24  C   UNL     1      42.611 -15.070   3.879  1.00  0.00     0.024 A 
BRANCH  21  25
HETATM   25  C   UNL     1      43.526 -18.659   3.115  1.00  0.00     0.011 A 
HETATM   26  C   UNL     1      43.207 -19.762   2.292  1.00  0.00     0.152 A 
HETATM   27  N   UNL     1      43.667 -20.917   2.781  1.00  0.00    -0.187 NA
HETATM   28  N   UNL     1      44.266 -20.557   3.929  1.00  0.00    -0.289 N 
HETATM   29  H   UNL     1      44.695 -21.282   4.495  1.00  0.00     0.188 HD
HETATM   30  C   UNL     1      44.207 -19.216   4.176  1.00  0.00     0.123 A 
ENDBRANCH  21  25
ENDBRANCH   2  18
TORSDOF 6
ENDMDL
MODEL 8
REMARK VINA RESULT:      -7.9      7.079     11.346
REMARK  6 active torsions:
REMARK  status: ('A' for Active; 'I' for Inactive)
REMARK    1  A    between atoms: C_2  and  N_3 
REMARK       I    between atoms: N_3  and  C_4 
REMARK    2  A    between atoms: C_4  and  C_6 
REMARK    3  A    between atoms: C_10  and  C_11 
REMARK    4  A    between atoms: C_11  and  N_12 
REMARK       I    between atoms: N_12  and  C_13 
REMARK    5  A    between atoms: C_13  and  C_15 
REMARK    6  A    between atoms: C_18  and  C_22 
ROOT
HETATM    1  N   UNL     1      40.625 -13.084  -0.862  1.00  0.00    -0.353 N 
HETATM    2  C   UNL     1      40.703 -12.736  -2.192  1.00  0.00     0.251 C 
HETATM    3  O   UNL     1      40.574 -13.536  -3.110  1.00  0.00    -0.268 OA
HETATM    4  H   UNL     1      40.820 -12.407  -0.140  1.00  0.00     0.163 HD
ENDROOT
BRANCH   1   5
HETATM    5  C   UNL     1      40.380 -14.447  -0.444  1.00  0.00     0.161 C 
BRANCH   5   6
HETATM    6  C   UNL     1      40.615 -14.618   1.035  1.00  0.00    -0.040 A 
HETATM    7  C   UNL     1      39.979 -13.774   1.957  1.00  0.00     0.009 A 
HETATM    8  C   UNL     1      40.154 -13.958   3.329  1.00  0.00     0.002 A 
HETATM    9  C   UNL     1      40.966 -14.991   3.801  1.00  0.00     0.017 A 
HETATM   10  C   UNL     1      41.619 -15.837   2.896  1.00  0.00     0.032 A 
HETATM   11  C   UNL     1      41.433 -15.650   1.518  1.00  0.00     0.026 A 
BRANCH  10  12
HETATM   12  C   UNL     1      42.475 -16.975   3.342  1.00  0.00     0.251 C 
HETATM   13  N   UNL     1      42.921 -17.839   2.362  1.00  0.00    -0.357 N 
HETATM   14  H   UNL     1      42.527 -17.788   1.434  1.00  0.00     0.162 HD
HETATM   15  O   UNL     1      42.732 -17.120   4.532  1.00  0.00    -0.268 OA
BRANCH  13  16
HETATM   16  C   UNL     1      43.733 -18.995   2.686  1.00  0.00     0.118 C 
HETATM   17  C   UNL     1      43.198 -20.259   2.037  1.00  0.00     0.026 C 
ENDBRANCH  13  16
ENDBRANCH  10  12
ENDBRANCH   5   6
ENDBRANCH   1   5
BRANCH   2  18
HETATM   18  C   UNL     1      40.990 -11.306  -2.494  1.00  0.00     0.032 A 
HETATM   19  C   UNL     1      40.673 -10.827  -3.767  1.00  0.00     0.018 A 
HETATM   20  C   UNL     1      40.914  -9.491  -4.095  1.00  0.00     0.014 A 
HETATM   21  C   UNL     1      41.471  -8.609  -3.154  1.00  0.00    -0.017 A 
HETATM   22  C   UNL     1      41.795  -9.083  -1.865  1.00  0.00    -0.050 A 
HETATM   23  C   UNL     1      42.387  -8.195  -0.803  1.00  0.00     0.049 C 
HETATM   24  C   UNL     1      41.533 -10.431  -1.544  1.00  0.00     0.024 A 
BRANCH  21  25
HETATM   25  C   UNL     1      41.677  -7.227  -3.545  1.00  0.00     0.011 A 
HETATM   26  C   UNL     1      40.789  -6.128  -3.590  1.00  0.00     0.152 A 
HETATM   27  N   UNL     1      41.378  -5.010  -4.022  1.00  0.00    -0.187 NA
HETATM   28  N   UNL     1      42.641  -5.394  -4.272  1.00  0.00    -0.289 N 
HETATM   29  H   UNL     1      43.294  -4.701  -4.624  1.00  0.00     0.188 HD
HETATM   30  C   UNL     1      42.871  -6.713  -4.006  1.00  0.00     0.123 A 
ENDBRANCH  21  25
ENDBRANCH   2  18
TORSDOF 6
ENDMDL
MODEL 9
REMARK VINA RESULT:      -7.9      3.583     10.451
REMARK  6 active torsions:
REMARK  status: ('A' for Active; 'I' for Inactive)
REMARK    1  A    between atoms: C_2  and  N_3 
REMARK       I    between atoms: N_3  and  C_4 
REMARK    2  A    between atoms: C_4  and  C_6 
REMARK    3  A    between atoms: C_10  and  C_11 
REMARK    4  A    between atoms: C_11  and  N_12 
REMARK       I    between atoms: N_12  and  C_13 
REMARK    5  A    between atoms: C_13  and  C_15 
REMARK    6  A    between atoms: C_18  and  C_22 
ROOT
HETATM    1  N   UNL     1      43.782 -11.639   8.038  1.00  0.00    -0.353 N 
HETATM    2  C   UNL     1      44.619 -10.752   8.676  1.00  0.00     0.251 C 
HETATM    3  O   UNL     1      45.802 -10.612   8.388  1.00  0.00    -0.268 OA
HETATM    4  H   UNL     1      42.837 -11.780   8.363  1.00  0.00     0.163 HD
ENDROOT
BRANCH   1   5
HETATM    5  C   UNL     1      44.245 -12.485   6.959  1.00  0.00     0.161 C 
BRANCH   5   6
HETATM    6  C   UNL     1      43.193 -13.488   6.559  1.00  0.00    -0.040 A 
HETATM    7  C   UNL     1      43.040 -14.681   7.281  1.00  0.00     0.009 A 
HETATM    8  C   UNL     1      42.038 -15.592   6.946  1.00  0.00     0.002 A 
HETATM    9  C   UNL     1      41.171 -15.323   5.885  1.00  0.00     0.017 A 
HETATM   10  C   UNL     1      41.315 -14.143   5.145  1.00  0.00     0.032 A 
HETATM   11  C   UNL     1      42.322 -13.229   5.492  1.00  0.00     0.026 A 
BRANCH  10  12
HETATM   12  C   UNL     1      40.400 -13.788   4.021  1.00  0.00     0.251 C 
HETATM   13  N   UNL     1      40.653 -14.383   2.801  1.00  0.00    -0.357 N 
HETATM   14  H   UNL     1      41.520 -14.881   2.659  1.00  0.00     0.162 HD
HETATM   15  O   UNL     1      39.491 -12.985   4.200  1.00  0.00    -0.268 OA
BRANCH  13  16
HETATM   16  C   UNL     1      39.847 -14.087   1.634  1.00  0.00     0.118 C 
HETATM   17  C   UNL     1      40.153 -15.030   0.485  1.00  0.00     0.026 C 
ENDBRANCH  13  16
ENDBRANCH  10  12
ENDBRANCH   5   6
ENDBRANCH   1   5
BRANCH   2  18
HETATM   18  C   UNL     1      44.032  -9.959   9.790  1.00  0.00     0.032 A 
HETATM   19  C   UNL     1      43.839 -10.593  11.019  1.00  0.00     0.018 A 
HETATM   20  C   UNL     1      43.301  -9.888  12.097  1.00  0.00     0.014 A 
HETATM   21  C   UNL     1      42.950  -8.534  11.968  1.00  0.00    -0.017 A 
HETATM   22  C   UNL     1      43.141  -7.884  10.730  1.00  0.00    -0.050 A 
HETATM   23  C   UNL     1      42.796  -6.433  10.519  1.00  0.00     0.049 C 
HETATM   24  C   UNL     1      43.698  -8.605   9.654  1.00  0.00     0.024 A 
BRANCH  21  25
HETATM   25  C   UNL     1      42.417  -7.848  13.130  1.00  0.00     0.011 A 
HETATM   26  C   UNL     1      43.059  -7.146  14.174  1.00  0.00     0.152 A 
HETATM   27  N   UNL     1      42.197  -6.659  15.072  1.00  0.00    -0.187 NA
HETATM   28  N   UNL     1      41.001  -7.065  14.613  1.00  0.00    -0.289 N 
HETATM   29  H   UNL     1      40.172  -6.816  15.144  1.00  0.00     0.188 HD
HETATM   30  C   UNL     1      41.078  -7.783  13.455  1.00  0.00     0.123 A 
ENDBRANCH  21  25
ENDBRANCH   2  18
TORSDOF 6
ENDMDL
MODEL 10
REMARK VINA RESULT:      -7.8      2.699     10.561
REMARK  6 active torsions:
REMARK  status: ('A' for Active; 'I' for Inactive)
REMARK    1  A    between atoms: C_2  and  N_3 
REMARK       I    between atoms: N_3  and  C_4 
REMARK    2  A    between atoms: C_4  and  C_6 
REMARK    3  A    between atoms: C_10  and  C_11 
REMARK    4  A    between atoms: C_11  and  N_12 
REMARK       I    between atoms: N_12  and  C_13 
REMARK    5  A    between atoms: C_13  and  C_15 
REMARK    6  A    between atoms: C_18  and  C_22 
ROOT
HETATM    1  N   UNL     1      43.140 -10.166   7.642  1.00  0.00    -0.353 N 
HETATM    2  C   UNL     1      43.916 -10.443   8.745  1.00  0.00     0.251 C 
HETATM    3  O   UNL     1      44.881 -11.199   8.721  1.00  0.00    -0.268 OA
HETATM    4  H   UNL     1      42.307  -9.603   7.728  1.00  0.00     0.163 HD
ENDROOT
BRANCH   1   5
HETATM    5  C   UNL     1      43.412 -10.756   6.350  1.00  0.00     0.161 C 
BRANCH   5   6
HETATM    6  C   UNL     1      42.406 -11.828   6.014  1.00  0.00    -0.040 A 
HETATM    7  C   UNL     1      41.033 -11.588   6.176  1.00  0.00     0.009 A 
HETATM    8  C   UNL     1      40.095 -12.558   5.821  1.00  0.00     0.002 A 
HETATM    9  C   UNL     1      40.515 -13.782   5.296  1.00  0.00     0.017 A 
HETATM   10  C   UNL     1      41.881 -14.044   5.137  1.00  0.00     0.032 A 
HETATM   11  C   UNL     1      42.819 -13.062   5.491  1.00  0.00     0.026 A 
BRANCH  10  12
HETATM   12  C   UNL     1      42.387 -15.321   4.554  1.00  0.00     0.251 C 
HETATM   13  N   UNL     1      41.729 -15.801   3.440  1.00  0.00    -0.357 N 
HETATM   14  H   UNL     1      40.848 -15.392   3.166  1.00  0.00     0.162 HD
HETATM   15  O   UNL     1      43.331 -15.903   5.079  1.00  0.00    -0.268 OA
BRANCH  13  16
HETATM   16  C   UNL     1      42.117 -17.047   2.811  1.00  0.00     0.118 C 
HETATM   17  C   UNL     1      43.252 -16.850   1.823  1.00  0.00     0.026 C 
ENDBRANCH  13  16
ENDBRANCH  10  12
ENDBRANCH   5   6
ENDBRANCH   1   5
BRANCH   2  18
HETATM   18  C   UNL     1      43.517  -9.797  10.026  1.00  0.00     0.032 A 
HETATM   19  C   UNL     1      43.520 -10.576  11.184  1.00  0.00     0.018 A 
HETATM   20  C   UNL     1      43.163 -10.013  12.411  1.00  0.00     0.014 A 
HETATM   21  C   UNL     1      42.801  -8.658  12.502  1.00  0.00    -0.017 A 
HETATM   22  C   UNL     1      42.795  -7.862  11.337  1.00  0.00    -0.050 A 
HETATM   23  C   UNL     1      42.427  -6.402  11.358  1.00  0.00     0.049 C 
HETATM   24  C   UNL     1      43.171  -8.441  10.107  1.00  0.00     0.024 A 
BRANCH  21  25
HETATM   25  C   UNL     1      42.463  -8.123  13.808  1.00  0.00     0.011 A 
HETATM   26  C   UNL     1      43.044  -7.085  14.569  1.00  0.00     0.152 A 
HETATM   27  N   UNL     1      42.431  -6.904  15.743  1.00  0.00    -0.187 NA
HETATM   28  N   UNL     1      41.466  -7.840  15.742  1.00  0.00    -0.289 N 
HETATM   29  H   UNL     1      40.858  -7.904  16.553  1.00  0.00     0.188 HD
HETATM   30  C   UNL     1      41.445  -8.598  14.608  1.00  0.00     0.123 A 
ENDBRANCH  21  25
ENDBRANCH   2  18
TORSDOF 6
ENDMDL
