MODEL 1
REMARK VINA RESULT:      -8.3      0.000      0.000
REMARK  10 active torsions:
REMARK  status: ('A' for Active; 'I' for Inactive)
REMARK    1  A    between atoms: C_2  and  C_3 
REMARK    2  A    between atoms: C_3  and  C_4 
REMARK    3  A    between atoms: N_7  and  C_9 
REMARK    4  A    between atoms: C_9  and  C_10 
REMARK    5  A    between atoms: C_11  and  O_12 
REMARK    6  A    between atoms: C_13  and  O_14 
REMARK    7  A    between atoms: O_14  and  C_15 
REMARK    8  A    between atoms: N_25  and  C_26 
REMARK    9  A    between atoms: C_26  and  C_27 
REMARK   10  A    between atoms: C_27  and  C_28 
ROOT
HETATM    1  C   UNL     1      41.727 -14.861   5.591  1.00  0.00     0.026 C 
HETATM    2  C   UNL     1      40.763 -13.695   5.893  1.00  0.00     0.035 C 
HETATM    3  C   UNL     1      41.420 -12.324   5.908  1.00  0.00     0.235 C 
HETATM    4  N   UNL     1      42.624 -12.301   6.805  1.00  0.00    -0.067 N 
HETATM    5  H   UNL     1      42.280 -12.276   7.781  1.00  0.00     0.280 HD
HETATM    6  C   UNL     1      43.573 -13.458   6.694  1.00  0.00     0.235 C 
HETATM    7  C   UNL     1      42.846 -14.795   6.644  1.00  0.00     0.035 C 
ENDROOT
BRANCH   1   8
HETATM    8  C   UNL     1      42.216 -14.990   4.103  1.00  0.00     0.119 A 
HETATM    9  N   UNL     1      42.791 -13.768   3.591  1.00  0.00    -0.324 N 
HETATM   10  C   UNL     1      42.093 -13.275   2.508  1.00  0.00     0.326 A 
HETATM   11  H   UNL     1      43.776 -13.530   3.625  1.00  0.00     0.165 HD
HETATM   12  O   UNL     1      42.462 -12.278   1.918  1.00  0.00    -0.247 OA
HETATM   13  N   UNL     1      40.996 -14.048   2.298  1.00  0.00    -0.268 N 
HETATM   14  C   UNL     1      40.995 -15.108   3.167  1.00  0.00     0.256 A 
HETATM   15  O   UNL     1      40.148 -15.986   3.239  1.00  0.00    -0.270 OA
BRANCH   8  16
HETATM   16  C   UNL     1      43.169 -16.188   3.901  1.00  0.00     0.037 C 
HETATM   17  C   UNL     1      43.236 -16.736   2.477  1.00  0.00     0.008 C 
ENDBRANCH   8  16
BRANCH  13  18
HETATM   18  C   UNL     1      39.916 -13.830   1.343  1.00  0.00     0.142 C 
BRANCH  18  19
HETATM   19  C   UNL     1      39.928 -14.698   0.083  1.00  0.00     0.068 C 
BRANCH  19  20
HETATM   20  C   UNL     1      39.957 -13.855  -1.156  1.00  0.00     0.010 A 
HETATM   21  S   UNL     1      40.736 -12.323  -1.151  1.00  0.00    -0.085 SA
HETATM   22  C   UNL     1      40.307 -12.115  -2.794  1.00  0.00     0.166 A 
HETATM   23  N   UNL     1      39.626 -13.097  -3.338  1.00  0.00    -0.258 NA
HETATM   24  C   UNL     1      39.426 -14.106  -2.411  1.00  0.00     0.044 A 
HETATM   25  C   UNL     1      38.679 -15.318  -2.843  1.00  0.00     0.071 C 
ENDBRANCH  19  20
ENDBRANCH  18  19
ENDBRANCH  13  18
ENDBRANCH   1   8
BRANCH   4  26
HETATM   26  C   UNL     1      43.382 -10.992   6.660  1.00  0.00     0.276 C 
BRANCH  26  27
HETATM   27  C   UNL     1      43.951 -10.456   7.940  1.00  0.00     0.004 A 
HETATM   28  C   UNL     1      43.111 -10.073   8.987  1.00  0.00     0.107 A 
HETATM   29  C   UNL     1      43.631  -9.720  10.232  1.00  0.00     0.102 A 
HETATM   30  C   UNL     1      45.006  -9.650  10.425  1.00  0.00     0.039 A 
HETATM   31  C   UNL     1      45.861  -9.990   9.376  1.00  0.00     0.003 A 
HETATM   32  C   UNL     1      45.339 -10.408   8.147  1.00  0.00     0.012 A 
BRANCH  28  33
HETATM   33  O   UNL     1      41.756 -10.033   8.773  1.00  0.00    -0.357 OA
HETATM   34  H   UNL     1      41.630 -10.447   7.889  1.00  0.00     0.218 HD
ENDBRANCH  28  33
BRANCH  29  35
HETATM   35  O   UNL     1      42.774  -9.419  11.254  1.00  0.00    -0.349 OA
BRANCH  35  36
HETATM   36  C   UNL     1      42.854  -8.023  11.590  1.00  0.00     0.171 C 
HETATM   37  C   UNL     1      43.146  -7.867  13.069  1.00  0.00     0.034 C 
ENDBRANCH  35  36
ENDBRANCH  29  35
ENDBRANCH  26  27
ENDBRANCH   4  26
TORSDOF 10
ENDMDL
MODEL 2
REMARK VINA RESULT:      -8.1      4.023      5.413
REMARK  10 active torsions:
REMARK  status: ('A' for Active; 'I' for Inactive)
REMARK    1  A    between atoms: C_2  and  C_3 
REMARK    2  A    between atoms: C_3  and  C_4 
REMARK    3  A    between atoms: N_7  and  C_9 
REMARK    4  A    between atoms: C_9  and  C_10 
REMARK    5  A    between atoms: C_11  and  O_12 
REMARK    6  A    between atoms: C_13  and  O_14 
REMARK    7  A    between atoms: O_14  and  C_15 
REMARK    8  A    between atoms: N_25  and  C_26 
REMARK    9  A    between atoms: C_26  and  C_27 
REMARK   10  A    between atoms: C_27  and  C_28 
ROOT
HETATM    1  C   UNL     1      43.064 -11.633   5.359  1.00  0.00     0.026 C 
HETATM    2  C   UNL     1      44.600 -11.645   5.516  1.00  0.00     0.035 C 
HETATM    3  C   UNL     1      45.085 -11.598   6.956  1.00  0.00     0.235 C 
HETATM    4  N   UNL     1      44.453 -10.465   7.712  1.00  0.00    -0.067 N 
HETATM    5  H   UNL     1      44.918  -9.593   7.404  1.00  0.00     0.280 HD
HETATM    6  C   UNL     1      42.976 -10.271   7.534  1.00  0.00     0.235 C 
HETATM    7  C   UNL     1      42.555 -10.371   6.074  1.00  0.00     0.035 C 
ENDROOT
BRANCH   1   8
HETATM    8  C   UNL     1      42.318 -12.963   5.739  1.00  0.00     0.119 A 
HETATM    9  N   UNL     1      42.571 -13.384   7.097  1.00  0.00    -0.324 N 
HETATM   10  C   UNL     1      43.184 -14.618   7.156  1.00  0.00     0.326 A 
HETATM   11  H   UNL     1      42.002 -13.136   7.898  1.00  0.00     0.165 HD
HETATM   12  O   UNL     1      43.431 -15.152   8.222  1.00  0.00    -0.247 OA
HETATM   13  N   UNL     1      43.459 -15.039   5.895  1.00  0.00    -0.268 N 
HETATM   14  C   UNL     1      42.957 -14.147   4.983  1.00  0.00     0.256 A 
HETATM   15  O   UNL     1      43.036 -14.232   3.766  1.00  0.00    -0.270 OA
BRANCH   8  16
HETATM   16  C   UNL     1      40.804 -12.889   5.446  1.00  0.00     0.037 C 
HETATM   17  C   UNL     1      40.071 -14.230   5.456  1.00  0.00     0.008 C 
ENDBRANCH   8  16
BRANCH  13  18
HETATM   18  C   UNL     1      44.204 -16.224   5.488  1.00  0.00     0.142 C 
BRANCH  18  19
HETATM   19  C   UNL     1      43.522 -17.575   5.709  1.00  0.00     0.068 C 
BRANCH  19  20
HETATM   20  C   UNL     1      43.570 -18.418   4.471  1.00  0.00     0.010 A 
HETATM   21  S   UNL     1      43.198 -17.736   2.937  1.00  0.00    -0.085 SA
HETATM   22  C   UNL     1      43.479 -19.259   2.209  1.00  0.00     0.166 A 
HETATM   23  N   UNL     1      43.823 -20.230   3.023  1.00  0.00    -0.258 NA
HETATM   24  C   UNL     1      43.887 -19.758   4.323  1.00  0.00     0.044 A 
HETATM   25  C   UNL     1      44.274 -20.712   5.397  1.00  0.00     0.071 C 
ENDBRANCH  19  20
ENDBRANCH  18  19
ENDBRANCH  13  18
ENDBRANCH   1   8
BRANCH   4  26
HETATM   26  C   UNL     1      44.791 -10.546   9.191  1.00  0.00     0.276 C 
BRANCH  26  27
HETATM   27  C   UNL     1      43.973  -9.646  10.068  1.00  0.00     0.004 A 
HETATM   28  C   UNL     1      43.439 -10.115  11.270  1.00  0.00     0.107 A 
HETATM   29  C   UNL     1      42.809  -9.249  12.162  1.00  0.00     0.102 A 
HETATM   30  C   UNL     1      42.614  -7.914  11.826  1.00  0.00     0.039 A 
HETATM   31  C   UNL     1      43.104  -7.438  10.610  1.00  0.00     0.003 A 
HETATM   32  C   UNL     1      43.795  -8.292   9.744  1.00  0.00     0.012 A 
BRANCH  28  33
HETATM   33  O   UNL     1      43.530 -11.453  11.561  1.00  0.00    -0.357 OA
HETATM   34  H   UNL     1      44.149 -11.501  12.324  1.00  0.00     0.218 HD
ENDBRANCH  28  33
BRANCH  29  35
HETATM   35  O   UNL     1      42.362  -9.732  13.361  1.00  0.00    -0.349 OA
BRANCH  35  36
HETATM   36  C   UNL     1      40.994  -9.348  13.586  1.00  0.00     0.171 C 
HETATM   37  C   UNL     1      40.065 -10.412  13.037  1.00  0.00     0.034 C 
ENDBRANCH  35  36
ENDBRANCH  29  35
ENDBRANCH  26  27
ENDBRANCH   4  26
TORSDOF 10
ENDMDL
MODEL 3
REMARK VINA RESULT:      -8.0      4.173      8.986
REMARK  10 active torsions:
REMARK  status: ('A' for Active; 'I' for Inactive)
REMARK    1  A    between atoms: C_2  and  C_3 
REMARK    2  A    between atoms: C_3  and  C_4 
REMARK    3  A    between atoms: N_7  and  C_9 
REMARK    4  A    between atoms: C_9  and  C_10 
REMARK    5  A    between atoms: C_11  and  O_12 
REMARK    6  A    between atoms: C_13  and  O_14 
REMARK    7  A    between atoms: O_14  and  C_15 
REMARK    8  A    between atoms: N_25  and  C_26 
REMARK    9  A    between atoms: C_26  and  C_27 
REMARK   10  A    between atoms: C_27  and  C_28 
ROOT
HETATM    1  C   UNL     1      40.428 -12.683   4.589  1.00  0.00     0.026 C 
HETATM    2  C   UNL     1      39.457 -13.179   3.497  1.00  0.00     0.035 C 
HETATM    3  C   UNL     1      39.846 -12.783   2.082  1.00  0.00     0.235 C 
HETATM    4  N   UNL     1      40.102 -11.307   1.975  1.00  0.00    -0.067 N 
HETATM    5  H   UNL     1      39.180 -10.834   1.979  1.00  0.00     0.280 HD
HETATM    6  C   UNL     1      40.930 -10.682   3.059  1.00  0.00     0.235 C 
HETATM    7  C   UNL     1      40.512 -11.154   4.445  1.00  0.00     0.035 C 
ENDROOT
BRANCH   1   8
HETATM    8  C   UNL     1      41.812 -13.423   4.675  1.00  0.00     0.119 A 
HETATM    9  N   UNL     1      42.648 -13.193   3.521  1.00  0.00    -0.324 N 
HETATM   10  C   UNL     1      42.938 -14.360   2.844  1.00  0.00     0.326 A 
HETATM   11  H   UNL     1      43.337 -12.454   3.440  1.00  0.00     0.165 HD
HETATM   12  O   UNL     1      43.670 -14.362   1.872  1.00  0.00    -0.247 OA
HETATM   13  N   UNL     1      42.263 -15.387   3.420  1.00  0.00    -0.268 N 
HETATM   14  C   UNL     1      41.593 -14.944   4.531  1.00  0.00     0.256 A 
HETATM   15  O   UNL     1      40.891 -15.617   5.272  1.00  0.00    -0.270 OA
BRANCH   8  16
HETATM   16  C   UNL     1      42.564 -13.107   5.986  1.00  0.00     0.037 C 
HETATM   17  C   UNL     1      43.651 -14.109   6.372  1.00  0.00     0.008 C 
ENDBRANCH   8  16
BRANCH  13  18
HETATM   18  C   UNL     1      42.176 -16.769   2.965  1.00  0.00     0.142 C 
BRANCH  18  19
HETATM   19  C   UNL     1      43.493 -17.456   2.599  1.00  0.00     0.068 C 
BRANCH  19  20
HETATM   20  C   UNL     1      43.713 -18.685   3.428  1.00  0.00     0.010 A 
HETATM   21  S   UNL     1      43.971 -18.560   5.123  1.00  0.00    -0.085 SA
HETATM   22  C   UNL     1      44.114 -20.263   5.213  1.00  0.00     0.166 A 
HETATM   23  N   UNL     1      43.987 -20.910   4.077  1.00  0.00    -0.258 NA
HETATM   24  C   UNL     1      43.748 -20.017   3.046  1.00  0.00     0.044 A 
HETATM   25  C   UNL     1      43.564 -20.562   1.674  1.00  0.00     0.071 C 
ENDBRANCH  19  20
ENDBRANCH  18  19
ENDBRANCH  13  18
ENDBRANCH   1   8
BRANCH   4  26
HETATM   26  C   UNL     1      40.677 -10.955   0.613  1.00  0.00     0.276 C 
BRANCH  26  27
HETATM   27  C   UNL     1      39.738 -11.174  -0.535  1.00  0.00     0.004 A 
HETATM   28  C   UNL     1      40.043 -12.097  -1.537  1.00  0.00     0.107 A 
HETATM   29  C   UNL     1      39.111 -12.419  -2.524  1.00  0.00     0.102 A 
HETATM   30  C   UNL     1      37.893 -11.753  -2.583  1.00  0.00     0.039 A 
HETATM   31  C   UNL     1      37.588 -10.798  -1.614  1.00  0.00     0.003 A 
HETATM   32  C   UNL     1      38.496 -10.522  -0.585  1.00  0.00     0.012 A 
BRANCH  28  33
HETATM   33  O   UNL     1      41.285 -12.680  -1.550  1.00  0.00    -0.357 OA
HETATM   34  H   UNL     1      41.108 -13.647  -1.515  1.00  0.00     0.218 HD
ENDBRANCH  28  33
BRANCH  29  35
HETATM   35  O   UNL     1      39.419 -13.380  -3.447  1.00  0.00    -0.349 OA
BRANCH  35  36
HETATM   36  C   UNL     1      38.417 -14.412  -3.459  1.00  0.00     0.171 C 
HETATM   37  C   UNL     1      38.745 -15.459  -2.414  1.00  0.00     0.034 C 
ENDBRANCH  35  36
ENDBRANCH  29  35
ENDBRANCH  26  27
ENDBRANCH   4  26
TORSDOF 10
ENDMDL
MODEL 4
REMARK VINA RESULT:      -8.0      3.046      4.862
REMARK  10 active torsions:
REMARK  status: ('A' for Active; 'I' for Inactive)
REMARK    1  A    between atoms: C_2  and  C_3 
REMARK    2  A    between atoms: C_3  and  C_4 
REMARK    3  A    between atoms: N_7  and  C_9 
REMARK    4  A    between atoms: C_9  and  C_10 
REMARK    5  A    between atoms: C_11  and  O_12 
REMARK    6  A    between atoms: C_13  and  O_14 
REMARK    7  A    between atoms: O_14  and  C_15 
REMARK    8  A    between atoms: N_25  and  C_26 
REMARK    9  A    between atoms: C_26  and  C_27 
REMARK   10  A    between atoms: C_27  and  C_28 
ROOT
HETATM    1  C   UNL     1      42.865 -12.356   3.590  1.00  0.00     0.026 C 
HETATM    2  C   UNL     1      43.819 -12.637   4.771  1.00  0.00     0.035 C 
HETATM    3  C   UNL     1      43.349 -12.081   6.105  1.00  0.00     0.235 C 
HETATM    4  N   UNL     1      43.001 -10.623   6.001  1.00  0.00    -0.067 N 
HETATM    5  H   UNL     1      43.893 -10.097   5.962  1.00  0.00     0.280 HD
HETATM    6  C   UNL     1      42.183 -10.205   4.816  1.00  0.00     0.235 C 
HETATM    7  C   UNL     1      42.684 -10.830   3.521  1.00  0.00     0.035 C 
ENDROOT
BRANCH   1   8
HETATM    8  C   UNL     1      41.533 -13.189   3.561  1.00  0.00     0.119 A 
HETATM    9  N   UNL     1      41.333 -13.977   4.754  1.00  0.00    -0.324 N 
HETATM   10  C   UNL     1      41.279 -15.329   4.486  1.00  0.00     0.326 A 
HETATM   11  H   UNL     1      40.823 -13.670   5.575  1.00  0.00     0.165 HD
HETATM   12  O   UNL     1      41.069 -16.141   5.367  1.00  0.00    -0.247 OA
HETATM   13  N   UNL     1      41.527 -15.530   3.167  1.00  0.00    -0.268 N 
HETATM   14  C   UNL     1      41.658 -14.326   2.524  1.00  0.00     0.256 A 
HETATM   15  O   UNL     1      41.886 -14.159   1.335  1.00  0.00    -0.270 OA
BRANCH   8  16
HETATM   16  C   UNL     1      40.300 -12.311   3.254  1.00  0.00     0.037 C 
HETATM   17  C   UNL     1      39.054 -13.072   2.803  1.00  0.00     0.008 C 
ENDBRANCH   8  16
BRANCH  13  18
HETATM   18  C   UNL     1      41.687 -16.799   2.468  1.00  0.00     0.142 C 
BRANCH  18  19
HETATM   19  C   UNL     1      43.120 -17.234   2.152  1.00  0.00     0.068 C 
BRANCH  19  20
HETATM   20  C   UNL     1      43.492 -18.471   2.911  1.00  0.00     0.010 A 
HETATM   21  S   UNL     1      43.315 -20.022   2.192  1.00  0.00    -0.085 SA
HETATM   22  C   UNL     1      43.908 -20.740   3.628  1.00  0.00     0.166 A 
HETATM   23  N   UNL     1      44.221 -19.910   4.597  1.00  0.00    -0.258 NA
HETATM   24  C   UNL     1      43.995 -18.605   4.195  1.00  0.00     0.044 A 
HETATM   25  C   UNL     1      44.302 -17.512   5.157  1.00  0.00     0.071 C 
ENDBRANCH  19  20
ENDBRANCH  18  19
ENDBRANCH  13  18
ENDBRANCH   1   8
BRANCH   4  26
HETATM   26  C   UNL     1      42.350 -10.130   7.282  1.00  0.00     0.276 C 
BRANCH  26  27
HETATM   27  C   UNL     1      43.314  -9.794   8.381  1.00  0.00     0.004 A 
HETATM   28  C   UNL     1      42.895  -9.766   9.712  1.00  0.00     0.107 A 
HETATM   29  C   UNL     1      43.812  -9.606  10.751  1.00  0.00     0.102 A 
HETATM   30  C   UNL     1      45.154  -9.375  10.473  1.00  0.00     0.039 A 
HETATM   31  C   UNL     1      45.584  -9.359   9.146  1.00  0.00     0.003 A 
HETATM   32  C   UNL     1      44.675  -9.585   8.107  1.00  0.00     0.012 A 
BRANCH  28  33
HETATM   33  O   UNL     1      41.557  -9.884   9.991  1.00  0.00    -0.357 OA
HETATM   34  H   UNL     1      41.144 -10.133   9.134  1.00  0.00     0.218 HD
ENDBRANCH  28  33
BRANCH  29  35
HETATM   35  O   UNL     1      43.373  -9.656  12.045  1.00  0.00    -0.349 OA
BRANCH  35  36
HETATM   36  C   UNL     1      43.323  -8.336  12.615  1.00  0.00     0.171 C 
HETATM   37  C   UNL     1      42.140  -8.227  13.556  1.00  0.00     0.034 C 
ENDBRANCH  35  36
ENDBRANCH  29  35
ENDBRANCH  26  27
ENDBRANCH   4  26
TORSDOF 10
ENDMDL
MODEL 5
REMARK VINA RESULT:      -7.9      1.777      2.151
REMARK  10 active torsions:
REMARK  status: ('A' for Active; 'I' for Inactive)
REMARK    1  A    between atoms: C_2  and  C_3 
REMARK    2  A    between atoms: C_3  and  C_4 
REMARK    3  A    between atoms: N_7  and  C_9 
REMARK    4  A    between atoms: C_9  and  C_10 
REMARK    5  A    between atoms: C_11  and  O_12 
REMARK    6  A    between atoms: C_13  and  O_14 
REMARK    7  A    between atoms: O_14  and  C_15 
REMARK    8  A    between atoms: N_25  and  C_26 
REMARK    9  A    between atoms: C_26  and  C_27 
REMARK   10  A    between atoms: C_27  and  C_28 
ROOT
HETATM    1  C   UNL     1      41.754 -15.394   6.349  1.00  0.00     0.026 C 
HETATM    2  C   UNL     1      40.821 -14.173   6.200  1.00  0.00     0.035 C 
HETATM    3  C   UNL     1      41.523 -12.894   5.774  1.00  0.00     0.235 C 
HETATM    4  N   UNL     1      42.702 -12.594   6.655  1.00  0.00    -0.067 N 
HETATM    5  H   UNL     1      42.330 -12.230   7.551  1.00  0.00     0.280 HD
HETATM    6  C   UNL     1      43.614 -13.739   6.980  1.00  0.00     0.235 C 
HETATM    7  C   UNL     1      42.844 -14.997   7.359  1.00  0.00     0.035 C 
ENDROOT
BRANCH   1   8
HETATM    8  C   UNL     1      42.281 -16.032   5.013  1.00  0.00     0.119 A 
HETATM    9  N   UNL     1      43.258 -15.209   4.342  1.00  0.00    -0.324 N 
HETATM   10  C   UNL     1      42.840 -14.818   3.087  1.00  0.00     0.326 A 
HETATM   11  H   UNL     1      44.262 -15.275   4.470  1.00  0.00     0.165 HD
HETATM   12  O   UNL     1      43.556 -14.158   2.358  1.00  0.00    -0.247 OA
HETATM   13  N   UNL     1      41.570 -15.253   2.887  1.00  0.00    -0.268 N 
HETATM   14  C   UNL     1      41.159 -16.010   3.954  1.00  0.00     0.256 A 
HETATM   15  O   UNL     1      40.069 -16.547   4.086  1.00  0.00    -0.270 OA
BRANCH   8  16
HETATM   16  C   UNL     1      42.803 -17.471   5.218  1.00  0.00     0.037 C 
HETATM   17  C   UNL     1      43.773 -17.971   4.148  1.00  0.00     0.008 C 
ENDBRANCH   8  16
BRANCH  13  18
HETATM   18  C   UNL     1      40.692 -14.969   1.758  1.00  0.00     0.142 C 
BRANCH  18  19
HETATM   19  C   UNL     1      39.837 -13.704   1.853  1.00  0.00     0.068 C 
BRANCH  19  20
HETATM   20  C   UNL     1      40.276 -12.676   0.854  1.00  0.00     0.010 A 
HETATM   21  S   UNL     1      39.718 -12.745  -0.771  1.00  0.00    -0.085 SA
HETATM   22  C   UNL     1      40.634 -11.346  -1.130  1.00  0.00     0.166 A 
HETATM   23  N   UNL     1      41.324 -10.840  -0.133  1.00  0.00    -0.258 NA
HETATM   24  C   UNL     1      41.120 -11.589   1.013  1.00  0.00     0.044 A 
HETATM   25  C   UNL     1      41.811 -11.165   2.261  1.00  0.00     0.071 C 
ENDBRANCH  19  20
ENDBRANCH  18  19
ENDBRANCH  13  18
ENDBRANCH   1   8
BRANCH   4  26
HETATM   26  C   UNL     1      43.507 -11.429   6.103  1.00  0.00     0.276 C 
BRANCH  26  27
HETATM   27  C   UNL     1      44.177 -10.586   7.146  1.00  0.00     0.004 A 
HETATM   28  C   UNL     1      43.428  -9.948   8.136  1.00  0.00     0.107 A 
HETATM   29  C   UNL     1      44.051  -9.290   9.196  1.00  0.00     0.102 A 
HETATM   30  C   UNL     1      45.435  -9.174   9.235  1.00  0.00     0.039 A 
HETATM   31  C   UNL     1      46.199  -9.770   8.231  1.00  0.00     0.003 A 
HETATM   32  C   UNL     1      45.577 -10.487   7.203  1.00  0.00     0.012 A 
BRANCH  28  33
HETATM   33  O   UNL     1      42.059  -9.964   8.049  1.00  0.00    -0.357 OA
HETATM   34  H   UNL     1      41.836 -10.886   7.788  1.00  0.00     0.218 HD
ENDBRANCH  28  33
BRANCH  29  35
HETATM   35  O   UNL     1      43.284  -8.739  10.185  1.00  0.00    -0.349 OA
BRANCH  35  36
HETATM   36  C   UNL     1      43.780  -9.114  11.482  1.00  0.00     0.171 C 
HETATM   37  C   UNL     1      43.198 -10.453  11.887  1.00  0.00     0.034 C 
ENDBRANCH  35  36
ENDBRANCH  29  35
ENDBRANCH  26  27
ENDBRANCH   4  26
TORSDOF 10
ENDMDL
MODEL 6
REMARK VINA RESULT:      -7.6      3.555      8.083
REMARK  10 active torsions:
REMARK  status: ('A' for Active; 'I' for Inactive)
REMARK    1  A    between atoms: C_2  and  C_3 
REMARK    2  A    between atoms: C_3  and  C_4 
REMARK    3  A    between atoms: N_7  and  C_9 
REMARK    4  A    between atoms: C_9  and  C_10 
REMARK    5  A    between atoms: C_11  and  O_12 
REMARK    6  A    between atoms: C_13  and  O_14 
REMARK    7  A    between atoms: O_14  and  C_15 
REMARK    8  A    between atoms: N_25  and  C_26 
REMARK    9  A    between atoms: C_26  and  C_27 
REMARK   10  A    between atoms: C_27  and  C_28 
ROOT
HETATM    1  C   UNL     1      40.606 -11.306   2.470  1.00  0.00     0.026 C 
HETATM    2  C   UNL     1      39.144 -11.791   2.368  1.00  0.00     0.035 C 
HETATM    3  C   UNL     1      38.964 -13.290   2.543  1.00  0.00     0.235 C 
HETATM    4  N   UNL     1      39.875 -14.063   1.632  1.00  0.00    -0.067 N 
HETATM    5  H   UNL     1      39.474 -14.008   0.679  1.00  0.00     0.280 HD
HETATM    6  C   UNL     1      41.299 -13.601   1.547  1.00  0.00     0.235 C 
HETATM    7  C   UNL     1      41.406 -12.087   1.413  1.00  0.00     0.035 C 
ENDROOT
BRANCH   1   8
HETATM    8  C   UNL     1      41.234 -11.295   3.910  1.00  0.00     0.119 A 
HETATM    9  N   UNL     1      40.828 -12.426   4.712  1.00  0.00    -0.324 N 
HETATM   10  C   UNL     1      40.142 -12.044   5.846  1.00  0.00     0.326 A 
HETATM   11  H   UNL     1      41.331 -13.304   4.776  1.00  0.00     0.165 HD
HETATM   12  O   UNL     1      39.765 -12.862   6.663  1.00  0.00    -0.247 OA
HETATM   13  N   UNL     1      39.966 -10.698   5.826  1.00  0.00    -0.268 N 
HETATM   14  C   UNL     1      40.603 -10.157   4.739  1.00  0.00     0.256 A 
HETATM   15  O   UNL     1      40.637  -8.974   4.432  1.00  0.00    -0.270 OA
BRANCH   8  16
HETATM   16  C   UNL     1      42.771 -11.153   3.877  1.00  0.00     0.037 C 
HETATM   17  C   UNL     1      43.548 -12.313   4.499  1.00  0.00     0.008 C 
ENDBRANCH   8  16
BRANCH  13  18
HETATM   18  C   UNL     1      39.196  -9.881   6.756  1.00  0.00     0.142 C 
BRANCH  18  19
HETATM   19  C   UNL     1      39.859  -9.554   8.095  1.00  0.00     0.068 C 
BRANCH  19  20
HETATM   20  C   UNL     1      40.840  -8.430   7.955  1.00  0.00     0.010 A 
HETATM   21  S   UNL     1      40.324  -6.797   8.104  1.00  0.00    -0.085 SA
HETATM   22  C   UNL     1      41.930  -6.279   7.826  1.00  0.00     0.166 A 
HETATM   23  N   UNL     1      42.814  -7.230   7.626  1.00  0.00    -0.258 NA
HETATM   24  C   UNL     1      42.203  -8.469   7.707  1.00  0.00     0.044 A 
HETATM   25  C   UNL     1      43.046  -9.681   7.519  1.00  0.00     0.071 C 
ENDBRANCH  19  20
ENDBRANCH  18  19
ENDBRANCH  13  18
ENDBRANCH   1   8
BRANCH   4  26
HETATM   26  C   UNL     1      39.829 -15.547   1.954  1.00  0.00     0.276 C 
BRANCH  26  27
HETATM   27  C   UNL     1      41.037 -16.065   2.676  1.00  0.00     0.004 A 
HETATM   28  C   UNL     1      41.114 -16.006   4.068  1.00  0.00     0.107 A 
HETATM   29  C   UNL     1      42.160 -16.621   4.756  1.00  0.00     0.102 A 
HETATM   30  C   UNL     1      43.200 -17.224   4.060  1.00  0.00     0.039 A 
HETATM   31  C   UNL     1      43.160 -17.256   2.665  1.00  0.00     0.003 A 
HETATM   32  C   UNL     1      42.078 -16.698   1.977  1.00  0.00     0.012 A 
BRANCH  28  33
HETATM   33  O   UNL     1      40.149 -15.319   4.760  1.00  0.00    -0.357 OA
HETATM   34  H   UNL     1      40.501 -15.247   5.676  1.00  0.00     0.218 HD
ENDBRANCH  28  33
BRANCH  29  35
HETATM   35  O   UNL     1      42.163 -16.602   6.124  1.00  0.00    -0.349 OA
BRANCH  35  36
HETATM   36  C   UNL     1      43.216 -15.755   6.618  1.00  0.00     0.171 C 
HETATM   37  C   UNL     1      43.099 -15.615   8.122  1.00  0.00     0.034 C 
ENDBRANCH  35  36
ENDBRANCH  29  35
ENDBRANCH  26  27
ENDBRANCH   4  26
TORSDOF 10
ENDMDL
MODEL 7
REMARK VINA RESULT:      -7.5      3.249     10.049
REMARK  10 active torsions:
REMARK  status: ('A' for Active; 'I' for Inactive)
REMARK    1  A    between atoms: C_2  and  C_3 
REMARK    2  A    between atoms: C_3  and  C_4 
REMARK    3  A    between atoms: N_7  and  C_9 
REMARK    4  A    between atoms: C_9  and  C_10 
REMARK    5  A    between atoms: C_11  and  O_12 
REMARK    6  A    between atoms: C_13  and  O_14 
REMARK    7  A    between atoms: O_14  and  C_15 
REMARK    8  A    between atoms: N_25  and  C_26 
REMARK    9  A    between atoms: C_26  and  C_27 
REMARK   10  A    between atoms: C_27  and  C_28 
ROOT
HETATM    1  C   UNL     1      42.062 -15.765   3.112  1.00  0.00     0.026 C 
HETATM    2  C   UNL     1      42.851 -14.858   2.144  1.00  0.00     0.035 C 
HETATM    3  C   UNL     1      42.025 -13.758   1.499  1.00  0.00     0.235 C 
HETATM    4  N   UNL     1      40.780 -14.306   0.863  1.00  0.00    -0.067 N 
HETATM    5  H   UNL     1      41.064 -14.770  -0.018  1.00  0.00     0.280 HD
HETATM    6  C   UNL     1      39.993 -15.303   1.661  1.00  0.00     0.235 C 
HETATM    7  C   UNL     1      40.887 -16.351   2.311  1.00  0.00     0.035 C 
ENDROOT
BRANCH   1   8
HETATM    8  C   UNL     1      41.676 -15.131   4.498  1.00  0.00     0.119 A 
HETATM    9  N   UNL     1      40.982 -13.871   4.368  1.00  0.00    -0.324 N 
HETATM   10  C   UNL     1      41.672 -12.831   4.955  1.00  0.00     0.326 A 
HETATM   11  H   UNL     1      39.975 -13.764   4.326  1.00  0.00     0.165 HD
HETATM   12  O   UNL     1      41.213 -11.705   4.984  1.00  0.00    -0.247 OA
HETATM   13  N   UNL     1      42.866 -13.290   5.408  1.00  0.00    -0.268 N 
HETATM   14  C   UNL     1      42.952 -14.645   5.216  1.00  0.00     0.256 A 
HETATM   15  O   UNL     1      43.897 -15.362   5.512  1.00  0.00    -0.270 OA
BRANCH   8  16
HETATM   16  C   UNL     1      40.892 -16.115   5.394  1.00  0.00     0.037 C 
HETATM   17  C   UNL     1      40.243 -15.495   6.630  1.00  0.00     0.008 C 
ENDBRANCH   8  16
BRANCH  13  18
HETATM   18  C   UNL     1      43.961 -12.521   5.986  1.00  0.00     0.142 C 
BRANCH  18  19
HETATM   19  C   UNL     1      43.860 -12.194   7.477  1.00  0.00     0.068 C 
BRANCH  19  20
HETATM   20  C   UNL     1      44.382 -10.819   7.767  1.00  0.00     0.010 A 
HETATM   21  S   UNL     1      46.074 -10.528   7.852  1.00  0.00    -0.085 SA
HETATM   22  C   UNL     1      45.759  -8.881   8.192  1.00  0.00     0.166 A 
HETATM   23  N   UNL     1      44.492  -8.539   8.250  1.00  0.00    -0.258 NA
HETATM   24  C   UNL     1      43.692  -9.641   8.000  1.00  0.00     0.044 A 
HETATM   25  C   UNL     1      42.216  -9.452   8.010  1.00  0.00     0.071 C 
ENDBRANCH  19  20
ENDBRANCH  18  19
ENDBRANCH  13  18
ENDBRANCH   1   8
BRANCH   4  26
HETATM   26  C   UNL     1      39.870 -13.181   0.397  1.00  0.00     0.276 C 
BRANCH  26  27
HETATM   27  C   UNL     1      39.105 -13.479  -0.859  1.00  0.00     0.004 A 
HETATM   28  C   UNL     1      38.080 -12.633  -1.286  1.00  0.00     0.107 A 
HETATM   29  C   UNL     1      37.468 -12.815  -2.525  1.00  0.00     0.102 A 
HETATM   30  C   UNL     1      37.803 -13.905  -3.320  1.00  0.00     0.039 A 
HETATM   31  C   UNL     1      38.797 -14.785  -2.890  1.00  0.00     0.003 A 
HETATM   32  C   UNL     1      39.457 -14.564  -1.677  1.00  0.00     0.012 A 
BRANCH  28  33
HETATM   33  O   UNL     1      37.667 -11.618  -0.459  1.00  0.00    -0.357 OA
HETATM   34  H   UNL     1      37.777 -11.976   0.450  1.00  0.00     0.218 HD
ENDBRANCH  28  33
BRANCH  29  35
HETATM   35  O   UNL     1      36.518 -11.923  -2.940  1.00  0.00    -0.349 OA
BRANCH  35  36
HETATM   36  C   UNL     1      35.504 -12.586  -3.716  1.00  0.00     0.171 C 
HETATM   37  C   UNL     1      34.378 -11.619  -4.022  1.00  0.00     0.034 C 
ENDBRANCH  35  36
ENDBRANCH  29  35
ENDBRANCH  26  27
ENDBRANCH   4  26
TORSDOF 10
ENDMDL
MODEL 8
REMARK VINA RESULT:      -7.5      3.604     10.293
REMARK  10 active torsions:
REMARK  status: ('A' for Active; 'I' for Inactive)
REMARK    1  A    between atoms: C_2  and  C_3 
REMARK    2  A    between atoms: C_3  and  C_4 
REMARK    3  A    between atoms: N_7  and  C_9 
REMARK    4  A    between atoms: C_9  and  C_10 
REMARK    5  A    between atoms: C_11  and  O_12 
REMARK    6  A    between atoms: C_13  and  O_14 
REMARK    7  A    between atoms: O_14  and  C_15 
REMARK    8  A    between atoms: N_25  and  C_26 
REMARK    9  A    between atoms: C_26  and  C_27 
REMARK   10  A    between atoms: C_27  and  C_28 
ROOT
HETATM    1  C   UNL     1      43.928 -10.210   6.793  1.00  0.00     0.026 C 
HETATM    2  C   UNL     1      42.784 -10.420   5.778  1.00  0.00     0.035 C 
HETATM    3  C   UNL     1      42.044 -11.738   5.931  1.00  0.00     0.235 C 
HETATM    4  N   UNL     1      42.992 -12.903   5.954  1.00  0.00    -0.067 N 
HETATM    5  H   UNL     1      43.310 -13.059   4.980  1.00  0.00     0.280 HD
HETATM    6  C   UNL     1      44.217 -12.762   6.808  1.00  0.00     0.235 C 
HETATM    7  C   UNL     1      44.885 -11.404   6.635  1.00  0.00     0.035 C 
ENDROOT
BRANCH   1   8
HETATM    8  C   UNL     1      43.497  -9.890   8.269  1.00  0.00     0.119 A 
HETATM    9  N   UNL     1      42.083 -10.077   8.497  1.00  0.00    -0.324 N 
HETATM   10  C   UNL     1      41.455  -8.909   8.877  1.00  0.00     0.326 A 
HETATM   11  H   UNL     1      41.655 -10.934   8.828  1.00  0.00     0.165 HD
HETATM   12  O   UNL     1      40.271  -8.889   9.157  1.00  0.00    -0.247 OA
HETATM   13  N   UNL     1      42.350  -7.889   8.834  1.00  0.00    -0.268 N 
HETATM   14  C   UNL     1      43.595  -8.370   8.518  1.00  0.00     0.256 A 
HETATM   15  O   UNL     1      44.618  -7.712   8.398  1.00  0.00    -0.270 OA
BRANCH   8  16
HETATM   16  C   UNL     1      44.340 -10.663   9.307  1.00  0.00     0.037 C 
HETATM   17  C   UNL     1      45.417  -9.842  10.014  1.00  0.00     0.008 C 
ENDBRANCH   8  16
BRANCH  13  18
HETATM   18  C   UNL     1      42.101  -6.468   9.039  1.00  0.00     0.142 C 
BRANCH  18  19
HETATM   19  C   UNL     1      42.482  -5.892  10.404  1.00  0.00     0.068 C 
BRANCH  19  20
HETATM   20  C   UNL     1      41.666  -6.507  11.500  1.00  0.00     0.010 A 
HETATM   21  S   UNL     1      40.039  -6.014  11.757  1.00  0.00    -0.085 SA
HETATM   22  C   UNL     1      39.926  -7.118  13.059  1.00  0.00     0.166 A 
HETATM   23  N   UNL     1      41.007  -7.818  13.314  1.00  0.00    -0.258 NA
HETATM   24  C   UNL     1      42.010  -7.483  12.421  1.00  0.00     0.044 A 
HETATM   25  C   UNL     1      43.319  -8.181  12.541  1.00  0.00     0.071 C 
ENDBRANCH  19  20
ENDBRANCH  18  19
ENDBRANCH  13  18
ENDBRANCH   1   8
BRANCH   4  26
HETATM   26  C   UNL     1      42.262 -14.189   6.302  1.00  0.00     0.276 C 
BRANCH  26  27
HETATM   27  C   UNL     1      42.089 -15.137   5.153  1.00  0.00     0.004 A 
HETATM   28  C   UNL     1      40.921 -15.125   4.389  1.00  0.00     0.107 A 
HETATM   29  C   UNL     1      40.813 -15.893   3.230  1.00  0.00     0.102 A 
HETATM   30  C   UNL     1      41.834 -16.762   2.865  1.00  0.00     0.039 A 
HETATM   31  C   UNL     1      42.992 -16.818   3.641  1.00  0.00     0.003 A 
HETATM   32  C   UNL     1      43.128 -15.999   4.767  1.00  0.00     0.012 A 
BRANCH  28  33
HETATM   33  O   UNL     1      39.864 -14.352   4.801  1.00  0.00    -0.357 OA
HETATM   34  H   UNL     1      39.722 -14.604   5.741  1.00  0.00     0.218 HD
ENDBRANCH  28  33
BRANCH  29  35
HETATM   35  O   UNL     1      39.680 -15.800   2.469  1.00  0.00    -0.349 OA
BRANCH  35  36
HETATM   36  C   UNL     1      40.014 -15.602   1.084  1.00  0.00     0.171 C 
HETATM   37  C   UNL     1      40.151 -14.121   0.795  1.00  0.00     0.034 C 
ENDBRANCH  35  36
ENDBRANCH  29  35
ENDBRANCH  26  27
ENDBRANCH   4  26
TORSDOF 10
ENDMDL
MODEL 9
REMARK VINA RESULT:      -7.5      2.986      9.429
REMARK  10 active torsions:
REMARK  status: ('A' for Active; 'I' for Inactive)
REMARK    1  A    between atoms: C_2  and  C_3 
REMARK    2  A    between atoms: C_3  and  C_4 
REMARK    3  A    between atoms: N_7  and  C_9 
REMARK    4  A    between atoms: C_9  and  C_10 
REMARK    5  A    between atoms: C_11  and  O_12 
REMARK    6  A    between atoms: C_13  and  O_14 
REMARK    7  A    between atoms: O_14  and  C_15 
REMARK    8  A    between atoms: N_25  and  C_26 
REMARK    9  A    between atoms: C_26  and  C_27 
REMARK   10  A    between atoms: C_27  and  C_28 
ROOT
HETATM    1  C   UNL     1      42.328 -15.344   4.172  1.00  0.00     0.026 C 
HETATM    2  C   UNL     1      42.960 -14.429   3.102  1.00  0.00     0.035 C 
HETATM    3  C   UNL     1      41.955 -13.642   2.275  1.00  0.00     0.235 C 
HETATM    4  N   UNL     1      40.900 -14.538   1.693  1.00  0.00    -0.067 N 
HETATM    5  H   UNL     1      41.331 -15.046   0.900  1.00  0.00     0.280 HD
HETATM    6  C   UNL     1      40.301 -15.564   2.610  1.00  0.00     0.235 C 
HETATM    7  C   UNL     1      41.359 -16.284   3.435  1.00  0.00     0.035 C 
ENDROOT
BRANCH   1   8
HETATM    8  C   UNL     1      41.730 -14.624   5.435  1.00  0.00     0.119 A 
HETATM    9  N   UNL     1      40.552 -13.845   5.135  1.00  0.00    -0.324 N 
HETATM   10  C   UNL     1      40.728 -12.504   5.410  1.00  0.00     0.326 A 
HETATM   11  H   UNL     1      39.599 -14.185   5.194  1.00  0.00     0.165 HD
HETATM   12  O   UNL     1      39.823 -11.705   5.263  1.00  0.00    -0.247 OA
HETATM   13  N   UNL     1      42.011 -12.296   5.800  1.00  0.00    -0.268 N 
HETATM   14  C   UNL     1      42.678 -13.491   5.880  1.00  0.00     0.256 A 
HETATM   15  O   UNL     1      43.847 -13.650   6.201  1.00  0.00    -0.270 OA
BRANCH   8  16
HETATM   16  C   UNL     1      41.474 -15.604   6.600  1.00  0.00     0.037 C 
HETATM   17  C   UNL     1      40.031 -16.088   6.741  1.00  0.00     0.008 C 
ENDBRANCH   8  16
BRANCH  13  18
HETATM   18  C   UNL     1      42.670 -11.024   6.073  1.00  0.00     0.142 C 
BRANCH  18  19
HETATM   19  C   UNL     1      42.791 -10.613   7.541  1.00  0.00     0.068 C 
BRANCH  19  20
HETATM   20  C   UNL     1      44.077  -9.889   7.798  1.00  0.00     0.010 A 
HETATM   21  S   UNL     1      45.586 -10.653   7.489  1.00  0.00    -0.085 SA
HETATM   22  C   UNL     1      46.394  -9.240   8.017  1.00  0.00     0.166 A 
HETATM   23  N   UNL     1      45.623  -8.251   8.408  1.00  0.00    -0.258 NA
HETATM   24  C   UNL     1      44.292  -8.607   8.278  1.00  0.00     0.044 A 
HETATM   25  C   UNL     1      43.258  -7.608   8.663  1.00  0.00     0.071 C 
ENDBRANCH  19  20
ENDBRANCH  18  19
ENDBRANCH  13  18
ENDBRANCH   1   8
BRANCH   4  26
HETATM   26  C   UNL     1      39.798 -13.722   1.038  1.00  0.00     0.276 C 
BRANCH  26  27
HETATM   27  C   UNL     1      40.077 -13.327  -0.382  1.00  0.00     0.004 A 
HETATM   28  C   UNL     1      40.550 -12.050  -0.686  1.00  0.00     0.107 A 
HETATM   29  C   UNL     1      40.956 -11.723  -1.980  1.00  0.00     0.102 A 
HETATM   30  C   UNL     1      40.806 -12.639  -3.015  1.00  0.00     0.039 A 
HETATM   31  C   UNL     1      40.296 -13.907  -2.737  1.00  0.00     0.003 A 
HETATM   32  C   UNL     1      39.950 -14.257  -1.427  1.00  0.00     0.012 A 
BRANCH  28  33
HETATM   33  O   UNL     1      40.600 -11.104   0.307  1.00  0.00    -0.357 OA
HETATM   34  H   UNL     1      41.192 -10.402  -0.045  1.00  0.00     0.218 HD
ENDBRANCH  28  33
BRANCH  29  35
HETATM   35  O   UNL     1      41.481 -10.484  -2.224  1.00  0.00    -0.349 OA
BRANCH  35  36
HETATM   36  C   UNL     1      40.749  -9.819  -3.269  1.00  0.00     0.171 C 
HETATM   37  C   UNL     1      41.082  -8.341  -3.268  1.00  0.00     0.034 C 
ENDBRANCH  35  36
ENDBRANCH  29  35
ENDBRANCH  26  27
ENDBRANCH   4  26
TORSDOF 10
ENDMDL
MODEL 10
REMARK VINA RESULT:      -7.5      1.711      2.563
REMARK  10 active torsions:
REMARK  status: ('A' for Active; 'I' for Inactive)
REMARK    1  A    between atoms: C_2  and  C_3 
REMARK    2  A    between atoms: C_3  and  C_4 
REMARK    3  A    between atoms: N_7  and  C_9 
REMARK    4  A    between atoms: C_9  and  C_10 
REMARK    5  A    between atoms: C_11  and  O_12 
REMARK    6  A    between atoms: C_13  and  O_14 
REMARK    7  A    between atoms: O_14  and  C_15 
REMARK    8  A    between atoms: N_25  and  C_26 
REMARK    9  A    between atoms: C_26  and  C_27 
REMARK   10  A    between atoms: C_27  and  C_28 
ROOT
HETATM    1  C   UNL     1      42.367 -11.738   4.340  1.00  0.00     0.026 C 
HETATM    2  C   UNL     1      43.885 -11.458   4.361  1.00  0.00     0.035 C 
HETATM    3  C   UNL     1      44.519 -11.533   5.740  1.00  0.00     0.235 C 
HETATM    4  N   UNL     1      43.779 -10.681   6.732  1.00  0.00    -0.067 N 
HETATM    5  H   UNL     1      44.033  -9.696   6.540  1.00  0.00     0.280 HD
HETATM    6  C   UNL     1      42.282 -10.770   6.717  1.00  0.00     0.235 C 
HETATM    7  C   UNL     1      41.718 -10.730   5.303  1.00  0.00     0.035 C 
ENDROOT
BRANCH   1   8
HETATM    8  C   UNL     1      41.934 -13.235   4.548  1.00  0.00     0.119 A 
HETATM    9  N   UNL     1      42.876 -14.177   3.990  1.00  0.00    -0.324 N 
HETATM   10  C   UNL     1      42.312 -14.957   3.002  1.00  0.00     0.326 A 
HETATM   11  H   UNL     1      43.647 -14.597   4.496  1.00  0.00     0.165 HD
HETATM   12  O   UNL     1      42.946 -15.838   2.453  1.00  0.00    -0.247 OA
HETATM   13  N   UNL     1      41.041 -14.538   2.777  1.00  0.00    -0.268 N 
HETATM   14  C   UNL     1      40.709 -13.545   3.662  1.00  0.00     0.256 A 
HETATM   15  O   UNL     1      39.641 -12.954   3.724  1.00  0.00    -0.270 OA
BRANCH   8  16
HETATM   16  C   UNL     1      41.627 -13.555   6.027  1.00  0.00     0.037 C 
HETATM   17  C   UNL     1      40.928 -14.892   6.273  1.00  0.00     0.008 C 
ENDBRANCH   8  16
BRANCH  13  18
HETATM   18  C   UNL     1      40.117 -14.991   1.744  1.00  0.00     0.142 C 
BRANCH  18  19
HETATM   19  C   UNL     1      40.532 -14.743   0.293  1.00  0.00     0.068 C 
BRANCH  19  20
HETATM   20  C   UNL     1      39.590 -13.795  -0.386  1.00  0.00     0.010 A 
HETATM   21  S   UNL     1      39.238 -12.265   0.312  1.00  0.00    -0.085 SA
HETATM   22  C   UNL     1      38.196 -11.921  -1.001  1.00  0.00     0.166 A 
HETATM   23  N   UNL     1      38.091 -12.862  -1.912  1.00  0.00    -0.258 NA
HETATM   24  C   UNL     1      38.893 -13.939  -1.575  1.00  0.00     0.044 A 
HETATM   25  C   UNL     1      38.920 -15.108  -2.495  1.00  0.00     0.071 C 
ENDBRANCH  19  20
ENDBRANCH  18  19
ENDBRANCH  13  18
ENDBRANCH   1   8
BRANCH   4  26
HETATM   26  C   UNL     1      44.299 -10.915   8.141  1.00  0.00     0.276 C 
BRANCH  26  27
HETATM   27  C   UNL     1      43.850  -9.899   9.148  1.00  0.00     0.004 A 
HETATM   28  C   UNL     1      43.561 -10.276  10.460  1.00  0.00     0.107 A 
HETATM   29  C   UNL     1      43.291  -9.321  11.439  1.00  0.00     0.102 A 
HETATM   30  C   UNL     1      43.209  -7.975  11.103  1.00  0.00     0.039 A 
HETATM   31  C   UNL     1      43.453  -7.584   9.786  1.00  0.00     0.003 A 
HETATM   32  C   UNL     1      43.789  -8.536   8.818  1.00  0.00     0.012 A 
BRANCH  28  33
HETATM   33  O   UNL     1      43.533 -11.611  10.778  1.00  0.00    -0.357 OA
HETATM   34  H   UNL     1      44.344 -11.984  10.365  1.00  0.00     0.218 HD
ENDBRANCH  28  33
BRANCH  29  35
HETATM   35  O   UNL     1      43.084  -9.725  12.729  1.00  0.00    -0.349 OA
BRANCH  35  36
HETATM   36  C   UNL     1      41.864  -9.167  13.247  1.00  0.00     0.171 C 
HETATM   37  C   UNL     1      40.700 -10.076  12.909  1.00  0.00     0.034 C 
ENDBRANCH  35  36
ENDBRANCH  29  35
ENDBRANCH  26  27
ENDBRANCH   4  26
TORSDOF 10
ENDMDL
