MODEL 1
REMARK VINA RESULT:      -9.6      0.000      0.000
REMARK  5 active torsions:
REMARK  status: ('A' for Active; 'I' for Inactive)
REMARK    1  A    between atoms: C_4  and  C_5 
REMARK    2  A    between atoms: C_10  and  C_11 
REMARK    3  A    between atoms: C_11  and  N_12 
REMARK    4  A    between atoms: N_12  and  C_14 
REMARK    5  A    between atoms: N_17  and  C_18 
ROOT
HETATM    1  N   UNL     1      41.478 -14.931   4.349  1.00  0.00    -0.067 N 
HETATM    2  H   UNL     1      42.294 -14.502   4.813  1.00  0.00     0.280 HD
HETATM    3  C   UNL     1      40.398 -13.895   4.421  1.00  0.00     0.270 C 
ENDROOT
BRANCH   1   4
HETATM    4  C   UNL     1      41.159 -16.099   5.283  1.00  0.00     0.277 C 
BRANCH   4   5
HETATM    5  C   UNL     1      42.155 -16.292   6.361  1.00  0.00     0.016 A 
HETATM    6  C   UNL     1      43.076 -17.318   6.528  1.00  0.00     0.069 A 
HETATM    7  N   UNL     1      43.751 -17.016   7.689  1.00  0.00    -0.277 N 
HETATM    8  H   UNL     1      44.529 -17.518   8.111  1.00  0.00     0.189 HD
HETATM    9  N   UNL     1      43.294 -15.913   8.299  1.00  0.00    -0.186 NA
HETATM   10  C   UNL     1      42.365 -15.445   7.473  1.00  0.00     0.149 A 
BRANCH   6  11
HETATM   11  C   UNL     1      43.409 -18.485   5.717  1.00  0.00    -0.007 A 
HETATM   12  C   UNL     1      43.554 -18.366   4.327  1.00  0.00     0.020 A 
HETATM   13  C   UNL     1      43.842 -19.487   3.537  1.00  0.00    -0.061 A 
HETATM   14  C   UNL     1      43.980 -19.359   2.047  1.00  0.00     0.048 C 
HETATM   15  C   UNL     1      44.027 -20.729   4.154  1.00  0.00     0.007 A 
HETATM   16  C   UNL     1      43.883 -20.858   5.534  1.00  0.00     0.001 A 
HETATM   17  C   UNL     1      43.564 -19.743   6.311  1.00  0.00     0.014 A 
ENDBRANCH   6  11
ENDBRANCH   4   5
ENDBRANCH   1   4
BRANCH   1  18
HETATM   18  C   UNL     1      41.989 -15.337   2.956  1.00  0.00     0.190 C 
HETATM   19  C   UNL     1      40.977 -16.118   2.111  1.00  0.00     0.048 C 
HETATM   20  C   UNL     1      40.104 -15.258   1.207  1.00  0.00     0.099 C 
HETATM   21  N   UNL     1      40.962 -14.361   0.428  1.00  0.00    -0.268 NA
HETATM   22  C   UNL     1      41.725 -13.409   1.245  1.00  0.00     0.099 C 
HETATM   23  C   UNL     1      42.642 -14.163   2.210  1.00  0.00     0.048 C 
BRANCH  21  24
HETATM   24  C   UNL     1      40.344 -13.789  -0.699  1.00  0.00     0.109 A 
HETATM   25  N   UNL     1      40.585 -12.503  -1.013  1.00  0.00    -0.224 NA
HETATM   26  C   UNL     1      40.023 -12.001  -2.141  1.00  0.00     0.102 A 
HETATM   27  C   UNL     1      40.307 -10.580  -2.513  1.00  0.00     0.091 C 
HETATM   28  N   UNL     1      39.234 -12.718  -2.951  1.00  0.00    -0.348 N 
HETATM   29  H   UNL     1      38.849 -12.281  -3.787  1.00  0.00     0.167 HD
HETATM   30  C   UNL     1      38.972 -14.002  -2.668  1.00  0.00     0.009 A 
HETATM   31  C   UNL     1      38.091 -14.785  -3.587  1.00  0.00     0.068 C 
HETATM   32  C   UNL     1      39.538 -14.569  -1.524  1.00  0.00     0.069 A 
ENDBRANCH  21  24
ENDBRANCH   1  18
TORSDOF 5
ENDMDL
MODEL 2
REMARK VINA RESULT:      -9.4      0.967      1.614
REMARK  5 active torsions:
REMARK  status: ('A' for Active; 'I' for Inactive)
REMARK    1  A    between atoms: C_4  and  C_5 
REMARK    2  A    between atoms: C_10  and  C_11 
REMARK    3  A    between atoms: C_11  and  N_12 
REMARK    4  A    between atoms: N_12  and  C_14 
REMARK    5  A    between atoms: N_17  and  C_18 
ROOT
HETATM    1  N   UNL     1      41.673 -14.790   4.304  1.00  0.00    -0.067 N 
HETATM    2  H   UNL     1      42.558 -14.481   4.738  1.00  0.00     0.280 HD
HETATM    3  C   UNL     1      40.694 -13.691   4.588  1.00  0.00     0.270 C 
ENDROOT
BRANCH   1   4
HETATM    4  C   UNL     1      41.332 -16.034   5.125  1.00  0.00     0.277 C 
BRANCH   4   5
HETATM    5  C   UNL     1      42.258 -16.278   6.253  1.00  0.00     0.016 A 
HETATM    6  C   UNL     1      43.118 -17.349   6.463  1.00  0.00     0.069 A 
HETATM    7  N   UNL     1      43.744 -17.083   7.660  1.00  0.00    -0.277 N 
HETATM    8  H   UNL     1      44.472 -17.623   8.121  1.00  0.00     0.189 HD
HETATM    9  N   UNL     1      43.308 -15.961   8.251  1.00  0.00    -0.186 NA
HETATM   10  C   UNL     1      42.449 -15.446   7.380  1.00  0.00     0.149 A 
BRANCH   6  11
HETATM   11  C   UNL     1      43.436 -18.528   5.665  1.00  0.00    -0.007 A 
HETATM   12  C   UNL     1      43.555 -18.431   4.271  1.00  0.00     0.020 A 
HETATM   13  C   UNL     1      43.828 -19.565   3.493  1.00  0.00    -0.061 A 
HETATM   14  C   UNL     1      43.937 -19.461   1.999  1.00  0.00     0.048 C 
HETATM   15  C   UNL     1      44.028 -20.796   4.127  1.00  0.00     0.007 A 
HETATM   16  C   UNL     1      43.911 -20.903   5.512  1.00  0.00     0.001 A 
HETATM   17  C   UNL     1      43.606 -19.776   6.276  1.00  0.00     0.014 A 
ENDBRANCH   6  11
ENDBRANCH   4   5
ENDBRANCH   1   4
BRANCH   1  18
HETATM   18  C   UNL     1      42.034 -15.063   2.834  1.00  0.00     0.190 C 
HETATM   19  C   UNL     1      41.055 -15.984   2.099  1.00  0.00     0.048 C 
HETATM   20  C   UNL     1      39.926 -15.265   1.372  1.00  0.00     0.099 C 
HETATM   21  N   UNL     1      40.497 -14.212   0.529  1.00  0.00    -0.268 NA
HETATM   22  C   UNL     1      41.201 -13.164   1.279  1.00  0.00     0.099 C 
HETATM   23  C   UNL     1      42.364 -13.774   2.065  1.00  0.00     0.048 C 
BRANCH  21  24
HETATM   24  C   UNL     1      39.633 -13.726  -0.470  1.00  0.00     0.109 A 
HETATM   25  N   UNL     1      39.381 -14.477  -1.558  1.00  0.00    -0.224 NA
HETATM   26  C   UNL     1      38.495 -14.006  -2.471  1.00  0.00     0.102 A 
HETATM   27  C   UNL     1      38.187 -14.845  -3.671  1.00  0.00     0.091 C 
HETATM   28  N   UNL     1      37.868 -12.829  -2.348  1.00  0.00    -0.348 N 
HETATM   29  H   UNL     1      37.209 -12.538  -3.068  1.00  0.00     0.167 HD
HETATM   30  C   UNL     1      38.098 -12.056  -1.277  1.00  0.00     0.009 A 
HETATM   31  C   UNL     1      37.385 -10.747  -1.158  1.00  0.00     0.068 C 
HETATM   32  C   UNL     1      38.992 -12.503  -0.303  1.00  0.00     0.069 A 
ENDBRANCH  21  24
ENDBRANCH   1  18
TORSDOF 5
ENDMDL
MODEL 3
REMARK VINA RESULT:      -8.8      4.073      7.570
REMARK  5 active torsions:
REMARK  status: ('A' for Active; 'I' for Inactive)
REMARK    1  A    between atoms: C_4  and  C_5 
REMARK    2  A    between atoms: C_10  and  C_11 
REMARK    3  A    between atoms: C_11  and  N_12 
REMARK    4  A    between atoms: N_12  and  C_14 
REMARK    5  A    between atoms: N_17  and  C_18 
ROOT
HETATM    1  N   UNL     1      41.098 -14.396   5.217  1.00  0.00    -0.067 N 
HETATM    2  H   UNL     1      41.781 -15.110   5.516  1.00  0.00     0.280 HD
HETATM    3  C   UNL     1      40.206 -14.188   6.404  1.00  0.00     0.270 C 
ENDROOT
BRANCH   1   4
HETATM    4  C   UNL     1      40.343 -15.124   4.104  1.00  0.00     0.277 C 
BRANCH   4   5
HETATM    5  C   UNL     1      40.997 -15.031   2.780  1.00  0.00     0.016 A 
HETATM    6  C   UNL     1      42.062 -15.769   2.276  1.00  0.00     0.069 A 
HETATM    7  N   UNL     1      42.273 -15.283   1.006  1.00  0.00    -0.277 N 
HETATM    8  H   UNL     1      42.945 -15.606   0.314  1.00  0.00     0.189 HD
HETATM    9  N   UNL     1      41.467 -14.260   0.687  1.00  0.00    -0.186 NA
HETATM   10  C   UNL     1      40.661 -14.140   1.735  1.00  0.00     0.149 A 
BRANCH   6  11
HETATM   11  C   UNL     1      42.842 -16.874   2.825  1.00  0.00    -0.007 A 
HETATM   12  C   UNL     1      42.918 -18.097   2.143  1.00  0.00     0.020 A 
HETATM   13  C   UNL     1      43.639 -19.173   2.678  1.00  0.00    -0.061 A 
HETATM   14  C   UNL     1      43.704 -20.488   1.953  1.00  0.00     0.048 C 
HETATM   15  C   UNL     1      44.323 -19.004   3.886  1.00  0.00     0.007 A 
HETATM   16  C   UNL     1      44.252 -17.793   4.573  1.00  0.00     0.001 A 
HETATM   17  C   UNL     1      43.505 -16.736   4.050  1.00  0.00     0.014 A 
ENDBRANCH   6  11
ENDBRANCH   4   5
ENDBRANCH   1   4
BRANCH   1  18
HETATM   18  C   UNL     1      41.954 -13.206   4.750  1.00  0.00     0.190 C 
HETATM   19  C   UNL     1      41.246 -11.849   4.818  1.00  0.00     0.048 C 
HETATM   20  C   UNL     1      41.448 -11.090   6.123  1.00  0.00     0.099 C 
HETATM   21  N   UNL     1      42.881 -11.029   6.422  1.00  0.00    -0.268 NA
HETATM   22  C   UNL     1      43.500 -12.342   6.640  1.00  0.00     0.099 C 
HETATM   23  C   UNL     1      43.351 -13.207   5.386  1.00  0.00     0.048 C 
BRANCH  21  24
HETATM   24  C   UNL     1      43.242 -10.055   7.371  1.00  0.00     0.109 A 
HETATM   25  N   UNL     1      42.684  -8.831   7.318  1.00  0.00    -0.224 NA
HETATM   26  C   UNL     1      43.007  -7.936   8.284  1.00  0.00     0.102 A 
HETATM   27  C   UNL     1      42.372  -6.581   8.250  1.00  0.00     0.091 C 
HETATM   28  N   UNL     1      43.858  -8.207   9.282  1.00  0.00    -0.348 N 
HETATM   29  H   UNL     1      44.053  -7.490   9.980  1.00  0.00     0.167 HD
HETATM   30  C   UNL     1      44.433  -9.416   9.364  1.00  0.00     0.009 A 
HETATM   31  C   UNL     1      45.378  -9.697  10.488  1.00  0.00     0.068 C 
HETATM   32  C   UNL     1      44.123 -10.376   8.400  1.00  0.00     0.069 A 
ENDBRANCH  21  24
ENDBRANCH   1  18
TORSDOF 5
ENDMDL
MODEL 4
REMARK VINA RESULT:      -8.8      3.180      5.364
REMARK  5 active torsions:
REMARK  status: ('A' for Active; 'I' for Inactive)
REMARK    1  A    between atoms: C_4  and  C_5 
REMARK    2  A    between atoms: C_10  and  C_11 
REMARK    3  A    between atoms: C_11  and  N_12 
REMARK    4  A    between atoms: N_12  and  C_14 
REMARK    5  A    between atoms: N_17  and  C_18 
ROOT
HETATM    1  N   UNL     1      42.384 -15.432   4.471  1.00  0.00    -0.067 N 
HETATM    2  H   UNL     1      41.394 -15.162   4.581  1.00  0.00     0.280 HD
HETATM    3  C   UNL     1      42.585 -16.576   5.418  1.00  0.00     0.270 C 
ENDROOT
BRANCH   1   4
HETATM    4  C   UNL     1      43.113 -14.187   4.976  1.00  0.00     0.277 C 
BRANCH   4   5
HETATM    5  C   UNL     1      42.215 -13.163   5.556  1.00  0.00     0.016 A 
HETATM    6  C   UNL     1      42.532 -12.078   6.364  1.00  0.00     0.069 A 
HETATM    7  N   UNL     1      41.333 -11.453   6.621  1.00  0.00    -0.277 N 
HETATM    8  H   UNL     1      41.171 -10.598   7.147  1.00  0.00     0.189 HD
HETATM    9  N   UNL     1      40.278 -12.087   6.090  1.00  0.00    -0.186 NA
HETATM   10  C   UNL     1      40.811 -13.090   5.402  1.00  0.00     0.149 A 
BRANCH   6  11
HETATM   11  C   UNL     1      43.801 -11.559   6.862  1.00  0.00    -0.007 A 
HETATM   12  C   UNL     1      43.895 -11.041   8.162  1.00  0.00     0.020 A 
HETATM   13  C   UNL     1      45.103 -10.511   8.638  1.00  0.00    -0.061 A 
HETATM   14  C   UNL     1      45.195  -9.941  10.025  1.00  0.00     0.048 C 
HETATM   15  C   UNL     1      46.234 -10.542   7.816  1.00  0.00     0.007 A 
HETATM   16  C   UNL     1      46.150 -11.053   6.522  1.00  0.00     0.001 A 
HETATM   17  C   UNL     1      44.937 -11.549   6.044  1.00  0.00     0.014 A 
ENDBRANCH   6  11
ENDBRANCH   4   5
ENDBRANCH   1   4
BRANCH   1  18
HETATM   18  C   UNL     1      42.547 -15.713   2.967  1.00  0.00     0.190 C 
HETATM   19  C   UNL     1      41.403 -16.519   2.343  1.00  0.00     0.048 C 
HETATM   20  C   UNL     1      40.277 -15.679   1.755  1.00  0.00     0.099 C 
HETATM   21  N   UNL     1      40.851 -14.672   0.859  1.00  0.00    -0.268 NA
HETATM   22  C   UNL     1      41.738 -13.713   1.531  1.00  0.00     0.099 C 
HETATM   23  C   UNL     1      42.915 -14.449   2.174  1.00  0.00     0.048 C 
BRANCH  21  24
HETATM   24  C   UNL     1      39.933 -14.085  -0.030  1.00  0.00     0.109 A 
HETATM   25  N   UNL     1      39.444 -12.858   0.228  1.00  0.00    -0.224 NA
HETATM   26  C   UNL     1      38.608 -12.296  -0.681  1.00  0.00     0.102 A 
HETATM   27  C   UNL     1      38.080 -10.921  -0.416  1.00  0.00     0.091 C 
HETATM   28  N   UNL     1      38.241 -12.903  -1.816  1.00  0.00    -0.348 N 
HETATM   29  H   UNL     1      37.615 -12.421  -2.459  1.00  0.00     0.167 HD
HETATM   30  C   UNL     1      38.708 -14.126  -2.104  1.00  0.00     0.009 A 
HETATM   31  C   UNL     1      38.287 -14.785  -3.378  1.00  0.00     0.068 C 
HETATM   32  C   UNL     1      39.581 -14.742  -1.206  1.00  0.00     0.069 A 
ENDBRANCH  21  24
ENDBRANCH   1  18
TORSDOF 5
ENDMDL
MODEL 5
REMARK VINA RESULT:      -8.7      4.751      8.440
REMARK  5 active torsions:
REMARK  status: ('A' for Active; 'I' for Inactive)
REMARK    1  A    between atoms: C_4  and  C_5 
REMARK    2  A    between atoms: C_10  and  C_11 
REMARK    3  A    between atoms: C_11  and  N_12 
REMARK    4  A    between atoms: N_12  and  C_14 
REMARK    5  A    between atoms: N_17  and  C_18 
ROOT
HETATM    1  N   UNL     1      43.400 -13.594   5.537  1.00  0.00    -0.067 N 
HETATM    2  H   UNL     1      44.095 -14.057   4.929  1.00  0.00     0.280 HD
HETATM    3  C   UNL     1      43.548 -14.257   6.873  1.00  0.00     0.270 C 
ENDROOT
BRANCH   1   4
HETATM    4  C   UNL     1      42.080 -14.004   4.882  1.00  0.00     0.277 C 
BRANCH   4   5
HETATM    5  C   UNL     1      42.176 -14.206   3.419  1.00  0.00     0.016 A 
HETATM    6  C   UNL     1      42.655 -15.307   2.718  1.00  0.00     0.069 A 
HETATM    7  N   UNL     1      42.523 -14.976   1.388  1.00  0.00    -0.277 N 
HETATM    8  H   UNL     1      42.732 -15.550   0.575  1.00  0.00     0.189 HD
HETATM    9  N   UNL     1      42.054 -13.735   1.193  1.00  0.00    -0.186 NA
HETATM   10  C   UNL     1      41.794 -13.287   2.415  1.00  0.00     0.149 A 
BRANCH   6  11
HETATM   11  C   UNL     1      43.161 -16.606   3.149  1.00  0.00    -0.007 A 
HETATM   12  C   UNL     1      43.040 -17.727   2.315  1.00  0.00     0.020 A 
HETATM   13  C   UNL     1      43.494 -18.985   2.734  1.00  0.00    -0.061 A 
HETATM   14  C   UNL     1      43.347 -20.188   1.845  1.00  0.00     0.048 C 
HETATM   15  C   UNL     1      44.114 -19.107   3.982  1.00  0.00     0.007 A 
HETATM   16  C   UNL     1      44.237 -17.999   4.819  1.00  0.00     0.001 A 
HETATM   17  C   UNL     1      43.753 -16.756   4.408  1.00  0.00     0.014 A 
ENDBRANCH   6  11
ENDBRANCH   4   5
ENDBRANCH   1   4
BRANCH   1  18
HETATM   18  C   UNL     1      43.733 -12.096   5.441  1.00  0.00     0.190 C 
HETATM   19  C   UNL     1      42.520 -11.166   5.559  1.00  0.00     0.048 C 
HETATM   20  C   UNL     1      42.213 -10.697   6.975  1.00  0.00     0.099 C 
HETATM   21  N   UNL     1      43.436 -10.157   7.574  1.00  0.00    -0.268 NA
HETATM   22  C   UNL     1      44.513 -11.144   7.721  1.00  0.00     0.099 C 
HETATM   23  C   UNL     1      44.906 -11.699   6.349  1.00  0.00     0.048 C 
BRANCH  21  24
HETATM   24  C   UNL     1      43.229  -9.355   8.711  1.00  0.00     0.109 A 
HETATM   25  N   UNL     1      43.131  -9.929   9.925  1.00  0.00    -0.224 NA
HETATM   26  C   UNL     1      42.993  -9.123  11.007  1.00  0.00     0.102 A 
HETATM   27  C   UNL     1      42.911  -9.750  12.363  1.00  0.00     0.091 C 
HETATM   28  N   UNL     1      42.941  -7.787  10.927  1.00  0.00    -0.348 N 
HETATM   29  H   UNL     1      42.843  -7.240  11.781  1.00  0.00     0.167 HD
HETATM   30  C   UNL     1      43.034  -7.183   9.733  1.00  0.00     0.009 A 
HETATM   31  C   UNL     1      42.976  -5.691   9.667  1.00  0.00     0.068 C 
HETATM   32  C   UNL     1      43.189  -7.969   8.590  1.00  0.00     0.069 A 
ENDBRANCH  21  24
ENDBRANCH   1  18
TORSDOF 5
ENDMDL
MODEL 6
REMARK VINA RESULT:      -8.7      1.753      2.835
REMARK  5 active torsions:
REMARK  status: ('A' for Active; 'I' for Inactive)
REMARK    1  A    between atoms: C_4  and  C_5 
REMARK    2  A    between atoms: C_10  and  C_11 
REMARK    3  A    between atoms: C_11  and  N_12 
REMARK    4  A    between atoms: N_12  and  C_14 
REMARK    5  A    between atoms: N_17  and  C_18 
ROOT
HETATM    1  N   UNL     1      42.286 -12.896   5.314  1.00  0.00    -0.067 N 
HETATM    2  H   UNL     1      42.762 -13.429   4.570  1.00  0.00     0.280 HD
HETATM    3  C   UNL     1      43.390 -12.266   6.110  1.00  0.00     0.270 C 
ENDROOT
BRANCH   1   4
HETATM    4  C   UNL     1      41.614 -14.006   6.122  1.00  0.00     0.277 C 
BRANCH   4   5
HETATM    5  C   UNL     1      42.539 -15.077   6.552  1.00  0.00     0.016 A 
HETATM    6  C   UNL     1      43.151 -16.064   5.788  1.00  0.00     0.069 A 
HETATM    7  N   UNL     1      43.905 -16.797   6.676  1.00  0.00    -0.277 N 
HETATM    8  H   UNL     1      44.525 -17.579   6.477  1.00  0.00     0.189 HD
HETATM    9  N   UNL     1      43.775 -16.390   7.946  1.00  0.00    -0.186 NA
HETATM   10  C   UNL     1      42.993 -15.320   7.869  1.00  0.00     0.149 A 
BRANCH   6  11
HETATM   11  C   UNL     1      43.139 -16.351   4.357  1.00  0.00    -0.007 A 
HETATM   12  C   UNL     1      43.171 -17.676   3.898  1.00  0.00     0.020 A 
HETATM   13  C   UNL     1      43.192 -17.960   2.526  1.00  0.00    -0.061 A 
HETATM   14  C   UNL     1      43.244 -19.380   2.038  1.00  0.00     0.048 C 
HETATM   15  C   UNL     1      43.135 -16.905   1.609  1.00  0.00     0.007 A 
HETATM   16  C   UNL     1      43.105 -15.585   2.054  1.00  0.00     0.001 A 
HETATM   17  C   UNL     1      43.117 -15.309   3.422  1.00  0.00     0.014 A 
ENDBRANCH   6  11
ENDBRANCH   4   5
ENDBRANCH   1   4
BRANCH   1  18
HETATM   18  C   UNL     1      41.320 -11.960   4.568  1.00  0.00     0.190 C 
HETATM   19  C   UNL     1      41.977 -11.103   3.481  1.00  0.00     0.048 C 
HETATM   20  C   UNL     1      41.970 -11.722   2.090  1.00  0.00     0.099 C 
HETATM   21  N   UNL     1      40.607 -12.150   1.765  1.00  0.00    -0.268 NA
HETATM   22  C   UNL     1      40.083 -13.195   2.655  1.00  0.00     0.099 C 
HETATM   23  C   UNL     1      40.051 -12.687   4.098  1.00  0.00     0.048 C 
BRANCH  21  24
HETATM   24  C   UNL     1      40.375 -12.386   0.398  1.00  0.00     0.109 A 
HETATM   25  N   UNL     1      40.717 -11.452  -0.509  1.00  0.00    -0.224 NA
HETATM   26  C   UNL     1      40.537 -11.737  -1.823  1.00  0.00     0.102 A 
HETATM   27  C   UNL     1      40.939 -10.715  -2.840  1.00  0.00     0.091 C 
HETATM   28  N   UNL     1      40.030 -12.896  -2.261  1.00  0.00    -0.348 N 
HETATM   29  H   UNL     1      39.927 -13.048  -3.263  1.00  0.00     0.167 HD
HETATM   30  C   UNL     1      39.678 -13.848  -1.385  1.00  0.00     0.009 A 
HETATM   31  C   UNL     1      39.116 -15.135  -1.896  1.00  0.00     0.068 C 
HETATM   32  C   UNL     1      39.855 -13.607  -0.021  1.00  0.00     0.069 A 
ENDBRANCH  21  24
ENDBRANCH   1  18
TORSDOF 5
ENDMDL
MODEL 7
REMARK VINA RESULT:      -8.6      1.878      2.785
REMARK  5 active torsions:
REMARK  status: ('A' for Active; 'I' for Inactive)
REMARK    1  A    between atoms: C_4  and  C_5 
REMARK    2  A    between atoms: C_10  and  C_11 
REMARK    3  A    between atoms: C_11  and  N_12 
REMARK    4  A    between atoms: N_12  and  C_14 
REMARK    5  A    between atoms: N_17  and  C_18 
ROOT
HETATM    1  N   UNL     1      40.860 -12.863   4.046  1.00  0.00    -0.067 N 
HETATM    2  H   UNL     1      41.445 -12.384   4.749  1.00  0.00     0.280 HD
HETATM    3  C   UNL     1      39.447 -12.544   4.433  1.00  0.00     0.270 C 
ENDROOT
BRANCH   1   4
HETATM    4  C   UNL     1      41.169 -14.334   4.323  1.00  0.00     0.277 C 
BRANCH   4   5
HETATM    5  C   UNL     1      42.257 -14.542   5.304  1.00  0.00     0.016 A 
HETATM    6  C   UNL     1      43.154 -15.600   5.404  1.00  0.00     0.069 A 
HETATM    7  N   UNL     1      43.949 -15.300   6.487  1.00  0.00    -0.277 N 
HETATM    8  H   UNL     1      44.746 -15.822   6.844  1.00  0.00     0.189 HD
HETATM    9  N   UNL     1      43.592 -14.169   7.113  1.00  0.00    -0.186 NA
HETATM   10  C   UNL     1      42.605 -13.682   6.370  1.00  0.00     0.149 A 
BRANCH   6  11
HETATM   11  C   UNL     1      43.364 -16.794   4.592  1.00  0.00    -0.007 A 
HETATM   12  C   UNL     1      43.733 -18.005   5.194  1.00  0.00     0.020 A 
HETATM   13  C   UNL     1      43.969 -19.150   4.419  1.00  0.00    -0.061 A 
HETATM   14  C   UNL     1      44.382 -20.441   5.065  1.00  0.00     0.048 C 
HETATM   15  C   UNL     1      43.788 -19.085   3.033  1.00  0.00     0.007 A 
HETATM   16  C   UNL     1      43.422 -17.885   2.426  1.00  0.00     0.001 A 
HETATM   17  C   UNL     1      43.221 -16.742   3.201  1.00  0.00     0.014 A 
ENDBRANCH   6  11
ENDBRANCH   4   5
ENDBRANCH   1   4
BRANCH   1  18
HETATM   18  C   UNL     1      41.366 -12.337   2.692  1.00  0.00     0.190 C 
HETATM   19  C   UNL     1      41.553 -13.417   1.621  1.00  0.00     0.048 C 
HETATM   20  C   UNL     1      40.338 -13.651   0.733  1.00  0.00     0.099 C 
HETATM   21  N   UNL     1      39.880 -12.364   0.204  1.00  0.00    -0.268 NA
HETATM   22  C   UNL     1      39.426 -11.423   1.238  1.00  0.00     0.099 C 
HETATM   23  C   UNL     1      40.571 -11.116   2.206  1.00  0.00     0.048 C 
BRANCH  21  24
HETATM   24  C   UNL     1      39.023 -12.457  -0.908  1.00  0.00     0.109 A 
HETATM   25  N   UNL     1      39.054 -13.555  -1.685  1.00  0.00    -0.224 NA
HETATM   26  C   UNL     1      38.172 -13.640  -2.712  1.00  0.00     0.102 A 
HETATM   27  C   UNL     1      38.180 -14.869  -3.566  1.00  0.00     0.091 C 
HETATM   28  N   UNL     1      37.280 -12.683  -2.996  1.00  0.00    -0.348 N 
HETATM   29  H   UNL     1      36.641 -12.812  -3.779  1.00  0.00     0.167 HD
HETATM   30  C   UNL     1      37.223 -11.574  -2.243  1.00  0.00     0.009 A 
HETATM   31  C   UNL     1      36.217 -10.520  -2.575  1.00  0.00     0.068 C 
HETATM   32  C   UNL     1      38.102 -11.446  -1.166  1.00  0.00     0.069 A 
ENDBRANCH  21  24
ENDBRANCH   1  18
TORSDOF 5
ENDMDL
MODEL 8
REMARK VINA RESULT:      -8.6      3.571      6.468
REMARK  5 active torsions:
REMARK  status: ('A' for Active; 'I' for Inactive)
REMARK    1  A    between atoms: C_4  and  C_5 
REMARK    2  A    between atoms: C_10  and  C_11 
REMARK    3  A    between atoms: C_11  and  N_12 
REMARK    4  A    between atoms: N_12  and  C_14 
REMARK    5  A    between atoms: N_17  and  C_18 
ROOT
HETATM    1  N   UNL     1      41.795 -14.964   3.893  1.00  0.00    -0.067 N 
HETATM    2  H   UNL     1      41.265 -15.125   4.763  1.00  0.00     0.280 HD
HETATM    3  C   UNL     1      41.146 -15.845   2.869  1.00  0.00     0.270 C 
ENDROOT
BRANCH   1   4
HETATM    4  C   UNL     1      43.179 -15.501   4.258  1.00  0.00     0.277 C 
BRANCH   4   5
HETATM    5  C   UNL     1      43.274 -16.017   5.642  1.00  0.00     0.016 A 
HETATM    6  C   UNL     1      43.436 -17.326   6.078  1.00  0.00     0.069 A 
HETATM    7  N   UNL     1      43.460 -17.251   7.452  1.00  0.00    -0.277 N 
HETATM    8  H   UNL     1      43.603 -18.006   8.119  1.00  0.00     0.189 HD
HETATM    9  N   UNL     1      43.268 -16.010   7.921  1.00  0.00    -0.186 NA
HETATM   10  C   UNL     1      43.208 -15.255   6.831  1.00  0.00     0.149 A 
BRANCH   6  11
HETATM   11  C   UNL     1      43.612 -18.587   5.365  1.00  0.00    -0.007 A 
HETATM   12  C   UNL     1      43.644 -18.612   3.964  1.00  0.00     0.020 A 
HETATM   13  C   UNL     1      43.781 -19.823   3.270  1.00  0.00    -0.061 A 
HETATM   14  C   UNL     1      43.796 -19.848   1.768  1.00  0.00     0.048 C 
HETATM   15  C   UNL     1      43.931 -21.011   3.993  1.00  0.00     0.007 A 
HETATM   16  C   UNL     1      43.899 -20.997   5.386  1.00  0.00     0.001 A 
HETATM   17  C   UNL     1      43.730 -19.792   6.069  1.00  0.00     0.014 A 
ENDBRANCH   6  11
ENDBRANCH   4   5
ENDBRANCH   1   4
BRANCH   1  18
HETATM   18  C   UNL     1      41.728 -13.443   3.671  1.00  0.00     0.190 C 
HETATM   19  C   UNL     1      40.695 -12.719   4.542  1.00  0.00     0.048 C 
HETATM   20  C   UNL     1      41.233 -12.196   5.867  1.00  0.00     0.099 C 
HETATM   21  N   UNL     1      42.448 -11.417   5.615  1.00  0.00    -0.268 NA
HETATM   22  C   UNL     1      43.547 -12.199   5.035  1.00  0.00     0.099 C 
HETATM   23  C   UNL     1      43.118 -12.789   3.689  1.00  0.00     0.048 C 
BRANCH  21  24
HETATM   24  C   UNL     1      42.835 -10.573   6.672  1.00  0.00     0.109 A 
HETATM   25  N   UNL     1      44.134 -10.480   7.012  1.00  0.00    -0.224 NA
HETATM   26  C   UNL     1      44.480  -9.611   7.994  1.00  0.00     0.102 A 
HETATM   27  C   UNL     1      45.925  -9.481   8.361  1.00  0.00     0.091 C 
HETATM   28  N   UNL     1      43.594  -8.849   8.647  1.00  0.00    -0.348 N 
HETATM   29  H   UNL     1      43.922  -8.212   9.371  1.00  0.00     0.167 HD
HETATM   30  C   UNL     1      42.291  -8.918   8.335  1.00  0.00     0.009 A 
HETATM   31  C   UNL     1      41.320  -8.056   9.075  1.00  0.00     0.068 C 
HETATM   32  C   UNL     1      41.887  -9.789   7.322  1.00  0.00     0.069 A 
ENDBRANCH  21  24
ENDBRANCH   1  18
TORSDOF 5
ENDMDL
MODEL 9
REMARK VINA RESULT:      -8.6      1.817      2.845
REMARK  5 active torsions:
REMARK  status: ('A' for Active; 'I' for Inactive)
REMARK    1  A    between atoms: C_4  and  C_5 
REMARK    2  A    between atoms: C_10  and  C_11 
REMARK    3  A    between atoms: C_11  and  N_12 
REMARK    4  A    between atoms: N_12  and  C_14 
REMARK    5  A    between atoms: N_17  and  C_18 
ROOT
HETATM    1  N   UNL     1      42.351 -12.931   3.574  1.00  0.00    -0.067 N 
HETATM    2  H   UNL     1      42.444 -13.821   3.059  1.00  0.00     0.280 HD
HETATM    3  C   UNL     1      43.498 -12.087   3.105  1.00  0.00     0.270 C 
ENDROOT
BRANCH   1   4
HETATM    4  C   UNL     1      42.573 -13.375   5.020  1.00  0.00     0.277 C 
BRANCH   4   5
HETATM    5  C   UNL     1      41.562 -14.338   5.512  1.00  0.00     0.016 A 
HETATM    6  C   UNL     1      41.415 -15.685   5.205  1.00  0.00     0.069 A 
HETATM    7  N   UNL     1      40.322 -16.106   5.927  1.00  0.00    -0.277 N 
HETATM    8  H   UNL     1      39.934 -17.044   5.989  1.00  0.00     0.189 HD
HETATM    9  N   UNL     1      39.731 -15.122   6.620  1.00  0.00    -0.186 NA
HETATM   10  C   UNL     1      40.508 -14.065   6.413  1.00  0.00     0.149 A 
BRANCH   6  11
HETATM   11  C   UNL     1      42.193 -16.596   4.372  1.00  0.00    -0.007 A 
HETATM   12  C   UNL     1      42.966 -17.609   4.958  1.00  0.00     0.020 A 
HETATM   13  C   UNL     1      43.742 -18.469   4.167  1.00  0.00    -0.061 A 
HETATM   14  C   UNL     1      44.582 -19.541   4.799  1.00  0.00     0.048 C 
HETATM   15  C   UNL     1      43.705 -18.336   2.775  1.00  0.00     0.007 A 
HETATM   16  C   UNL     1      42.942 -17.331   2.183  1.00  0.00     0.001 A 
HETATM   17  C   UNL     1      42.198 -16.458   2.979  1.00  0.00     0.014 A 
ENDBRANCH   6  11
ENDBRANCH   4   5
ENDBRANCH   1   4
BRANCH   1  18
HETATM   18  C   UNL     1      40.927 -12.442   3.257  1.00  0.00     0.190 C 
HETATM   19  C   UNL     1      40.867 -11.160   2.421  1.00  0.00     0.048 C 
HETATM   20  C   UNL     1      40.799 -11.383   0.916  1.00  0.00     0.099 C 
HETATM   21  N   UNL     1      39.723 -12.333   0.624  1.00  0.00    -0.268 NA
HETATM   22  C   UNL     1      39.934 -13.667   1.202  1.00  0.00     0.099 C 
HETATM   23  C   UNL     1      40.029 -13.569   2.726  1.00  0.00     0.048 C 
BRANCH  21  24
HETATM   24  C   UNL     1      39.299 -12.346  -0.717  1.00  0.00     0.109 A 
HETATM   25  N   UNL     1      39.241 -11.194  -1.411  1.00  0.00    -0.224 NA
HETATM   26  C   UNL     1      38.887 -11.248  -2.719  1.00  0.00     0.102 A 
HETATM   27  C   UNL     1      38.847  -9.976  -3.506  1.00  0.00     0.091 C 
HETATM   28  N   UNL     1      38.585 -12.389  -3.352  1.00  0.00    -0.348 N 
HETATM   29  H   UNL     1      38.333 -12.360  -4.338  1.00  0.00     0.167 HD
HETATM   30  C   UNL     1      38.630 -13.555  -2.690  1.00  0.00     0.009 A 
HETATM   31  C   UNL     1      38.291 -14.817  -3.416  1.00  0.00     0.068 C 
HETATM   32  C   UNL     1      39.001 -13.552  -1.344  1.00  0.00     0.069 A 
ENDBRANCH  21  24
ENDBRANCH   1  18
TORSDOF 5
ENDMDL
MODEL 10
REMARK VINA RESULT:      -8.6      1.604      2.389
REMARK  5 active torsions:
REMARK  status: ('A' for Active; 'I' for Inactive)
REMARK    1  A    between atoms: C_4  and  C_5 
REMARK    2  A    between atoms: C_10  and  C_11 
REMARK    3  A    between atoms: C_11  and  N_12 
REMARK    4  A    between atoms: N_12  and  C_14 
REMARK    5  A    between atoms: N_17  and  C_18 
ROOT
HETATM    1  N   UNL     1      41.461 -15.665   3.219  1.00  0.00    -0.067 N 
HETATM    2  H   UNL     1      41.748 -16.512   2.701  1.00  0.00     0.280 HD
HETATM    3  C   UNL     1      42.596 -14.701   3.049  1.00  0.00     0.270 C 
ENDROOT
BRANCH   1   4
HETATM    4  C   UNL     1      41.406 -16.175   4.659  1.00  0.00     0.277 C 
BRANCH   4   5
HETATM    5  C   UNL     1      42.710 -16.135   5.358  1.00  0.00     0.016 A 
HETATM    6  C   UNL     1      43.668 -17.134   5.480  1.00  0.00     0.069 A 
HETATM    7  N   UNL     1      44.681 -16.576   6.226  1.00  0.00    -0.277 N 
HETATM    8  H   UNL     1      45.572 -16.994   6.487  1.00  0.00     0.189 HD
HETATM    9  N   UNL     1      44.417 -15.327   6.633  1.00  0.00    -0.186 NA
HETATM   10  C   UNL     1      43.251 -15.038   6.067  1.00  0.00     0.149 A 
BRANCH   6  11
HETATM   11  C   UNL     1      43.749 -18.491   4.951  1.00  0.00    -0.007 A 
HETATM   12  C   UNL     1      43.725 -18.716   3.567  1.00  0.00     0.020 A 
HETATM   13  C   UNL     1      43.771 -20.019   3.050  1.00  0.00    -0.061 A 
HETATM   14  C   UNL     1      43.727 -20.257   1.568  1.00  0.00     0.048 C 
HETATM   15  C   UNL     1      43.885 -21.099   3.931  1.00  0.00     0.007 A 
HETATM   16  C   UNL     1      43.907 -20.886   5.308  1.00  0.00     0.001 A 
HETATM   17  C   UNL     1      43.829 -19.589   5.816  1.00  0.00     0.014 A 
ENDBRANCH   6  11
ENDBRANCH   4   5
ENDBRANCH   1   4
BRANCH   1  18
HETATM   18  C   UNL     1      40.100 -15.280   2.615  1.00  0.00     0.190 C 
HETATM   19  C   UNL     1      39.637 -13.857   2.946  1.00  0.00     0.048 C 
HETATM   20  C   UNL     1      40.046 -12.801   1.928  1.00  0.00     0.099 C 
HETATM   21  N   UNL     1      39.659 -13.255   0.589  1.00  0.00    -0.268 NA
HETATM   22  C   UNL     1      40.335 -14.486   0.160  1.00  0.00     0.099 C 
HETATM   23  C   UNL     1      40.004 -15.629   1.122  1.00  0.00     0.048 C 
BRANCH  21  24
HETATM   24  C   UNL     1      39.627 -12.243  -0.387  1.00  0.00     0.109 A 
HETATM   25  N   UNL     1      38.523 -12.074  -1.138  1.00  0.00    -0.224 NA
HETATM   26  C   UNL     1      38.502 -11.050  -2.028  1.00  0.00     0.102 A 
HETATM   27  C   UNL     1      37.269 -10.837  -2.848  1.00  0.00     0.091 C 
HETATM   28  N   UNL     1      39.526 -10.206  -2.201  1.00  0.00    -0.348 N 
HETATM   29  H   UNL     1      39.442  -9.453  -2.882  1.00  0.00     0.167 HD
HETATM   30  C   UNL     1      40.642 -10.346  -1.471  1.00  0.00     0.009 A 
HETATM   31  C   UNL     1      41.773  -9.391  -1.678  1.00  0.00     0.068 C 
HETATM   32  C   UNL     1      40.708 -11.378  -0.533  1.00  0.00     0.069 A 
ENDBRANCH  21  24
ENDBRANCH   1  18
TORSDOF 5
ENDMDL
