MODEL 1
REMARK VINA RESULT:      -8.3      0.000      0.000
REMARK  9 active torsions:
REMARK  status: ('A' for Active; 'I' for Inactive)
REMARK    1  A    between atoms: C_2  and  N_3 
REMARK    2  A    between atoms: C_2  and  C_23 
REMARK       I    between atoms: N_3  and  C_4 
REMARK       I    between atoms: C_4  and  N_5 
REMARK    3  A    between atoms: N_5  and  C_6 
REMARK    4  A    between atoms: C_6  and  C_7 
REMARK    5  A    between atoms: C_7  and  N_8 
REMARK    6  A    between atoms: C_7  and  C_14 
REMARK    7  A    between atoms: C_16  and  O_17 
REMARK    8  A    between atoms: C_23  and  C_24 
REMARK    9  A    between atoms: C_27  and  O_28 
ROOT
HETATM    1  N   UNL     1      43.671 -11.446   8.194  1.00  0.00    -0.339 N 
HETATM    2  C   UNL     1      44.096 -12.273   7.198  1.00  0.00     0.316 C 
HETATM    3  N   UNL     1      43.522 -13.518   7.275  1.00  0.00    -0.341 N 
HETATM    4  O   UNL     1      44.969 -12.002   6.384  1.00  0.00    -0.248 OA
HETATM    5  H   UNL     1      42.792 -11.648   8.645  1.00  0.00     0.164 HD
HETATM    6  H   UNL     1      42.628 -13.533   7.746  1.00  0.00     0.164 HD
ENDROOT
BRANCH   3   7
HETATM    7  C   UNL     1      43.687 -14.460   6.177  1.00  0.00     0.162 C 
BRANCH   7   8
HETATM    8  C   UNL     1      42.417 -15.232   5.686  1.00  0.00     0.238 C 
BRANCH   8   9
HETATM    9  N   UNL     1      41.309 -14.356   5.097  1.00  0.00    -0.061 N 
HETATM   10  H   UNL     1      40.890 -14.952   4.373  1.00  0.00     0.280 HD
HETATM   11  C   UNL     1      41.683 -13.071   4.402  1.00  0.00     0.236 C 
HETATM   12  C   UNL     1      40.970 -11.986   5.183  1.00  0.00     0.029 C 
HETATM   13  C   UNL     1      39.693 -12.666   5.631  1.00  0.00     0.029 C 
HETATM   14  C   UNL     1      40.167 -14.044   6.050  1.00  0.00     0.236 C 
ENDBRANCH   8   9
BRANCH   8  15
HETATM   15  C   UNL     1      42.785 -16.347   4.708  1.00  0.00    -0.023 A 
HETATM   16  C   UNL     1      43.578 -17.424   5.160  1.00  0.00     0.046 A 
HETATM   17  C   UNL     1      43.937 -18.461   4.295  1.00  0.00     0.068 A 
HETATM   18  C   UNL     1      43.483 -18.441   2.977  1.00  0.00     0.037 A 
HETATM   19  C   UNL     1      42.699 -17.388   2.513  1.00  0.00     0.003 A 
HETATM   20  C   UNL     1      42.350 -16.347   3.373  1.00  0.00     0.009 A 
BRANCH  17  21
HETATM   21  O   UNL     1      44.700 -19.546   4.618  1.00  0.00    -0.356 OA
HETATM   22  C   UNL     1      44.065 -20.599   5.332  1.00  0.00     0.210 C 
ENDBRANCH  17  21
ENDBRANCH   8  15
ENDBRANCH   7   8
ENDBRANCH   3   7
BRANCH   1  23
HETATM   23  C   UNL     1      44.210 -10.097   8.372  1.00  0.00     0.086 C 
HETATM   24  C   UNL     1      43.079  -9.066   8.369  1.00  0.00     0.032 C 
BRANCH  23  25
HETATM   25  C   UNL     1      45.020  -9.984   9.680  1.00  0.00     0.063 C 
BRANCH  25  26
HETATM   26  C   UNL     1      44.160  -9.749  10.901  1.00  0.00    -0.056 A 
HETATM   27  C   UNL     1      43.565 -10.829  11.570  1.00  0.00     0.010 A 
HETATM   28  C   UNL     1      42.777 -10.615  12.704  1.00  0.00     0.037 A 
HETATM   29  C   UNL     1      42.573  -9.318  13.159  1.00  0.00     0.065 A 
HETATM   30  C   UNL     1      43.146  -8.234  12.504  1.00  0.00     0.037 A 
HETATM   31  C   UNL     1      43.944  -8.449  11.381  1.00  0.00     0.010 A 
BRANCH  29  32
HETATM   32  O   UNL     1      41.813  -9.063  14.261  1.00  0.00    -0.361 OA
HETATM   33  H   UNL     1      42.162  -9.582  15.005  1.00  0.00     0.217 HD
ENDBRANCH  29  32
ENDBRANCH  25  26
ENDBRANCH  23  25
ENDBRANCH   1  23
TORSDOF 9
ENDMDL
MODEL 2
REMARK VINA RESULT:      -8.3      1.995      9.369
REMARK  9 active torsions:
REMARK  status: ('A' for Active; 'I' for Inactive)
REMARK    1  A    between atoms: C_2  and  N_3 
REMARK    2  A    between atoms: C_2  and  C_23 
REMARK       I    between atoms: N_3  and  C_4 
REMARK       I    between atoms: C_4  and  N_5 
REMARK    3  A    between atoms: N_5  and  C_6 
REMARK    4  A    between atoms: C_6  and  C_7 
REMARK    5  A    between atoms: C_7  and  N_8 
REMARK    6  A    between atoms: C_7  and  C_14 
REMARK    7  A    between atoms: C_16  and  O_17 
REMARK    8  A    between atoms: C_23  and  C_24 
REMARK    9  A    between atoms: C_27  and  O_28 
ROOT
HETATM    1  N   UNL     1      42.382 -14.785   3.162  1.00  0.00    -0.339 N 
HETATM    2  C   UNL     1      42.468 -14.442   4.477  1.00  0.00     0.316 C 
HETATM    3  N   UNL     1      43.062 -13.219   4.660  1.00  0.00    -0.341 N 
HETATM    4  O   UNL     1      42.160 -15.168   5.414  1.00  0.00    -0.248 OA
HETATM    5  H   UNL     1      42.412 -14.051   2.470  1.00  0.00     0.164 HD
HETATM    6  H   UNL     1      42.980 -12.596   3.867  1.00  0.00     0.164 HD
ENDROOT
BRANCH   3   7
HETATM    7  C   UNL     1      43.044 -12.592   5.974  1.00  0.00     0.162 C 
BRANCH   7   8
HETATM    8  C   UNL     1      43.079 -11.029   6.034  1.00  0.00     0.238 C 
BRANCH   8   9
HETATM    9  N   UNL     1      41.711 -10.344   5.996  1.00  0.00    -0.061 N 
HETATM   10  H   UNL     1      41.744  -9.695   6.791  1.00  0.00     0.280 HD
HETATM   11  C   UNL     1      40.470 -11.177   6.201  1.00  0.00     0.236 C 
HETATM   12  C   UNL     1      39.663 -10.988   4.932  1.00  0.00     0.029 C 
HETATM   13  C   UNL     1      39.981  -9.563   4.529  1.00  0.00     0.029 C 
HETATM   14  C   UNL     1      41.472  -9.459   4.783  1.00  0.00     0.236 C 
ENDBRANCH   8   9
BRANCH   8  15
HETATM   15  C   UNL     1      43.885 -10.534   7.234  1.00  0.00    -0.023 A 
HETATM   16  C   UNL     1      43.273  -9.665   8.163  1.00  0.00     0.046 A 
HETATM   17  C   UNL     1      43.978  -9.190   9.271  1.00  0.00     0.068 A 
HETATM   18  C   UNL     1      45.294  -9.602   9.474  1.00  0.00     0.037 A 
HETATM   19  C   UNL     1      45.915 -10.461   8.570  1.00  0.00     0.003 A 
HETATM   20  C   UNL     1      45.215 -10.925   7.456  1.00  0.00     0.009 A 
BRANCH  17  21
HETATM   21  O   UNL     1      43.492  -8.345  10.228  1.00  0.00    -0.356 OA
HETATM   22  C   UNL     1      43.662  -8.734  11.586  1.00  0.00     0.210 C 
ENDBRANCH  17  21
ENDBRANCH   8  15
ENDBRANCH   7   8
ENDBRANCH   3   7
BRANCH   1  23
HETATM   23  C   UNL     1      41.865 -16.082   2.725  1.00  0.00     0.086 C 
HETATM   24  C   UNL     1      40.685 -15.892   1.769  1.00  0.00     0.032 C 
BRANCH  23  25
HETATM   25  C   UNL     1      42.964 -16.923   2.041  1.00  0.00     0.063 C 
BRANCH  25  26
HETATM   26  C   UNL     1      43.352 -18.156   2.825  1.00  0.00    -0.056 A 
HETATM   27  C   UNL     1      43.310 -19.423   2.223  1.00  0.00     0.010 A 
HETATM   28  C   UNL     1      43.677 -20.563   2.943  1.00  0.00     0.037 A 
HETATM   29  C   UNL     1      44.071 -20.436   4.270  1.00  0.00     0.065 A 
HETATM   30  C   UNL     1      44.109 -19.191   4.886  1.00  0.00     0.037 A 
HETATM   31  C   UNL     1      43.757 -18.051   4.163  1.00  0.00     0.010 A 
BRANCH  29  32
HETATM   32  O   UNL     1      44.438 -21.520   5.009  1.00  0.00    -0.361 OA
HETATM   33  H   UNL     1      43.635 -21.947   5.353  1.00  0.00     0.217 HD
ENDBRANCH  29  32
ENDBRANCH  25  26
ENDBRANCH  23  25
ENDBRANCH   1  23
TORSDOF 9
ENDMDL
MODEL 3
REMARK VINA RESULT:      -8.2      4.355      7.857
REMARK  9 active torsions:
REMARK  status: ('A' for Active; 'I' for Inactive)
REMARK    1  A    between atoms: C_2  and  N_3 
REMARK    2  A    between atoms: C_2  and  C_23 
REMARK       I    between atoms: N_3  and  C_4 
REMARK       I    between atoms: C_4  and  N_5 
REMARK    3  A    between atoms: N_5  and  C_6 
REMARK    4  A    between atoms: C_6  and  C_7 
REMARK    5  A    between atoms: C_7  and  N_8 
REMARK    6  A    between atoms: C_7  and  C_14 
REMARK    7  A    between atoms: C_16  and  O_17 
REMARK    8  A    between atoms: C_23  and  C_24 
REMARK    9  A    between atoms: C_27  and  O_28 
ROOT
HETATM    1  N   UNL     1      43.085 -17.605   1.905  1.00  0.00    -0.339 N 
HETATM    2  C   UNL     1      42.230 -16.583   2.189  1.00  0.00     0.316 C 
HETATM    3  N   UNL     1      42.358 -15.537   1.309  1.00  0.00    -0.341 N 
HETATM    4  O   UNL     1      41.500 -16.529   3.170  1.00  0.00    -0.248 OA
HETATM    5  H   UNL     1      43.448 -17.683   0.967  1.00  0.00     0.164 HD
HETATM    6  H   UNL     1      42.721 -15.800   0.403  1.00  0.00     0.164 HD
ENDROOT
BRANCH   3   7
HETATM    7  C   UNL     1      41.382 -14.457   1.321  1.00  0.00     0.162 C 
BRANCH   7   8
HETATM    8  C   UNL     1      41.909 -13.005   1.578  1.00  0.00     0.238 C 
BRANCH   8   9
HETATM    9  N   UNL     1      40.974 -11.883   1.121  1.00  0.00    -0.061 N 
HETATM   10  H   UNL     1      41.401 -11.037   1.519  1.00  0.00     0.280 HD
HETATM   11  C   UNL     1      39.544 -11.881   1.600  1.00  0.00     0.236 C 
HETATM   12  C   UNL     1      38.713 -11.947   0.334  1.00  0.00     0.029 C 
HETATM   13  C   UNL     1      39.542 -11.168  -0.665  1.00  0.00     0.029 C 
HETATM   14  C   UNL     1      40.954 -11.638  -0.379  1.00  0.00     0.236 C 
ENDBRANCH   8   9
BRANCH   8  15
HETATM   15  C   UNL     1      42.301 -12.804   3.041  1.00  0.00    -0.023 A 
HETATM   16  C   UNL     1      43.455 -12.050   3.347  1.00  0.00     0.046 A 
HETATM   17  C   UNL     1      43.847 -11.847   4.672  1.00  0.00     0.068 A 
HETATM   18  C   UNL     1      43.072 -12.375   5.704  1.00  0.00     0.037 A 
HETATM   19  C   UNL     1      41.929 -13.120   5.423  1.00  0.00     0.003 A 
HETATM   20  C   UNL     1      41.545 -13.334   4.099  1.00  0.00     0.009 A 
BRANCH  17  21
HETATM   21  O   UNL     1      44.941 -11.143   5.085  1.00  0.00    -0.356 OA
HETATM   22  C   UNL     1      45.496 -11.484   6.349  1.00  0.00     0.210 C 
ENDBRANCH  17  21
ENDBRANCH   8  15
ENDBRANCH   7   8
ENDBRANCH   3   7
BRANCH   1  23
HETATM   23  C   UNL     1      43.194 -18.791   2.755  1.00  0.00     0.086 C 
HETATM   24  C   UNL     1      43.271 -20.056   1.898  1.00  0.00     0.032 C 
BRANCH  23  25
HETATM   25  C   UNL     1      44.426 -18.707   3.681  1.00  0.00     0.063 C 
BRANCH  25  26
HETATM   26  C   UNL     1      44.138 -18.035   5.004  1.00  0.00    -0.056 A 
HETATM   27  C   UNL     1      43.597 -18.768   6.071  1.00  0.00     0.010 A 
HETATM   28  C   UNL     1      43.339 -18.150   7.297  1.00  0.00     0.037 A 
HETATM   29  C   UNL     1      43.611 -16.796   7.451  1.00  0.00     0.065 A 
HETATM   30  C   UNL     1      44.138 -16.051   6.404  1.00  0.00     0.037 A 
HETATM   31  C   UNL     1      44.409 -16.670   5.184  1.00  0.00     0.010 A 
BRANCH  29  32
HETATM   32  O   UNL     1      43.376 -16.154   8.630  1.00  0.00    -0.361 OA
HETATM   33  H   UNL     1      43.774 -15.268   8.585  1.00  0.00     0.217 HD
ENDBRANCH  29  32
ENDBRANCH  25  26
ENDBRANCH  23  25
ENDBRANCH   1  23
TORSDOF 9
ENDMDL
MODEL 4
REMARK VINA RESULT:      -8.0      4.652      9.885
REMARK  9 active torsions:
REMARK  status: ('A' for Active; 'I' for Inactive)
REMARK    1  A    between atoms: C_2  and  N_3 
REMARK    2  A    between atoms: C_2  and  C_23 
REMARK       I    between atoms: N_3  and  C_4 
REMARK       I    between atoms: C_4  and  N_5 
REMARK    3  A    between atoms: N_5  and  C_6 
REMARK    4  A    between atoms: C_6  and  C_7 
REMARK    5  A    between atoms: C_7  and  N_8 
REMARK    6  A    between atoms: C_7  and  C_14 
REMARK    7  A    between atoms: C_16  and  O_17 
REMARK    8  A    between atoms: C_23  and  C_24 
REMARK    9  A    between atoms: C_27  and  O_28 
ROOT
HETATM    1  N   UNL     1      39.197 -12.481   2.619  1.00  0.00    -0.339 N 
HETATM    2  C   UNL     1      39.726 -13.721   2.810  1.00  0.00     0.316 C 
HETATM    3  N   UNL     1      40.435 -13.810   3.983  1.00  0.00    -0.341 N 
HETATM    4  O   UNL     1      39.684 -14.636   1.998  1.00  0.00    -0.248 OA
HETATM    5  H   UNL     1      39.057 -11.888   3.422  1.00  0.00     0.164 HD
HETATM    6  H   UNL     1      40.147 -13.148   4.691  1.00  0.00     0.164 HD
ENDROOT
BRANCH   3   7
HETATM    7  C   UNL     1      40.885 -15.109   4.460  1.00  0.00     0.162 C 
BRANCH   7   8
HETATM    8  C   UNL     1      42.384 -15.246   4.889  1.00  0.00     0.238 C 
BRANCH   8   9
HETATM    9  N   UNL     1      43.271 -16.030   3.918  1.00  0.00    -0.061 N 
HETATM   10  H   UNL     1      44.117 -15.452   3.845  1.00  0.00     0.280 HD
HETATM   11  C   UNL     1      42.797 -16.239   2.502  1.00  0.00     0.236 C 
HETATM   12  C   UNL     1      42.730 -17.744   2.335  1.00  0.00     0.029 C 
HETATM   13  C   UNL     1      43.869 -18.239   3.202  1.00  0.00     0.029 C 
HETATM   14  C   UNL     1      43.760 -17.370   4.440  1.00  0.00     0.236 C 
ENDBRANCH   8   9
BRANCH   8  15
HETATM   15  C   UNL     1      43.006 -13.882   5.190  1.00  0.00    -0.023 A 
HETATM   16  C   UNL     1      43.327 -13.552   6.523  1.00  0.00     0.046 A 
HETATM   17  C   UNL     1      43.894 -12.314   6.837  1.00  0.00     0.068 A 
HETATM   18  C   UNL     1      44.167 -11.407   5.815  1.00  0.00     0.037 A 
HETATM   19  C   UNL     1      43.858 -11.715   4.492  1.00  0.00     0.003 A 
HETATM   20  C   UNL     1      43.281 -12.946   4.180  1.00  0.00     0.009 A 
BRANCH  17  21
HETATM   21  O   UNL     1      44.241 -11.886   8.086  1.00  0.00    -0.356 OA
HETATM   22  C   UNL     1      44.139 -10.491   8.347  1.00  0.00     0.210 C 
ENDBRANCH  17  21
ENDBRANCH   8  15
ENDBRANCH   7   8
ENDBRANCH   3   7
BRANCH   1  23
HETATM   23  C   UNL     1      38.475 -12.120   1.398  1.00  0.00     0.086 C 
HETATM   24  C   UNL     1      37.647 -10.853   1.623  1.00  0.00     0.032 C 
BRANCH  23  25
HETATM   25  C   UNL     1      39.442 -11.912   0.214  1.00  0.00     0.063 C 
BRANCH  25  26
HETATM   26  C   UNL     1      39.067 -12.707  -1.016  1.00  0.00    -0.056 A 
HETATM   27  C   UNL     1      37.784 -12.594  -1.571  1.00  0.00     0.010 A 
HETATM   28  C   UNL     1      37.438 -13.323  -2.712  1.00  0.00     0.037 A 
HETATM   29  C   UNL     1      38.373 -14.174  -3.289  1.00  0.00     0.065 A 
HETATM   30  C   UNL     1      39.646 -14.306  -2.748  1.00  0.00     0.037 A 
HETATM   31  C   UNL     1      39.996 -13.569  -1.617  1.00  0.00     0.010 A 
BRANCH  29  32
HETATM   32  O   UNL     1      38.079 -14.901  -4.403  1.00  0.00    -0.361 OA
HETATM   33  H   UNL     1      37.114 -15.002  -4.462  1.00  0.00     0.217 HD
ENDBRANCH  29  32
ENDBRANCH  25  26
ENDBRANCH  23  25
ENDBRANCH   1  23
TORSDOF 9
ENDMDL
MODEL 5
REMARK VINA RESULT:      -8.0      6.681     10.603
REMARK  9 active torsions:
REMARK  status: ('A' for Active; 'I' for Inactive)
REMARK    1  A    between atoms: C_2  and  N_3 
REMARK    2  A    between atoms: C_2  and  C_23 
REMARK       I    between atoms: N_3  and  C_4 
REMARK       I    between atoms: C_4  and  N_5 
REMARK    3  A    between atoms: N_5  and  C_6 
REMARK    4  A    between atoms: C_6  and  C_7 
REMARK    5  A    between atoms: C_7  and  N_8 
REMARK    6  A    between atoms: C_7  and  C_14 
REMARK    7  A    between atoms: C_16  and  O_17 
REMARK    8  A    between atoms: C_23  and  C_24 
REMARK    9  A    between atoms: C_27  and  O_28 
ROOT
HETATM    1  N   UNL     1      41.551 -14.920   1.832  1.00  0.00    -0.339 N 
HETATM    2  C   UNL     1      41.408 -13.623   1.441  1.00  0.00     0.316 C 
HETATM    3  N   UNL     1      41.179 -13.507   0.092  1.00  0.00    -0.341 N 
HETATM    4  O   UNL     1      41.570 -12.649   2.165  1.00  0.00    -0.248 OA
HETATM    5  H   UNL     1      41.156 -15.644   1.251  1.00  0.00     0.164 HD
HETATM    6  H   UNL     1      40.758 -14.325  -0.327  1.00  0.00     0.164 HD
ENDROOT
BRANCH   3   7
HETATM    7  C   UNL     1      40.787 -12.222  -0.468  1.00  0.00     0.162 C 
BRANCH   7   8
HETATM    8  C   UNL     1      40.926 -12.032  -2.016  1.00  0.00     0.238 C 
BRANCH   8   9
HETATM    9  N   UNL     1      39.751 -12.558  -2.845  1.00  0.00    -0.061 N 
HETATM   10  H   UNL     1      39.955 -12.219  -3.793  1.00  0.00     0.280 HD
HETATM   11  C   UNL     1      38.358 -12.074  -2.529  1.00  0.00     0.236 C 
HETATM   12  C   UNL     1      37.583 -13.329  -2.180  1.00  0.00     0.029 C 
HETATM   13  C   UNL     1      38.210 -14.381  -3.071  1.00  0.00     0.029 C 
HETATM   14  C   UNL     1      39.691 -14.071  -2.979  1.00  0.00     0.236 C 
ENDBRANCH   8   9
BRANCH   8  15
HETATM   15  C   UNL     1      41.216 -10.576  -2.375  1.00  0.00    -0.023 A 
HETATM   16  C   UNL     1      41.838  -9.742  -1.421  1.00  0.00     0.046 A 
HETATM   17  C   UNL     1      42.118  -8.405  -1.712  1.00  0.00     0.068 A 
HETATM   18  C   UNL     1      41.800  -7.897  -2.971  1.00  0.00     0.037 A 
HETATM   19  C   UNL     1      41.187  -8.704  -3.927  1.00  0.00     0.003 A 
HETATM   20  C   UNL     1      40.897 -10.036  -3.632  1.00  0.00     0.009 A 
BRANCH  17  21
HETATM   21  O   UNL     1      42.709  -7.508  -0.869  1.00  0.00    -0.356 OA
HETATM   22  C   UNL     1      43.567  -6.535  -1.452  1.00  0.00     0.210 C 
ENDBRANCH  17  21
ENDBRANCH   8  15
ENDBRANCH   7   8
ENDBRANCH   3   7
BRANCH   1  23
HETATM   23  C   UNL     1      41.889 -15.288   3.207  1.00  0.00     0.086 C 
HETATM   24  C   UNL     1      40.951 -16.388   3.711  1.00  0.00     0.032 C 
BRANCH  23  25
HETATM   25  C   UNL     1      43.355 -15.757   3.318  1.00  0.00     0.063 C 
BRANCH  25  26
HETATM   26  C   UNL     1      43.506 -17.261   3.323  1.00  0.00    -0.056 A 
HETATM   27  C   UNL     1      43.121 -18.018   2.207  1.00  0.00     0.010 A 
HETATM   28  C   UNL     1      43.268 -19.408   2.207  1.00  0.00     0.037 A 
HETATM   29  C   UNL     1      43.788 -20.040   3.330  1.00  0.00     0.065 A 
HETATM   30  C   UNL     1      44.166 -19.309   4.449  1.00  0.00     0.037 A 
HETATM   31  C   UNL     1      44.032 -17.920   4.444  1.00  0.00     0.010 A 
BRANCH  29  32
HETATM   32  O   UNL     1      43.950 -21.392   3.372  1.00  0.00    -0.361 OA
HETATM   33  H   UNL     1      43.246 -21.772   3.924  1.00  0.00     0.217 HD
ENDBRANCH  29  32
ENDBRANCH  25  26
ENDBRANCH  23  25
ENDBRANCH   1  23
TORSDOF 9
ENDMDL
MODEL 6
REMARK VINA RESULT:      -8.0      1.425      1.947
REMARK  9 active torsions:
REMARK  status: ('A' for Active; 'I' for Inactive)
REMARK    1  A    between atoms: C_2  and  N_3 
REMARK    2  A    between atoms: C_2  and  C_23 
REMARK       I    between atoms: N_3  and  C_4 
REMARK       I    between atoms: C_4  and  N_5 
REMARK    3  A    between atoms: N_5  and  C_6 
REMARK    4  A    between atoms: C_6  and  C_7 
REMARK    5  A    between atoms: C_7  and  N_8 
REMARK    6  A    between atoms: C_7  and  C_14 
REMARK    7  A    between atoms: C_16  and  O_17 
REMARK    8  A    between atoms: C_23  and  C_24 
REMARK    9  A    between atoms: C_27  and  O_28 
ROOT
HETATM    1  N   UNL     1      43.449 -10.564   8.703  1.00  0.00    -0.339 N 
HETATM    2  C   UNL     1      44.130 -11.298   7.779  1.00  0.00     0.316 C 
HETATM    3  N   UNL     1      43.538 -12.514   7.542  1.00  0.00    -0.341 N 
HETATM    4  O   UNL     1      45.205 -10.984   7.285  1.00  0.00    -0.248 OA
HETATM    5  H   UNL     1      42.474 -10.770   8.858  1.00  0.00     0.164 HD
HETATM    6  H   UNL     1      42.546 -12.536   7.734  1.00  0.00     0.164 HD
ENDROOT
BRANCH   3   7
HETATM    7  C   UNL     1      43.998 -13.339   6.433  1.00  0.00     0.162 C 
BRANCH   7   8
HETATM    8  C   UNL     1      42.912 -13.960   5.492  1.00  0.00     0.238 C 
BRANCH   8   9
HETATM    9  N   UNL     1      42.639 -13.176   4.206  1.00  0.00    -0.061 N 
HETATM   10  H   UNL     1      42.756 -13.878   3.466  1.00  0.00     0.280 HD
HETATM   11  C   UNL     1      43.556 -12.037   3.835  1.00  0.00     0.236 C 
HETATM   12  C   UNL     1      42.654 -10.820   3.772  1.00  0.00     0.029 C 
HETATM   13  C   UNL     1      41.343 -11.388   3.272  1.00  0.00     0.029 C 
HETATM   14  C   UNL     1      41.210 -12.682   4.049  1.00  0.00     0.236 C 
ENDBRANCH   8   9
BRANCH   8  15
HETATM   15  C   UNL     1      43.226 -15.419   5.165  1.00  0.00    -0.023 A 
HETATM   16  C   UNL     1      42.957 -15.907   3.868  1.00  0.00     0.046 A 
HETATM   17  C   UNL     1      43.229 -17.235   3.532  1.00  0.00     0.068 A 
HETATM   18  C   UNL     1      43.796 -18.080   4.485  1.00  0.00     0.037 A 
HETATM   19  C   UNL     1      44.070 -17.618   5.769  1.00  0.00     0.003 A 
HETATM   20  C   UNL     1      43.788 -16.295   6.109  1.00  0.00     0.009 A 
BRANCH  17  21
HETATM   21  O   UNL     1      43.006 -17.816   2.316  1.00  0.00    -0.356 OA
HETATM   22  C   UNL     1      43.247 -19.214   2.209  1.00  0.00     0.210 C 
ENDBRANCH  17  21
ENDBRANCH   8  15
ENDBRANCH   7   8
ENDBRANCH   3   7
BRANCH   1  23
HETATM   23  C   UNL     1      43.935  -9.270   9.184  1.00  0.00     0.086 C 
HETATM   24  C   UNL     1      42.785  -8.264   9.262  1.00  0.00     0.032 C 
BRANCH  23  25
HETATM   25  C   UNL     1      44.610  -9.403  10.565  1.00  0.00     0.063 C 
BRANCH  25  26
HETATM   26  C   UNL     1      43.653  -9.225  11.722  1.00  0.00    -0.056 A 
HETATM   27  C   UNL     1      42.751 -10.243  12.062  1.00  0.00     0.010 A 
HETATM   28  C   UNL     1      41.872 -10.084  13.136  1.00  0.00     0.037 A 
HETATM   29  C   UNL     1      41.887  -8.898  13.861  1.00  0.00     0.065 A 
HETATM   30  C   UNL     1      42.767  -7.874  13.534  1.00  0.00     0.037 A 
HETATM   31  C   UNL     1      43.654  -8.038  12.470  1.00  0.00     0.010 A 
BRANCH  29  32
HETATM   32  O   UNL     1      41.048  -8.700  14.917  1.00  0.00    -0.361 OA
HETATM   33  H   UNL     1      41.167  -9.430  15.548  1.00  0.00     0.217 HD
ENDBRANCH  29  32
ENDBRANCH  25  26
ENDBRANCH  23  25
ENDBRANCH   1  23
TORSDOF 9
ENDMDL
MODEL 7
REMARK VINA RESULT:      -7.8      6.234     10.165
REMARK  9 active torsions:
REMARK  status: ('A' for Active; 'I' for Inactive)
REMARK    1  A    between atoms: C_2  and  N_3 
REMARK    2  A    between atoms: C_2  and  C_23 
REMARK       I    between atoms: N_3  and  C_4 
REMARK       I    between atoms: C_4  and  N_5 
REMARK    3  A    between atoms: N_5  and  C_6 
REMARK    4  A    between atoms: C_6  and  C_7 
REMARK    5  A    between atoms: C_7  and  N_8 
REMARK    6  A    between atoms: C_7  and  C_14 
REMARK    7  A    between atoms: C_16  and  O_17 
REMARK    8  A    between atoms: C_23  and  C_24 
REMARK    9  A    between atoms: C_27  and  O_28 
ROOT
HETATM    1  N   UNL     1      40.926 -15.327   2.996  1.00  0.00    -0.339 N 
HETATM    2  C   UNL     1      40.676 -14.145   2.366  1.00  0.00     0.316 C 
HETATM    3  N   UNL     1      39.985 -14.317   1.192  1.00  0.00    -0.341 N 
HETATM    4  O   UNL     1      41.101 -13.054   2.723  1.00  0.00    -0.248 OA
HETATM    5  H   UNL     1      40.338 -16.119   2.785  1.00  0.00     0.164 HD
HETATM    6  H   UNL     1      39.428 -15.160   1.159  1.00  0.00     0.164 HD
ENDROOT
BRANCH   3   7
HETATM    7  C   UNL     1      39.441 -13.159   0.496  1.00  0.00     0.162 C 
BRANCH   7   8
HETATM    8  C   UNL     1      40.259 -12.586  -0.709  1.00  0.00     0.238 C 
BRANCH   8   9
HETATM    9  N   UNL     1      39.632 -12.810  -2.087  1.00  0.00    -0.061 N 
HETATM   10  H   UNL     1      40.264 -12.309  -2.724  1.00  0.00     0.280 HD
HETATM   11  C   UNL     1      38.255 -12.259  -2.362  1.00  0.00     0.236 C 
HETATM   12  C   UNL     1      37.417 -13.472  -2.714  1.00  0.00     0.029 C 
HETATM   13  C   UNL     1      38.402 -14.381  -3.417  1.00  0.00     0.029 C 
HETATM   14  C   UNL     1      39.654 -14.250  -2.573  1.00  0.00     0.236 C 
ENDBRANCH   8   9
BRANCH   8  15
HETATM   15  C   UNL     1      40.584 -11.106  -0.510  1.00  0.00    -0.023 A 
HETATM   16  C   UNL     1      41.345 -10.431  -1.489  1.00  0.00     0.046 A 
HETATM   17  C   UNL     1      41.664  -9.079  -1.340  1.00  0.00     0.068 A 
HETATM   18  C   UNL     1      41.202  -8.385  -0.223  1.00  0.00     0.037 A 
HETATM   19  C   UNL     1      40.449  -9.033   0.753  1.00  0.00     0.003 A 
HETATM   20  C   UNL     1      40.141 -10.386   0.611  1.00  0.00     0.009 A 
BRANCH  17  21
HETATM   21  O   UNL     1      42.394  -8.328  -2.216  1.00  0.00    -0.356 OA
HETATM   22  C   UNL     1      43.339  -7.420  -1.663  1.00  0.00     0.210 C 
ENDBRANCH  17  21
ENDBRANCH   8  15
ENDBRANCH   7   8
ENDBRANCH   3   7
BRANCH   1  23
HETATM   23  C   UNL     1      41.724 -15.405   4.220  1.00  0.00     0.086 C 
HETATM   24  C   UNL     1      41.124 -16.432   5.183  1.00  0.00     0.032 C 
BRANCH  23  25
HETATM   25  C   UNL     1      43.191 -15.770   3.911  1.00  0.00     0.063 C 
BRANCH  25  26
HETATM   26  C   UNL     1      43.399 -17.243   3.636  1.00  0.00    -0.056 A 
HETATM   27  C   UNL     1      44.018 -18.063   4.591  1.00  0.00     0.010 A 
HETATM   28  C   UNL     1      44.203 -19.425   4.342  1.00  0.00     0.037 A 
HETATM   29  C   UNL     1      43.781 -19.963   3.133  1.00  0.00     0.065 A 
HETATM   30  C   UNL     1      43.174 -19.165   2.171  1.00  0.00     0.037 A 
HETATM   31  C   UNL     1      42.977 -17.807   2.424  1.00  0.00     0.010 A 
BRANCH  29  32
HETATM   32  O   UNL     1      43.940 -21.286   2.849  1.00  0.00    -0.361 OA
HETATM   33  H   UNL     1      43.064 -21.678   2.695  1.00  0.00     0.217 HD
ENDBRANCH  29  32
ENDBRANCH  25  26
ENDBRANCH  23  25
ENDBRANCH   1  23
TORSDOF 9
ENDMDL
MODEL 8
REMARK VINA RESULT:      -7.8      1.727      2.554
REMARK  9 active torsions:
REMARK  status: ('A' for Active; 'I' for Inactive)
REMARK    1  A    between atoms: C_2  and  N_3 
REMARK    2  A    between atoms: C_2  and  C_23 
REMARK       I    between atoms: N_3  and  C_4 
REMARK       I    between atoms: C_4  and  N_5 
REMARK    3  A    between atoms: N_5  and  C_6 
REMARK    4  A    between atoms: C_6  and  C_7 
REMARK    5  A    between atoms: C_7  and  N_8 
REMARK    6  A    between atoms: C_7  and  C_14 
REMARK    7  A    between atoms: C_16  and  O_17 
REMARK    8  A    between atoms: C_23  and  C_24 
REMARK    9  A    between atoms: C_27  and  O_28 
ROOT
HETATM    1  N   UNL     1      43.253 -11.915   6.978  1.00  0.00    -0.339 N 
HETATM    2  C   UNL     1      42.933 -13.237   7.032  1.00  0.00     0.316 C 
HETATM    3  N   UNL     1      41.703 -13.499   6.481  1.00  0.00    -0.341 N 
HETATM    4  O   UNL     1      43.594 -14.098   7.599  1.00  0.00    -0.248 OA
HETATM    5  H   UNL     1      42.797 -11.337   6.288  1.00  0.00     0.164 HD
HETATM    6  H   UNL     1      41.407 -12.823   5.789  1.00  0.00     0.164 HD
ENDROOT
BRANCH   3   7
HETATM    7  C   UNL     1      41.289 -14.875   6.253  1.00  0.00     0.162 C 
BRANCH   7   8
HETATM    8  C   UNL     1      41.213 -15.376   4.772  1.00  0.00     0.238 C 
BRANCH   8   9
HETATM    9  N   UNL     1      41.251 -14.274   3.710  1.00  0.00    -0.061 N 
HETATM   10  H   UNL     1      41.069 -13.416   4.246  1.00  0.00     0.280 HD
HETATM   11  C   UNL     1      40.225 -14.289   2.605  1.00  0.00     0.236 C 
HETATM   12  C   UNL     1      41.035 -14.384   1.327  1.00  0.00     0.029 C 
HETATM   13  C   UNL     1      42.291 -13.606   1.655  1.00  0.00     0.029 C 
HETATM   14  C   UNL     1      42.610 -14.050   3.069  1.00  0.00     0.236 C 
ENDBRANCH   8   9
BRANCH   8  15
HETATM   15  C   UNL     1      42.284 -16.426   4.482  1.00  0.00    -0.023 A 
HETATM   16  C   UNL     1      42.183 -17.206   3.310  1.00  0.00     0.046 A 
HETATM   17  C   UNL     1      43.142 -18.178   3.012  1.00  0.00     0.068 A 
HETATM   18  C   UNL     1      44.223 -18.360   3.873  1.00  0.00     0.037 A 
HETATM   19  C   UNL     1      44.341 -17.600   5.034  1.00  0.00     0.003 A 
HETATM   20  C   UNL     1      43.378 -16.638   5.338  1.00  0.00     0.009 A 
BRANCH  17  21
HETATM   21  O   UNL     1      43.144 -18.991   1.916  1.00  0.00    -0.356 OA
HETATM   22  C   UNL     1      43.596 -20.328   2.097  1.00  0.00     0.210 C 
ENDBRANCH  17  21
ENDBRANCH   8  15
ENDBRANCH   7   8
ENDBRANCH   3   7
BRANCH   1  23
HETATM   23  C   UNL     1      44.476 -11.382   7.581  1.00  0.00     0.086 C 
HETATM   24  C   UNL     1      45.615 -11.375   6.560  1.00  0.00     0.032 C 
BRANCH  23  25
HETATM   25  C   UNL     1      44.255  -9.957   8.132  1.00  0.00     0.063 C 
BRANCH  25  26
HETATM   26  C   UNL     1      43.503  -9.930   9.443  1.00  0.00    -0.056 A 
HETATM   27  C   UNL     1      42.236  -9.335   9.524  1.00  0.00     0.010 A 
HETATM   28  C   UNL     1      41.536  -9.317  10.733  1.00  0.00     0.037 A 
HETATM   29  C   UNL     1      42.112  -9.882  11.865  1.00  0.00     0.065 A 
HETATM   30  C   UNL     1      43.371 -10.468  11.807  1.00  0.00     0.037 A 
HETATM   31  C   UNL     1      44.063 -10.499  10.597  1.00  0.00     0.010 A 
BRANCH  29  32
HETATM   32  O   UNL     1      41.465  -9.888  13.064  1.00  0.00    -0.361 OA
HETATM   33  H   UNL     1      42.123  -9.782  13.772  1.00  0.00     0.217 HD
ENDBRANCH  29  32
ENDBRANCH  25  26
ENDBRANCH  23  25
ENDBRANCH   1  23
TORSDOF 9
ENDMDL
MODEL 9
REMARK VINA RESULT:      -7.8      4.351      6.504
REMARK  9 active torsions:
REMARK  status: ('A' for Active; 'I' for Inactive)
REMARK    1  A    between atoms: C_2  and  N_3 
REMARK    2  A    between atoms: C_2  and  C_23 
REMARK       I    between atoms: N_3  and  C_4 
REMARK       I    between atoms: C_4  and  N_5 
REMARK    3  A    between atoms: N_5  and  C_6 
REMARK    4  A    between atoms: C_6  and  C_7 
REMARK    5  A    between atoms: C_7  and  N_8 
REMARK    6  A    between atoms: C_7  and  C_14 
REMARK    7  A    between atoms: C_16  and  O_17 
REMARK    8  A    between atoms: C_23  and  C_24 
REMARK    9  A    between atoms: C_27  and  O_28 
ROOT
HETATM    1  N   UNL     1      43.163 -12.882   4.814  1.00  0.00    -0.339 N 
HETATM    2  C   UNL     1      41.968 -12.789   4.167  1.00  0.00     0.316 C 
HETATM    3  N   UNL     1      42.121 -12.633   2.812  1.00  0.00    -0.341 N 
HETATM    4  O   UNL     1      40.874 -12.736   4.714  1.00  0.00    -0.248 OA
HETATM    5  H   UNL     1      43.974 -13.173   4.289  1.00  0.00     0.164 HD
HETATM    6  H   UNL     1      42.990 -13.001   2.448  1.00  0.00     0.164 HD
ENDROOT
BRANCH   3   7
HETATM    7  C   UNL     1      40.963 -12.734   1.936  1.00  0.00     0.162 C 
BRANCH   7   8
HETATM    8  C   UNL     1      40.994 -13.825   0.814  1.00  0.00     0.238 C 
BRANCH   8   9
HETATM    9  N   UNL     1      40.955 -15.273   1.311  1.00  0.00    -0.061 N 
HETATM   10  H   UNL     1      40.650 -15.803   0.486  1.00  0.00     0.280 HD
HETATM   11  C   UNL     1      39.993 -15.642   2.412  1.00  0.00     0.236 C 
HETATM   12  C   UNL     1      40.869 -16.167   3.532  1.00  0.00     0.029 C 
HETATM   13  C   UNL     1      42.010 -16.834   2.794  1.00  0.00     0.029 C 
HETATM   14  C   UNL     1      42.310 -15.861   1.671  1.00  0.00     0.236 C 
ENDBRANCH   8   9
BRANCH   8  15
HETATM   15  C   UNL     1      39.894 -13.593  -0.222  1.00  0.00    -0.023 A 
HETATM   16  C   UNL     1      39.119 -12.416  -0.150  1.00  0.00     0.046 A 
HETATM   17  C   UNL     1      38.104 -12.169  -1.077  1.00  0.00     0.068 A 
HETATM   18  C   UNL     1      37.873 -13.087  -2.100  1.00  0.00     0.037 A 
HETATM   19  C   UNL     1      38.629 -14.254  -2.189  1.00  0.00     0.003 A 
HETATM   20  C   UNL     1      39.634 -14.506  -1.256  1.00  0.00     0.009 A 
BRANCH  17  21
HETATM   21  O   UNL     1      37.290 -11.073  -1.102  1.00  0.00    -0.356 OA
HETATM   22  C   UNL     1      37.420 -10.192  -2.211  1.00  0.00     0.210 C 
ENDBRANCH  17  21
ENDBRANCH   8  15
ENDBRANCH   7   8
ENDBRANCH   3   7
BRANCH   1  23
HETATM   23  C   UNL     1      43.257 -12.965   6.272  1.00  0.00     0.086 C 
HETATM   24  C   UNL     1      42.910 -14.377   6.750  1.00  0.00     0.032 C 
BRANCH  23  25
HETATM   25  C   UNL     1      44.665 -12.574   6.768  1.00  0.00     0.063 C 
BRANCH  25  26
HETATM   26  C   UNL     1      44.741 -11.165   7.311  1.00  0.00    -0.056 A 
HETATM   27  C   UNL     1      45.982 -10.587   7.615  1.00  0.00     0.010 A 
HETATM   28  C   UNL     1      46.054  -9.282   8.109  1.00  0.00     0.037 A 
HETATM   29  C   UNL     1      44.883  -8.562   8.312  1.00  0.00     0.065 A 
HETATM   30  C   UNL     1      43.644  -9.121   8.027  1.00  0.00     0.037 A 
HETATM   31  C   UNL     1      43.572 -10.419   7.520  1.00  0.00     0.010 A 
BRANCH  29  32
HETATM   32  O   UNL     1      44.908  -7.286   8.791  1.00  0.00    -0.361 OA
HETATM   33  H   UNL     1      44.039  -6.880   8.634  1.00  0.00     0.217 HD
ENDBRANCH  29  32
ENDBRANCH  25  26
ENDBRANCH  23  25
ENDBRANCH   1  23
TORSDOF 9
ENDMDL
MODEL 10
REMARK VINA RESULT:      -7.8      4.730      8.057
REMARK  9 active torsions:
REMARK  status: ('A' for Active; 'I' for Inactive)
REMARK    1  A    between atoms: C_2  and  N_3 
REMARK    2  A    between atoms: C_2  and  C_23 
REMARK       I    between atoms: N_3  and  C_4 
REMARK       I    between atoms: C_4  and  N_5 
REMARK    3  A    between atoms: N_5  and  C_6 
REMARK    4  A    between atoms: C_6  and  C_7 
REMARK    5  A    between atoms: C_7  and  N_8 
REMARK    6  A    between atoms: C_7  and  C_14 
REMARK    7  A    between atoms: C_16  and  O_17 
REMARK    8  A    between atoms: C_23  and  C_24 
REMARK    9  A    between atoms: C_27  and  O_28 
ROOT
HETATM    1  N   UNL     1      42.966 -16.591   2.155  1.00  0.00    -0.339 N 
HETATM    2  C   UNL     1      41.805 -15.994   1.764  1.00  0.00     0.316 C 
HETATM    3  N   UNL     1      42.010 -15.038   0.801  1.00  0.00    -0.341 N 
HETATM    4  O   UNL     1      40.709 -16.190   2.273  1.00  0.00    -0.248 OA
HETATM    5  H   UNL     1      43.755 -16.566   1.527  1.00  0.00     0.164 HD
HETATM    6  H   UNL     1      42.844 -15.179   0.248  1.00  0.00     0.164 HD
ENDROOT
BRANCH   3   7
HETATM    7  C   UNL     1      40.871 -14.452   0.109  1.00  0.00     0.162 C 
BRANCH   7   8
HETATM    8  C   UNL     1      40.771 -12.890   0.068  1.00  0.00     0.238 C 
BRANCH   8   9
HETATM    9  N   UNL     1      39.813 -12.326  -0.984  1.00  0.00    -0.061 N 
HETATM   10  H   UNL     1      40.428 -12.108  -1.777  1.00  0.00     0.280 HD
HETATM   11  C   UNL     1      39.066 -11.051  -0.685  1.00  0.00     0.236 C 
HETATM   12  C   UNL     1      37.601 -11.430  -0.773  1.00  0.00     0.029 C 
HETATM   13  C   UNL     1      37.584 -12.491  -1.853  1.00  0.00     0.029 C 
HETATM   14  C   UNL     1      38.809 -13.325  -1.535  1.00  0.00     0.236 C 
ENDBRANCH   8   9
BRANCH   8  15
HETATM   15  C   UNL     1      40.441 -12.316   1.446  1.00  0.00    -0.023 A 
HETATM   16  C   UNL     1      41.223 -11.257   1.955  1.00  0.00     0.046 A 
HETATM   17  C   UNL     1      40.954 -10.707   3.210  1.00  0.00     0.068 A 
HETATM   18  C   UNL     1      39.883 -11.197   3.956  1.00  0.00     0.037 A 
HETATM   19  C   UNL     1      39.098 -12.240   3.471  1.00  0.00     0.003 A 
HETATM   20  C   UNL     1      39.375 -12.797   2.222  1.00  0.00     0.009 A 
BRANCH  17  21
HETATM   21  O   UNL     1      41.643  -9.689   3.804  1.00  0.00    -0.356 OA
HETATM   22  C   UNL     1      42.040  -9.874   5.157  1.00  0.00     0.210 C 
ENDBRANCH  17  21
ENDBRANCH   8  15
ENDBRANCH   7   8
ENDBRANCH   3   7
BRANCH   1  23
HETATM   23  C   UNL     1      43.012 -17.580   3.232  1.00  0.00     0.086 C 
HETATM   24  C   UNL     1      43.908 -18.756   2.839  1.00  0.00     0.032 C 
BRANCH  23  25
HETATM   25  C   UNL     1      43.516 -16.953   4.549  1.00  0.00     0.063 C 
BRANCH  25  26
HETATM   26  C   UNL     1      42.548 -15.959   5.150  1.00  0.00    -0.056 A 
HETATM   27  C   UNL     1      42.823 -14.584   5.108  1.00  0.00     0.010 A 
HETATM   28  C   UNL     1      41.925 -13.664   5.656  1.00  0.00     0.037 A 
HETATM   29  C   UNL     1      40.759 -14.122   6.257  1.00  0.00     0.065 A 
HETATM   30  C   UNL     1      40.474 -15.480   6.317  1.00  0.00     0.037 A 
HETATM   31  C   UNL     1      41.363 -16.398   5.758  1.00  0.00     0.010 A 
BRANCH  29  32
HETATM   32  O   UNL     1      39.855 -13.260   6.802  1.00  0.00    -0.361 OA
HETATM   33  H   UNL     1      39.115 -13.775   7.165  1.00  0.00     0.217 HD
ENDBRANCH  29  32
ENDBRANCH  25  26
ENDBRANCH  23  25
ENDBRANCH   1  23
TORSDOF 9
ENDMDL
