MODEL 1
REMARK VINA RESULT:      -8.1      0.000      0.000
REMARK  5 active torsions:
REMARK  status: ('A' for Active; 'I' for Inactive)
REMARK    1  A    between atoms: C_2  and  C_3 
REMARK    2  A    between atoms: C_3  and  O_4 
REMARK    3  A    between atoms: C_3  and  C_5 
REMARK    4  A    between atoms: N_8  and  C_10 
REMARK    5  A    between atoms: C_10  and  C_11 
ROOT
HETATM    1  C   UNL     1      41.361 -15.198   2.724  1.00  0.00     0.022 C 
HETATM    2  C   UNL     1      40.288 -15.689   1.738  1.00  0.00     0.035 C 
HETATM    3  C   UNL     1      40.322 -14.982   0.391  1.00  0.00     0.235 C 
HETATM    4  N   UNL     1      40.226 -13.493   0.585  1.00  0.00    -0.066 N 
HETATM    5  H   UNL     1      39.275 -13.307   0.949  1.00  0.00     0.280 HD
HETATM    6  C   UNL     1      41.244 -12.926   1.523  1.00  0.00     0.235 C 
HETATM    7  C   UNL     1      41.229 -13.669   2.853  1.00  0.00     0.035 C 
ENDROOT
BRANCH   1   8
HETATM    8  C   UNL     1      42.814 -15.621   2.383  1.00  0.00     0.155 C 
BRANCH   8   9
HETATM    9  C   UNL     1      43.255 -16.905   3.060  1.00  0.00    -0.029 A 
HETATM   10  C   UNL     1      43.292 -18.131   2.374  1.00  0.00     0.011 A 
HETATM   11  C   UNL     1      43.698 -19.300   3.023  1.00  0.00     0.024 A 
HETATM   12  C   UNL     1      44.074 -19.254   4.363  1.00  0.00     0.034 A 
HETATM   13  C   UNL     1      44.045 -18.048   5.059  1.00  0.00     0.024 A 
HETATM   14 CL   UNL     1      44.577 -20.692   5.159  1.00  0.00    -0.084 Cl
HETATM   15  C   UNL     1      43.634 -16.880   4.411  1.00  0.00     0.011 A 
ENDBRANCH   8   9
BRANCH   8  16
HETATM   16  O   UNL     1      42.999 -15.719   0.973  1.00  0.00    -0.391 OA
HETATM   17  H   UNL     1      43.028 -14.799   0.639  1.00  0.00     0.210 HD
ENDBRANCH   8  16
ENDBRANCH   1   8
BRANCH   4  18
HETATM   18  C   UNL     1      40.215 -12.757  -0.746  1.00  0.00     0.295 C 
BRANCH  18  19
HETATM   19  C   UNL     1      39.245 -13.373  -1.705  1.00  0.00     0.081 A 
HETATM   20  N   UNL     1      37.931 -13.127  -1.565  1.00  0.00    -0.178 NA
HETATM   21  N   UNL     1      37.366 -13.819  -2.580  1.00  0.00    -0.289 N 
HETATM   22  H   UNL     1      36.358 -13.777  -2.703  1.00  0.00     0.188 HD
HETATM   23  C   UNL     1      38.275 -14.511  -3.325  1.00  0.00     0.111 A 
HETATM   24  C   UNL     1      39.508 -14.241  -2.787  1.00  0.00     0.049 A 
ENDBRANCH  18  19
ENDBRANCH   4  18
TORSDOF 5
ENDMDL
MODEL 2
REMARK VINA RESULT:      -7.9      2.520      4.711
REMARK  5 active torsions:
REMARK  status: ('A' for Active; 'I' for Inactive)
REMARK    1  A    between atoms: C_2  and  C_3 
REMARK    2  A    between atoms: C_3  and  O_4 
REMARK    3  A    between atoms: C_3  and  C_5 
REMARK    4  A    between atoms: N_8  and  C_10 
REMARK    5  A    between atoms: C_10  and  C_11 
ROOT
HETATM    1  C   UNL     1      41.122 -15.963   1.951  1.00  0.00     0.022 C 
HETATM    2  C   UNL     1      40.591 -14.839   1.045  1.00  0.00     0.035 C 
HETATM    3  C   UNL     1      40.651 -13.458   1.679  1.00  0.00     0.235 C 
HETATM    4  N   UNL     1      39.929 -13.464   3.000  1.00  0.00    -0.066 N 
HETATM    5  H   UNL     1      38.927 -13.604   2.784  1.00  0.00     0.280 HD
HETATM    6  C   UNL     1      40.393 -14.521   3.952  1.00  0.00     0.235 C 
HETATM    7  C   UNL     1      40.368 -15.894   3.292  1.00  0.00     0.035 C 
ENDROOT
BRANCH   1   8
HETATM    8  C   UNL     1      42.660 -15.973   2.158  1.00  0.00     0.155 C 
BRANCH   8   9
HETATM    9  C   UNL     1      43.168 -17.177   2.927  1.00  0.00    -0.029 A 
HETATM   10  C   UNL     1      43.642 -17.070   4.246  1.00  0.00     0.011 A 
HETATM   11  C   UNL     1      44.109 -18.195   4.930  1.00  0.00     0.024 A 
HETATM   12  C   UNL     1      44.104 -19.439   4.304  1.00  0.00     0.034 A 
HETATM   13  C   UNL     1      43.636 -19.565   2.999  1.00  0.00     0.024 A 
HETATM   14 CL   UNL     1      44.676 -20.823   5.149  1.00  0.00    -0.084 Cl
HETATM   15  C   UNL     1      43.174 -18.439   2.312  1.00  0.00     0.011 A 
ENDBRANCH   8   9
BRANCH   8  16
HETATM   16  O   UNL     1      43.342 -15.859   0.912  1.00  0.00    -0.391 OA
HETATM   17  H   UNL     1      43.878 -16.672   0.821  1.00  0.00     0.210 HD
ENDBRANCH   8  16
ENDBRANCH   1   8
BRANCH   4  18
HETATM   18  C   UNL     1      39.934 -12.085   3.643  1.00  0.00     0.295 C 
BRANCH  18  19
HETATM   19  C   UNL     1      41.064 -11.936   4.613  1.00  0.00     0.081 A 
HETATM   20  N   UNL     1      40.801 -11.893   5.931  1.00  0.00    -0.178 NA
HETATM   21  N   UNL     1      42.022 -11.765   6.496  1.00  0.00    -0.289 N 
HETATM   22  H   UNL     1      42.095 -11.728   7.510  1.00  0.00     0.188 HD
HETATM   23  C   UNL     1      43.030 -11.694   5.579  1.00  0.00     0.111 A 
HETATM   24  C   UNL     1      42.443 -11.807   4.344  1.00  0.00     0.049 A 
ENDBRANCH  18  19
ENDBRANCH   4  18
TORSDOF 5
ENDMDL
MODEL 3
REMARK VINA RESULT:      -7.8      2.305      3.137
REMARK  5 active torsions:
REMARK  status: ('A' for Active; 'I' for Inactive)
REMARK    1  A    between atoms: C_2  and  C_3 
REMARK    2  A    between atoms: C_3  and  O_4 
REMARK    3  A    between atoms: C_3  and  C_5 
REMARK    4  A    between atoms: N_8  and  C_10 
REMARK    5  A    between atoms: C_10  and  C_11 
ROOT
HETATM    1  C   UNL     1      41.257 -15.886   1.818  1.00  0.00     0.022 C 
HETATM    2  C   UNL     1      40.855 -14.908   0.702  1.00  0.00     0.035 C 
HETATM    3  C   UNL     1      40.829 -13.451   1.141  1.00  0.00     0.235 C 
HETATM    4  N   UNL     1      39.935 -13.289   2.340  1.00  0.00    -0.066 N 
HETATM    5  H   UNL     1      38.972 -13.475   2.013  1.00  0.00     0.280 HD
HETATM    6  C   UNL     1      40.265 -14.196   3.483  1.00  0.00     0.235 C 
HETATM    7  C   UNL     1      40.328 -15.647   3.022  1.00  0.00     0.035 C 
ENDROOT
BRANCH   1   8
HETATM    8  C   UNL     1      42.752 -15.840   2.229  1.00  0.00     0.155 C 
BRANCH   8   9
HETATM    9  C   UNL     1      43.219 -17.068   2.988  1.00  0.00    -0.029 A 
HETATM   10  C   UNL     1      43.623 -17.000   4.332  1.00  0.00     0.011 A 
HETATM   11  C   UNL     1      44.053 -18.146   5.006  1.00  0.00     0.024 A 
HETATM   12  C   UNL     1      44.079 -19.371   4.346  1.00  0.00     0.034 A 
HETATM   13  C   UNL     1      43.680 -19.458   3.014  1.00  0.00     0.024 A 
HETATM   14 CL   UNL     1      44.605 -20.780   5.178  1.00  0.00    -0.084 Cl
HETATM   15  C   UNL     1      43.256 -18.311   2.338  1.00  0.00     0.011 A 
ENDBRANCH   8   9
BRANCH   8  16
HETATM   16  O   UNL     1      43.586 -15.615   1.095  1.00  0.00    -0.391 OA
HETATM   17  H   UNL     1      43.198 -16.139   0.365  1.00  0.00     0.210 HD
ENDBRANCH   8  16
ENDBRANCH   1   8
BRANCH   4  18
HETATM   18  C   UNL     1      39.854 -11.835   2.781  1.00  0.00     0.295 C 
BRANCH  18  19
HETATM   19  C   UNL     1      38.656 -11.152   2.199  1.00  0.00     0.081 A 
HETATM   20  N   UNL     1      38.280  -9.955   2.682  1.00  0.00    -0.178 NA
HETATM   21  N   UNL     1      37.195  -9.638   1.940  1.00  0.00    -0.289 N 
HETATM   22  H   UNL     1      36.728  -8.750   2.104  1.00  0.00     0.188 HD
HETATM   23  C   UNL     1      36.865 -10.605   1.037  1.00  0.00     0.111 A 
HETATM   24  C   UNL     1      37.797 -11.604   1.175  1.00  0.00     0.049 A 
ENDBRANCH  18  19
ENDBRANCH   4  18
TORSDOF 5
ENDMDL
MODEL 4
REMARK VINA RESULT:      -7.4      2.021      2.661
REMARK  5 active torsions:
REMARK  status: ('A' for Active; 'I' for Inactive)
REMARK    1  A    between atoms: C_2  and  C_3 
REMARK    2  A    between atoms: C_3  and  O_4 
REMARK    3  A    between atoms: C_3  and  C_5 
REMARK    4  A    between atoms: N_8  and  C_10 
REMARK    5  A    between atoms: C_10  and  C_11 
ROOT
HETATM    1  C   UNL     1      40.414 -13.606   3.082  1.00  0.00     0.022 C 
HETATM    2  C   UNL     1      39.158 -12.744   2.873  1.00  0.00     0.035 C 
HETATM    3  C   UNL     1      38.978 -12.256   1.443  1.00  0.00     0.235 C 
HETATM    4  N   UNL     1      40.211 -11.521   0.989  1.00  0.00    -0.066 N 
HETATM    5  H   UNL     1      40.257 -10.654   1.552  1.00  0.00     0.280 HD
HETATM    6  C   UNL     1      41.482 -12.294   1.145  1.00  0.00     0.235 C 
HETATM    7  C   UNL     1      41.630 -12.812   2.570  1.00  0.00     0.035 C 
ENDROOT
BRANCH   1   8
HETATM    8  C   UNL     1      40.352 -15.025   2.459  1.00  0.00     0.155 C 
BRANCH   8   9
HETATM    9  C   UNL     1      41.439 -15.960   2.952  1.00  0.00    -0.029 A 
HETATM   10  C   UNL     1      41.745 -16.088   4.318  1.00  0.00     0.011 A 
HETATM   11  C   UNL     1      42.755 -16.954   4.745  1.00  0.00     0.024 A 
HETATM   12  C   UNL     1      43.466 -17.704   3.812  1.00  0.00     0.034 A 
HETATM   13  C   UNL     1      43.176 -17.593   2.455  1.00  0.00     0.024 A 
HETATM   14 CL   UNL     1      44.706 -18.771   4.340  1.00  0.00    -0.084 Cl
HETATM   15  C   UNL     1      42.169 -16.722   2.027  1.00  0.00     0.011 A 
ENDBRANCH   8   9
BRANCH   8  16
HETATM   16  O   UNL     1      39.068 -15.612   2.657  1.00  0.00    -0.391 OA
HETATM   17  H   UNL     1      38.416 -14.935   2.389  1.00  0.00     0.210 HD
ENDBRANCH   8  16
ENDBRANCH   1   8
BRANCH   4  18
HETATM   18  C   UNL     1      40.049 -10.983  -0.425  1.00  0.00     0.295 C 
BRANCH  18  19
HETATM   19  C   UNL     1      40.384 -12.021  -1.449  1.00  0.00     0.081 A 
HETATM   20  N   UNL     1      41.433 -11.827  -2.266  1.00  0.00    -0.178 NA
HETATM   21  N   UNL     1      41.448 -12.937  -3.037  1.00  0.00    -0.289 N 
HETATM   22  H   UNL     1      42.177 -13.041  -3.739  1.00  0.00     0.188 HD
HETATM   23  C   UNL     1      40.430 -13.798  -2.752  1.00  0.00     0.111 A 
HETATM   24  C   UNL     1      39.720 -13.236  -1.720  1.00  0.00     0.049 A 
ENDBRANCH  18  19
ENDBRANCH   4  18
TORSDOF 5
ENDMDL
MODEL 5
REMARK VINA RESULT:      -7.3      4.952      7.417
REMARK  5 active torsions:
REMARK  status: ('A' for Active; 'I' for Inactive)
REMARK    1  A    between atoms: C_2  and  C_3 
REMARK    2  A    between atoms: C_3  and  O_4 
REMARK    3  A    between atoms: C_3  and  C_5 
REMARK    4  A    between atoms: N_8  and  C_10 
REMARK    5  A    between atoms: C_10  and  C_11 
ROOT
HETATM    1  C   UNL     1      42.119 -14.670   4.962  1.00  0.00     0.022 C 
HETATM    2  C   UNL     1      41.423 -13.301   4.883  1.00  0.00     0.035 C 
HETATM    3  C   UNL     1      42.343 -12.126   5.177  1.00  0.00     0.235 C 
HETATM    4  N   UNL     1      43.006 -12.311   6.515  1.00  0.00    -0.066 N 
HETATM    5  H   UNL     1      42.257 -12.233   7.224  1.00  0.00     0.280 HD
HETATM    6  C   UNL     1      43.721 -13.615   6.675  1.00  0.00     0.235 C 
HETATM    7  C   UNL     1      42.802 -14.782   6.338  1.00  0.00     0.035 C 
ENDROOT
BRANCH   1   8
HETATM    8  C   UNL     1      43.107 -14.977   3.806  1.00  0.00     0.155 C 
BRANCH   8   9
HETATM    9  C   UNL     1      43.324 -16.457   3.559  1.00  0.00    -0.029 A 
HETATM   10  C   UNL     1      44.119 -17.243   4.412  1.00  0.00     0.011 A 
HETATM   11  C   UNL     1      44.306 -18.604   4.159  1.00  0.00     0.024 A 
HETATM   12  C   UNL     1      43.697 -19.195   3.055  1.00  0.00     0.034 A 
HETATM   13  C   UNL     1      42.905 -18.433   2.200  1.00  0.00     0.024 A 
HETATM   14 CL   UNL     1      43.926 -20.871   2.747  1.00  0.00    -0.084 Cl
HETATM   15  C   UNL     1      42.722 -17.070   2.449  1.00  0.00     0.011 A 
ENDBRANCH   8   9
BRANCH   8  16
HETATM   16  O   UNL     1      42.699 -14.331   2.603  1.00  0.00    -0.391 OA
HETATM   17  H   UNL     1      43.285 -14.675   1.899  1.00  0.00     0.210 HD
ENDBRANCH   8  16
ENDBRANCH   1   8
BRANCH   4  18
HETATM   18  C   UNL     1      43.903 -11.131   6.860  1.00  0.00     0.295 C 
BRANCH  18  19
HETATM   19  C   UNL     1      43.622 -10.612   8.235  1.00  0.00     0.081 A 
HETATM   20  N   UNL     1      44.268 -11.146   9.286  1.00  0.00    -0.178 NA
HETATM   21  N   UNL     1      43.789 -10.452  10.343  1.00  0.00    -0.289 N 
HETATM   22  H   UNL     1      44.144 -10.661  11.272  1.00  0.00     0.188 HD
HETATM   23  C   UNL     1      42.847  -9.530   9.992  1.00  0.00     0.111 A 
HETATM   24  C   UNL     1      42.717  -9.603   8.627  1.00  0.00     0.049 A 
ENDBRANCH  18  19
ENDBRANCH   4  18
TORSDOF 5
ENDMDL
MODEL 6
REMARK VINA RESULT:      -7.3      1.476      1.985
REMARK  5 active torsions:
REMARK  status: ('A' for Active; 'I' for Inactive)
REMARK    1  A    between atoms: C_2  and  C_3 
REMARK    2  A    between atoms: C_3  and  O_4 
REMARK    3  A    between atoms: C_3  and  C_5 
REMARK    4  A    between atoms: N_8  and  C_10 
REMARK    5  A    between atoms: C_10  and  C_11 
ROOT
HETATM    1  C   UNL     1      43.126 -14.778   2.585  1.00  0.00     0.022 C 
HETATM    2  C   UNL     1      42.970 -13.252   2.485  1.00  0.00     0.035 C 
HETATM    3  C   UNL     1      41.559 -12.798   2.143  1.00  0.00     0.235 C 
HETATM    4  N   UNL     1      41.093 -13.466   0.878  1.00  0.00    -0.066 N 
HETATM    5  H   UNL     1      41.677 -13.083   0.114  1.00  0.00     0.280 HD
HETATM    6  C   UNL     1      41.197 -14.958   0.893  1.00  0.00     0.235 C 
HETATM    7  C   UNL     1      42.604 -15.400   1.277  1.00  0.00     0.035 C 
ENDROOT
BRANCH   1   8
HETATM    8  C   UNL     1      42.468 -15.428   3.831  1.00  0.00     0.155 C 
BRANCH   8   9
HETATM    9  C   UNL     1      43.017 -16.800   4.170  1.00  0.00    -0.029 A 
HETATM   10  C   UNL     1      43.434 -17.700   3.173  1.00  0.00     0.011 A 
HETATM   11  C   UNL     1      43.932 -18.960   3.513  1.00  0.00     0.024 A 
HETATM   12  C   UNL     1      44.022 -19.333   4.851  1.00  0.00     0.034 A 
HETATM   13  C   UNL     1      43.615 -18.455   5.853  1.00  0.00     0.024 A 
HETATM   14 CL   UNL     1      44.638 -20.883   5.267  1.00  0.00    -0.084 Cl
HETATM   15  C   UNL     1      43.111 -17.196   5.513  1.00  0.00     0.011 A 
ENDBRANCH   8   9
BRANCH   8  16
HETATM   16  O   UNL     1      42.559 -14.567   4.963  1.00  0.00    -0.391 OA
HETATM   17  H   UNL     1      41.655 -14.226   5.118  1.00  0.00     0.210 HD
ENDBRANCH   8  16
ENDBRANCH   1   8
BRANCH   4  18
HETATM   18  C   UNL     1      39.698 -13.003   0.484  1.00  0.00     0.295 C 
BRANCH  18  19
HETATM   19  C   UNL     1      39.587 -12.795  -0.994  1.00  0.00     0.081 A 
HETATM   20  N   UNL     1      38.394 -12.952  -1.593  1.00  0.00    -0.178 NA
HETATM   21  N   UNL     1      38.652 -12.686  -2.894  1.00  0.00    -0.289 N 
HETATM   22  H   UNL     1      37.890 -12.720  -3.565  1.00  0.00     0.188 HD
HETATM   23  C   UNL     1      39.966 -12.401  -3.129  1.00  0.00     0.111 A 
HETATM   24  C   UNL     1      40.602 -12.459  -1.914  1.00  0.00     0.049 A 
ENDBRANCH  18  19
ENDBRANCH   4  18
TORSDOF 5
ENDMDL
MODEL 7
REMARK VINA RESULT:      -7.3      2.136      3.073
REMARK  5 active torsions:
REMARK  status: ('A' for Active; 'I' for Inactive)
REMARK    1  A    between atoms: C_2  and  C_3 
REMARK    2  A    between atoms: C_3  and  O_4 
REMARK    3  A    between atoms: C_3  and  C_5 
REMARK    4  A    between atoms: N_8  and  C_10 
REMARK    5  A    between atoms: C_10  and  C_11 
ROOT
HETATM    1  C   UNL     1      41.125 -15.893   1.586  1.00  0.00     0.022 C 
HETATM    2  C   UNL     1      40.768 -14.927   0.445  1.00  0.00     0.035 C 
HETATM    3  C   UNL     1      40.573 -13.487   0.896  1.00  0.00     0.235 C 
HETATM    4  N   UNL     1      39.542 -13.424   1.991  1.00  0.00    -0.066 N 
HETATM    5  H   UNL     1      38.639 -13.681   1.555  1.00  0.00     0.280 HD
HETATM    6  C   UNL     1      39.818 -14.327   3.151  1.00  0.00     0.235 C 
HETATM    7  C   UNL     1      40.052 -15.757   2.683  1.00  0.00     0.035 C 
ENDROOT
BRANCH   1   8
HETATM    8  C   UNL     1      42.557 -15.735   2.162  1.00  0.00     0.155 C 
BRANCH   8   9
HETATM    9  C   UNL     1      43.068 -16.966   2.885  1.00  0.00    -0.029 A 
HETATM   10  C   UNL     1      43.101 -18.229   2.269  1.00  0.00     0.011 A 
HETATM   11  C   UNL     1      43.572 -19.348   2.960  1.00  0.00     0.024 A 
HETATM   12  C   UNL     1      44.019 -19.215   4.272  1.00  0.00     0.034 A 
HETATM   13  C   UNL     1      43.996 -17.972   4.899  1.00  0.00     0.024 A 
HETATM   14 CL   UNL     1      44.602 -20.593   5.119  1.00  0.00    -0.084 Cl
HETATM   15  C   UNL     1      43.519 -16.854   4.210  1.00  0.00     0.011 A 
ENDBRANCH   8   9
BRANCH   8  16
HETATM   16  O   UNL     1      43.475 -15.344   1.144  1.00  0.00    -0.391 OA
HETATM   17  H   UNL     1      43.710 -16.162   0.663  1.00  0.00     0.210 HD
ENDBRANCH   8  16
ENDBRANCH   1   8
BRANCH   4  18
HETATM   18  C   UNL     1      39.291 -11.991   2.438  1.00  0.00     0.295 C 
BRANCH  18  19
HETATM   19  C   UNL     1      40.085 -11.017   1.626  1.00  0.00     0.081 A 
HETATM   20  N   UNL     1      41.271 -10.585   2.089  1.00  0.00    -0.178 NA
HETATM   21  N   UNL     1      41.704  -9.744   1.122  1.00  0.00    -0.289 N 
HETATM   22  H   UNL     1      42.609  -9.292   1.231  1.00  0.00     0.188 HD
HETATM   23  C   UNL     1      40.818  -9.613   0.094  1.00  0.00     0.111 A 
HETATM   24  C   UNL     1      39.755 -10.430   0.386  1.00  0.00     0.049 A 
ENDBRANCH  18  19
ENDBRANCH   4  18
TORSDOF 5
ENDMDL
MODEL 8
REMARK VINA RESULT:      -7.1      4.161      5.117
REMARK  5 active torsions:
REMARK  status: ('A' for Active; 'I' for Inactive)
REMARK    1  A    between atoms: C_2  and  C_3 
REMARK    2  A    between atoms: C_3  and  O_4 
REMARK    3  A    between atoms: C_3  and  C_5 
REMARK    4  A    between atoms: N_8  and  C_10 
REMARK    5  A    between atoms: C_10  and  C_11 
ROOT
HETATM    1  C   UNL     1      42.813 -14.202   4.105  1.00  0.00     0.022 C 
HETATM    2  C   UNL     1      43.207 -12.954   4.911  1.00  0.00     0.035 C 
HETATM    3  C   UNL     1      42.104 -12.437   5.822  1.00  0.00     0.235 C 
HETATM    4  N   UNL     1      40.852 -12.185   5.027  1.00  0.00    -0.066 N 
HETATM    5  H   UNL     1      41.061 -11.388   4.400  1.00  0.00     0.280 HD
HETATM    6  C   UNL     1      40.388 -13.355   4.219  1.00  0.00     0.235 C 
HETATM    7  C   UNL     1      41.513 -13.889   3.342  1.00  0.00     0.035 C 
ENDROOT
BRANCH   1   8
HETATM    8  C   UNL     1      42.693 -15.510   4.930  1.00  0.00     0.155 C 
BRANCH   8   9
HETATM    9  C   UNL     1      43.014 -16.765   4.142  1.00  0.00    -0.029 A 
HETATM   10  C   UNL     1      42.354 -17.077   2.940  1.00  0.00     0.011 A 
HETATM   11  C   UNL     1      42.666 -18.243   2.237  1.00  0.00     0.024 A 
HETATM   12  C   UNL     1      43.643 -19.106   2.723  1.00  0.00     0.034 A 
HETATM   13  C   UNL     1      44.309 -18.814   3.911  1.00  0.00     0.024 A 
HETATM   14 CL   UNL     1      44.028 -20.539   1.854  1.00  0.00    -0.084 Cl
HETATM   15  C   UNL     1      43.993 -17.651   4.618  1.00  0.00     0.011 A 
ENDBRANCH   8   9
BRANCH   8  16
HETATM   16  O   UNL     1      43.496 -15.447   6.106  1.00  0.00    -0.391 OA
HETATM   17  H   UNL     1      43.414 -14.531   6.441  1.00  0.00     0.210 HD
ENDBRANCH   8  16
ENDBRANCH   1   8
BRANCH   4  18
HETATM   18  C   UNL     1      39.739 -11.627   5.901  1.00  0.00     0.295 C 
BRANCH  18  19
HETATM   19  C   UNL     1      39.016 -10.507   5.221  1.00  0.00     0.081 A 
HETATM   20  N   UNL     1      37.923  -9.979   5.799  1.00  0.00    -0.178 NA
HETATM   21  N   UNL     1      37.542  -9.010   4.936  1.00  0.00    -0.289 N 
HETATM   22  H   UNL     1      36.730  -8.441   5.162  1.00  0.00     0.188 HD
HETATM   23  C   UNL     1      38.336  -8.938   3.830  1.00  0.00     0.111 A 
HETATM   24  C   UNL     1      39.309  -9.894   3.984  1.00  0.00     0.049 A 
ENDBRANCH  18  19
ENDBRANCH   4  18
TORSDOF 5
ENDMDL
MODEL 9
REMARK VINA RESULT:      -7.1      2.964      3.624
REMARK  5 active torsions:
REMARK  status: ('A' for Active; 'I' for Inactive)
REMARK    1  A    between atoms: C_2  and  C_3 
REMARK    2  A    between atoms: C_3  and  O_4 
REMARK    3  A    between atoms: C_3  and  C_5 
REMARK    4  A    between atoms: N_8  and  C_10 
REMARK    5  A    between atoms: C_10  and  C_11 
ROOT
HETATM    1  C   UNL     1      40.469 -14.978   3.156  1.00  0.00     0.022 C 
HETATM    2  C   UNL     1      39.865 -15.721   1.953  1.00  0.00     0.035 C 
HETATM    3  C   UNL     1      40.129 -15.044   0.617  1.00  0.00     0.235 C 
HETATM    4  N   UNL     1      39.652 -13.618   0.657  1.00  0.00    -0.066 N 
HETATM    5  H   UNL     1      38.620 -13.657   0.724  1.00  0.00     0.280 HD
HETATM    6  C   UNL     1      40.202 -12.814   1.792  1.00  0.00     0.235 C 
HETATM    7  C   UNL     1      39.969 -13.522   3.121  1.00  0.00     0.035 C 
ENDROOT
BRANCH   1   8
HETATM    8  C   UNL     1      42.014 -15.051   3.268  1.00  0.00     0.155 C 
BRANCH   8   9
HETATM    9  C   UNL     1      42.592 -14.176   4.364  1.00  0.00    -0.029 A 
HETATM   10  C   UNL     1      43.146 -12.913   4.091  1.00  0.00     0.011 A 
HETATM   11  C   UNL     1      43.677 -12.130   5.119  1.00  0.00     0.024 A 
HETATM   12  C   UNL     1      43.654 -12.598   6.430  1.00  0.00     0.034 A 
HETATM   13  C   UNL     1      43.107 -13.845   6.721  1.00  0.00     0.024 A 
HETATM   14 CL   UNL     1      44.304 -11.630   7.695  1.00  0.00    -0.084 Cl
HETATM   15  C   UNL     1      42.583 -14.632   5.692  1.00  0.00     0.011 A 
ENDBRANCH   8   9
BRANCH   8  16
HETATM   16  O   UNL     1      42.451 -16.398   3.431  1.00  0.00    -0.391 OA
HETATM   17  H   UNL     1      42.407 -16.583   4.390  1.00  0.00     0.210 HD
ENDBRANCH   8  16
ENDBRANCH   1   8
BRANCH   4  18
HETATM   18  C   UNL     1      39.863 -12.922  -0.680  1.00  0.00     0.295 C 
BRANCH  18  19
HETATM   19  C   UNL     1      38.973 -13.490  -1.740  1.00  0.00     0.081 A 
HETATM   20  N   UNL     1      37.678 -13.131  -1.775  1.00  0.00    -0.178 NA
HETATM   21  N   UNL     1      37.187 -13.809  -2.837  1.00  0.00    -0.289 N 
HETATM   22  H   UNL     1      36.210 -13.689  -3.090  1.00  0.00     0.188 HD
HETATM   23  C   UNL     1      38.120 -14.599  -3.443  1.00  0.00     0.111 A 
HETATM   24  C   UNL     1      39.294 -14.413  -2.758  1.00  0.00     0.049 A 
ENDBRANCH  18  19
ENDBRANCH   4  18
TORSDOF 5
ENDMDL
MODEL 10
REMARK VINA RESULT:      -7.0      9.695     11.518
REMARK  5 active torsions:
REMARK  status: ('A' for Active; 'I' for Inactive)
REMARK    1  A    between atoms: C_2  and  C_3 
REMARK    2  A    between atoms: C_3  and  O_4 
REMARK    3  A    between atoms: C_3  and  C_5 
REMARK    4  A    between atoms: N_8  and  C_10 
REMARK    5  A    between atoms: C_10  and  C_11 
ROOT
HETATM    1  C   UNL     1      43.510  -8.867   9.991  1.00  0.00     0.022 C 
HETATM    2  C   UNL     1      42.883  -8.955   8.590  1.00  0.00     0.035 C 
HETATM    3  C   UNL     1      43.111 -10.291   7.898  1.00  0.00     0.235 C 
HETATM    4  N   UNL     1      44.582 -10.602   7.845  1.00  0.00    -0.066 N 
HETATM    5  H   UNL     1      45.004  -9.907   7.206  1.00  0.00     0.280 HD
HETATM    6  C   UNL     1      45.271 -10.551   9.172  1.00  0.00     0.235 C 
HETATM    7  C   UNL     1      45.002  -9.226   9.873  1.00  0.00     0.035 C 
ENDROOT
BRANCH   1   8
HETATM    8  C   UNL     1      42.802  -9.709  11.085  1.00  0.00     0.155 C 
BRANCH   8   9
HETATM    9  C   UNL     1      42.657  -8.994  12.414  1.00  0.00    -0.029 A 
HETATM   10  C   UNL     1      41.802  -9.469  13.423  1.00  0.00     0.011 A 
HETATM   11  C   UNL     1      41.683  -8.787  14.637  1.00  0.00     0.024 A 
HETATM   12  C   UNL     1      42.421  -7.628  14.857  1.00  0.00     0.034 A 
HETATM   13  C   UNL     1      43.276  -7.142  13.869  1.00  0.00     0.024 A 
HETATM   14 CL   UNL     1      42.277  -6.792  16.352  1.00  0.00    -0.084 Cl
HETATM   15  C   UNL     1      43.390  -7.821  12.653  1.00  0.00     0.011 A 
ENDBRANCH   8   9
BRANCH   8  16
HETATM   16  O   UNL     1      41.532 -10.170  10.631  1.00  0.00    -0.391 OA
HETATM   17  H   UNL     1      40.885  -9.488  10.901  1.00  0.00     0.210 HD
ENDBRANCH   8  16
ENDBRANCH   1   8
BRANCH   4  18
HETATM   18  C   UNL     1      44.848 -11.914   7.121  1.00  0.00     0.295 C 
BRANCH  18  19
HETATM   19  C   UNL     1      44.152 -11.960   5.798  1.00  0.00     0.081 A 
HETATM   20  N   UNL     1      44.622 -11.220   4.779  1.00  0.00    -0.178 NA
HETATM   21  N   UNL     1      43.779 -11.504   3.761  1.00  0.00    -0.289 N 
HETATM   22  H   UNL     1      43.937 -11.073   2.854  1.00  0.00     0.188 HD
HETATM   23  C   UNL     1      42.784 -12.367   4.118  1.00  0.00     0.111 A 
HETATM   24  C   UNL     1      42.998 -12.688   5.435  1.00  0.00     0.049 A 
ENDBRANCH  18  19
ENDBRANCH   4  18
TORSDOF 5
ENDMDL
