MODEL 1
REMARK VINA RESULT:      -9.7      0.000      0.000
REMARK  6 active torsions:
REMARK  status: ('A' for Active; 'I' for Inactive)
REMARK    1  A    between atoms: C_5  and  N_6 
REMARK    2  A    between atoms: C_17  and  N_18 
REMARK    3  A    between atoms: C_17  and  C_29 
REMARK       I    between atoms: N_18  and  C_19 
REMARK    4  A    between atoms: C_19  and  C_20 
REMARK    5  A    between atoms: C_20  and  C_21 
REMARK    6  A    between atoms: C_21  and  C_22 
ROOT
HETATM    1  N   UNL     1      44.405  -9.966   8.239  1.00  0.00    -0.248 N 
HETATM    2  C   UNL     1      45.782  -9.838   7.939  1.00  0.00     0.335 A 
HETATM    3  O   UNL     1      46.632  -9.282   8.633  1.00  0.00    -0.246 OA
HETATM    4  N   UNL     1      46.202 -10.433   6.766  1.00  0.00    -0.274 N 
HETATM    5  C   UNL     1      45.454 -11.188   5.911  1.00  0.00     0.262 A 
HETATM    6  O   UNL     1      45.909 -11.765   4.934  1.00  0.00    -0.267 OA
HETATM    7  C   UNL     1      44.050 -11.250   6.248  1.00  0.00     0.101 A 
HETATM    8  C   UNL     1      43.600 -10.662   7.357  1.00  0.00     0.134 A 
HETATM    9  N   UNL     1      42.249 -10.815   7.407  1.00  0.00    -0.309 N 
HETATM   10  C   UNL     1      41.777 -11.579   6.346  1.00  0.00     0.266 A 
HETATM   11  O   UNL     1      40.618 -11.936   6.205  1.00  0.00    -0.270 OA
HETATM   12  C   UNL     1      42.968 -11.878   5.422  1.00  0.00     0.249 A 
HETATM   13  H   UNL     1      47.193 -10.376   6.583  1.00  0.00     0.173 HD
HETATM   14  H   UNL     1      41.638 -10.470   8.134  1.00  0.00     0.170 HD
ENDROOT
BRANCH  12  15
HETATM   15  N   UNL     1      43.189 -13.316   5.183  1.00  0.00    -0.332 N 
HETATM   16  C   UNL     1      43.334 -14.241   6.188  1.00  0.00     0.219 C 
HETATM   17  O   UNL     1      43.177 -13.972   7.372  1.00  0.00    -0.274 OA
HETATM   18  H   UNL     1      43.484 -13.581   4.249  1.00  0.00     0.164 HD
BRANCH  16  19
HETATM   19  C   UNL     1      43.764 -15.607   5.707  1.00  0.00     0.107 C 
BRANCH  19  20
HETATM   20  C   UNL     1      43.192 -15.877   4.317  1.00  0.00     0.047 C 
BRANCH  20  21
HETATM   21  C   UNL     1      43.384 -17.306   3.873  1.00  0.00    -0.058 A 
HETATM   22  C   UNL     1      42.960 -17.717   2.601  1.00  0.00     0.007 A 
HETATM   23  C   UNL     1      43.149 -19.034   2.182  1.00  0.00     0.001 A 
HETATM   24  C   UNL     1      43.764 -19.955   3.028  1.00  0.00     0.000 A 
HETATM   25  C   UNL     1      44.193 -19.558   4.292  1.00  0.00     0.001 A 
HETATM   26  C   UNL     1      44.007 -18.240   4.712  1.00  0.00     0.007 A 
ENDBRANCH  20  21
ENDBRANCH  19  20
ENDBRANCH  16  19
ENDBRANCH  12  15
BRANCH  12  27
HETATM   27  C   UNL     1      42.686 -11.076   4.144  1.00  0.00     0.426 C 
HETATM   28  F   UNL     1      43.676 -11.183   3.229  1.00  0.00    -0.167 F 
HETATM   29  F   UNL     1      41.547 -11.505   3.545  1.00  0.00    -0.167 F 
HETATM   30  F   UNL     1      42.501  -9.760   4.397  1.00  0.00    -0.167 F 
ENDBRANCH  12  27
BRANCH   1  31
HETATM   31  C   UNL     1      43.906  -9.369   9.450  1.00  0.00     0.045 A 
HETATM   32  C   UNL     1      43.869 -10.097  10.647  1.00  0.00     0.031 A 
HETATM   33  C   UNL     1      43.426  -9.509  11.837  1.00  0.00     0.009 A 
HETATM   34  C   UNL     1      42.988  -8.183  11.854  1.00  0.00    -0.062 A 
HETATM   35  C   UNL     1      42.550  -7.546  13.139  1.00  0.00     0.048 C 
HETATM   36  C   UNL     1      43.011  -7.451  10.663  1.00  0.00     0.009 A 
HETATM   37  C   UNL     1      43.457  -8.041   9.473  1.00  0.00     0.031 A 
ENDBRANCH   1  31
TORSDOF 6
ENDMDL
MODEL 2
REMARK VINA RESULT:      -9.5      1.166      1.774
REMARK  6 active torsions:
REMARK  status: ('A' for Active; 'I' for Inactive)
REMARK    1  A    between atoms: C_5  and  N_6 
REMARK    2  A    between atoms: C_17  and  N_18 
REMARK    3  A    between atoms: C_17  and  C_29 
REMARK       I    between atoms: N_18  and  C_19 
REMARK    4  A    between atoms: C_19  and  C_20 
REMARK    5  A    between atoms: C_20  and  C_21 
REMARK    6  A    between atoms: C_21  and  C_22 
ROOT
HETATM    1  N   UNL     1      43.983 -10.383   7.715  1.00  0.00    -0.248 N 
HETATM    2  C   UNL     1      45.293 -10.591   7.224  1.00  0.00     0.335 A 
HETATM    3  O   UNL     1      46.342 -10.403   7.839  1.00  0.00    -0.246 OA
HETATM    4  N   UNL     1      45.384 -11.088   5.938  1.00  0.00    -0.274 N 
HETATM    5  C   UNL     1      44.356 -11.467   5.127  1.00  0.00     0.262 A 
HETATM    6  O   UNL     1      44.508 -11.987   4.030  1.00  0.00    -0.267 OA
HETATM    7  C   UNL     1      43.043 -11.195   5.666  1.00  0.00     0.101 A 
HETATM    8  C   UNL     1      42.914 -10.687   6.892  1.00  0.00     0.134 A 
HETATM    9  N   UNL     1      41.593 -10.471   7.132  1.00  0.00    -0.309 N 
HETATM   10  C   UNL     1      40.800 -10.902   6.074  1.00  0.00     0.266 A 
HETATM   11  O   UNL     1      39.579 -10.902   6.073  1.00  0.00    -0.270 OA
HETATM   12  C   UNL     1      41.738 -11.367   4.949  1.00  0.00     0.249 A 
HETATM   13  H   UNL     1      46.322 -11.276   5.612  1.00  0.00     0.173 HD
HETATM   14  H   UNL     1      41.196 -10.090   7.979  1.00  0.00     0.170 HD
ENDROOT
BRANCH  12  15
HETATM   15  N   UNL     1      41.501 -12.756   4.512  1.00  0.00    -0.332 N 
HETATM   16  C   UNL     1      41.552 -13.837   5.356  1.00  0.00     0.219 C 
HETATM   17  O   UNL     1      41.685 -13.734   6.570  1.00  0.00    -0.274 OA
HETATM   18  H   UNL     1      41.542 -12.931   3.514  1.00  0.00     0.164 HD
BRANCH  16  19
HETATM   19  C   UNL     1      41.491 -15.171   4.649  1.00  0.00     0.107 C 
BRANCH  19  20
HETATM   20  C   UNL     1      42.680 -15.317   3.702  1.00  0.00     0.047 C 
BRANCH  20  21
HETATM   21  C   UNL     1      43.131 -16.748   3.546  1.00  0.00    -0.058 A 
HETATM   22  C   UNL     1      43.867 -17.375   4.561  1.00  0.00     0.007 A 
HETATM   23  C   UNL     1      44.274 -18.703   4.426  1.00  0.00     0.001 A 
HETATM   24  C   UNL     1      43.949 -19.419   3.275  1.00  0.00     0.000 A 
HETATM   25  C   UNL     1      43.214 -18.808   2.261  1.00  0.00     0.001 A 
HETATM   26  C   UNL     1      42.805 -17.480   2.396  1.00  0.00     0.007 A 
ENDBRANCH  20  21
ENDBRANCH  19  20
ENDBRANCH  16  19
ENDBRANCH  12  15
BRANCH  12  27
HETATM   27  C   UNL     1      41.558 -10.329   3.832  1.00  0.00     0.426 C 
HETATM   28  F   UNL     1      41.973  -9.093   4.194  1.00  0.00    -0.167 F 
HETATM   29  F   UNL     1      42.268 -10.676   2.730  1.00  0.00    -0.167 F 
HETATM   30  F   UNL     1      40.271 -10.230   3.430  1.00  0.00    -0.167 F 
ENDBRANCH  12  27
BRANCH   1  31
HETATM   31  C   UNL     1      43.822  -9.869   9.050  1.00  0.00     0.045 A 
HETATM   32  C   UNL     1      43.670  -8.494   9.277  1.00  0.00     0.031 A 
HETATM   33  C   UNL     1      43.472  -7.992  10.567  1.00  0.00     0.009 A 
HETATM   34  C   UNL     1      43.441  -8.853  11.667  1.00  0.00    -0.062 A 
HETATM   35  C   UNL     1      43.190  -8.314  13.043  1.00  0.00     0.048 C 
HETATM   36  C   UNL     1      43.602 -10.225  11.453  1.00  0.00     0.009 A 
HETATM   37  C   UNL     1      43.799 -10.726  10.160  1.00  0.00     0.031 A 
ENDBRANCH   1  31
TORSDOF 6
ENDMDL
MODEL 3
REMARK VINA RESULT:      -9.3      1.766      8.693
REMARK  6 active torsions:
REMARK  status: ('A' for Active; 'I' for Inactive)
REMARK    1  A    between atoms: C_5  and  N_6 
REMARK    2  A    between atoms: C_17  and  N_18 
REMARK    3  A    between atoms: C_17  and  C_29 
REMARK       I    between atoms: N_18  and  C_19 
REMARK    4  A    between atoms: C_19  and  C_20 
REMARK    5  A    between atoms: C_20  and  C_21 
REMARK    6  A    between atoms: C_21  and  C_22 
ROOT
HETATM    1  N   UNL     1      41.684 -15.258   4.706  1.00  0.00    -0.248 N 
HETATM    2  C   UNL     1      40.542 -15.472   5.514  1.00  0.00     0.335 A 
HETATM    3  O   UNL     1      40.011 -16.555   5.756  1.00  0.00    -0.246 OA
HETATM    4  N   UNL     1      40.005 -14.347   6.109  1.00  0.00    -0.274 N 
HETATM    5  C   UNL     1      40.498 -13.076   6.064  1.00  0.00     0.262 A 
HETATM    6  O   UNL     1      40.024 -12.139   6.690  1.00  0.00    -0.267 OA
HETATM    7  C   UNL     1      41.640 -12.913   5.194  1.00  0.00     0.101 A 
HETATM    8  C   UNL     1      42.169 -13.970   4.577  1.00  0.00     0.134 A 
HETATM    9  N   UNL     1      43.183 -13.539   3.779  1.00  0.00    -0.309 N 
HETATM   10  C   UNL     1      43.393 -12.171   3.905  1.00  0.00     0.266 A 
HETATM   11  O   UNL     1      44.296 -11.552   3.366  1.00  0.00    -0.270 OA
HETATM   12  C   UNL     1      42.300 -11.617   4.833  1.00  0.00     0.249 A 
HETATM   13  H   UNL     1      39.218 -14.515   6.720  1.00  0.00     0.173 HD
HETATM   14  H   UNL     1      43.764 -14.119   3.189  1.00  0.00     0.170 HD
ENDROOT
BRANCH  12  15
HETATM   15  N   UNL     1      42.826 -10.893   6.006  1.00  0.00    -0.332 N 
HETATM   16  C   UNL     1      43.799 -11.394   6.834  1.00  0.00     0.219 C 
HETATM   17  O   UNL     1      44.401 -12.437   6.607  1.00  0.00    -0.274 OA
HETATM   18  H   UNL     1      42.274 -10.111   6.342  1.00  0.00     0.164 HD
BRANCH  16  19
HETATM   19  C   UNL     1      44.022 -10.576   8.085  1.00  0.00     0.107 C 
BRANCH  19  20
HETATM   20  C   UNL     1      42.791  -9.719   8.375  1.00  0.00     0.047 C 
BRANCH  20  21
HETATM   21  C   UNL     1      42.680  -9.328   9.828  1.00  0.00    -0.058 A 
HETATM   22  C   UNL     1      41.434  -9.332  10.470  1.00  0.00     0.007 A 
HETATM   23  C   UNL     1      41.330  -8.984  11.818  1.00  0.00     0.001 A 
HETATM   24  C   UNL     1      42.470  -8.630  12.538  1.00  0.00     0.000 A 
HETATM   25  C   UNL     1      43.714  -8.627  11.912  1.00  0.00     0.001 A 
HETATM   26  C   UNL     1      43.820  -8.976  10.564  1.00  0.00     0.007 A 
ENDBRANCH  20  21
ENDBRANCH  19  20
ENDBRANCH  16  19
ENDBRANCH  12  15
BRANCH  12  27
HETATM   27  C   UNL     1      41.412 -10.756   3.924  1.00  0.00     0.426 C 
HETATM   28  F   UNL     1      40.606 -11.495   3.127  1.00  0.00    -0.167 F 
HETATM   29  F   UNL     1      40.606  -9.949   4.658  1.00  0.00    -0.167 F 
HETATM   30  F   UNL     1      42.137  -9.936   3.130  1.00  0.00    -0.167 F 
ENDBRANCH  12  27
BRANCH   1  31
HETATM   31  C   UNL     1      42.291 -16.392   4.060  1.00  0.00     0.045 A 
HETATM   32  C   UNL     1      43.297 -17.129   4.699  1.00  0.00     0.031 A 
HETATM   33  C   UNL     1      43.862 -18.258   4.094  1.00  0.00     0.009 A 
HETATM   34  C   UNL     1      43.447 -18.664   2.824  1.00  0.00    -0.062 A 
HETATM   35  C   UNL     1      44.028 -19.896   2.196  1.00  0.00     0.048 C 
HETATM   36  C   UNL     1      42.452 -17.929   2.173  1.00  0.00     0.009 A 
HETATM   37  C   UNL     1      41.887 -16.801   2.781  1.00  0.00     0.031 A 
ENDBRANCH   1  31
TORSDOF 6
ENDMDL
MODEL 4
REMARK VINA RESULT:      -9.3      3.756      8.920
REMARK  6 active torsions:
REMARK  status: ('A' for Active; 'I' for Inactive)
REMARK    1  A    between atoms: C_5  and  N_6 
REMARK    2  A    between atoms: C_17  and  N_18 
REMARK    3  A    between atoms: C_17  and  C_29 
REMARK       I    between atoms: N_18  and  C_19 
REMARK    4  A    between atoms: C_19  and  C_20 
REMARK    5  A    between atoms: C_20  and  C_21 
REMARK    6  A    between atoms: C_21  and  C_22 
ROOT
HETATM    1  N   UNL     1      41.676 -14.829   2.121  1.00  0.00    -0.248 N 
HETATM    2  C   UNL     1      42.767 -15.699   1.886  1.00  0.00     0.335 A 
HETATM    3  O   UNL     1      43.219 -16.026   0.789  1.00  0.00    -0.246 OA
HETATM    4  N   UNL     1      43.397 -16.193   3.011  1.00  0.00    -0.274 N 
HETATM    5  C   UNL     1      43.132 -15.876   4.311  1.00  0.00     0.262 A 
HETATM    6  O   UNL     1      43.788 -16.279   5.260  1.00  0.00    -0.267 OA
HETATM    7  C   UNL     1      41.984 -15.015   4.489  1.00  0.00     0.101 A 
HETATM    8  C   UNL     1      41.330 -14.542   3.428  1.00  0.00     0.134 A 
HETATM    9  N   UNL     1      40.266 -13.817   3.866  1.00  0.00    -0.309 N 
HETATM   10  C   UNL     1      40.232 -13.739   5.254  1.00  0.00     0.266 A 
HETATM   11  O   UNL     1      39.432 -13.077   5.895  1.00  0.00    -0.270 OA
HETATM   12  C   UNL     1      41.369 -14.619   5.797  1.00  0.00     0.249 A 
HETATM   13  H   UNL     1      44.202 -16.777   2.835  1.00  0.00     0.173 HD
HETATM   14  H   UNL     1      39.590 -13.341   3.286  1.00  0.00     0.170 HD
ENDROOT
BRANCH  12  15
HETATM   15  N   UNL     1      42.307 -13.900   6.679  1.00  0.00    -0.332 N 
HETATM   16  C   UNL     1      42.938 -12.733   6.328  1.00  0.00     0.219 C 
HETATM   17  O   UNL     1      42.689 -12.121   5.297  1.00  0.00    -0.274 OA
HETATM   18  H   UNL     1      42.677 -14.421   7.468  1.00  0.00     0.164 HD
BRANCH  16  19
HETATM   19  C   UNL     1      44.012 -12.299   7.300  1.00  0.00     0.107 C 
BRANCH  19  20
HETATM   20  C   UNL     1      44.168 -10.780   7.261  1.00  0.00     0.047 C 
BRANCH  20  21
HETATM   21  C   UNL     1      44.122 -10.153   8.633  1.00  0.00    -0.058 A 
HETATM   22  C   UNL     1      42.922  -9.625   9.131  1.00  0.00     0.007 A 
HETATM   23  C   UNL     1      42.873  -9.057  10.405  1.00  0.00     0.001 A 
HETATM   24  C   UNL     1      44.020  -9.010  11.195  1.00  0.00     0.000 A 
HETATM   25  C   UNL     1      45.216  -9.536  10.712  1.00  0.00     0.001 A 
HETATM   26  C   UNL     1      45.268 -10.107   9.439  1.00  0.00     0.007 A 
ENDBRANCH  20  21
ENDBRANCH  19  20
ENDBRANCH  16  19
ENDBRANCH  12  15
BRANCH  12  27
HETATM   27  C   UNL     1      40.662 -15.799   6.478  1.00  0.00     0.426 C 
HETATM   28  F   UNL     1      40.222 -16.726   5.595  1.00  0.00    -0.167 F 
HETATM   29  F   UNL     1      41.499 -16.437   7.333  1.00  0.00    -0.167 F 
HETATM   30  F   UNL     1      39.603 -15.401   7.220  1.00  0.00    -0.167 F 
ENDBRANCH  12  27
BRANCH   1  31
HETATM   31  C   UNL     1      40.979 -14.279   0.987  1.00  0.00     0.045 A 
HETATM   32  C   UNL     1      41.218 -12.964   0.566  1.00  0.00     0.031 A 
HETATM   33  C   UNL     1      40.576 -12.437  -0.560  1.00  0.00     0.009 A 
HETATM   34  C   UNL     1      39.662 -13.209  -1.281  1.00  0.00    -0.062 A 
HETATM   35  C   UNL     1      39.005 -12.653  -2.509  1.00  0.00     0.048 C 
HETATM   36  C   UNL     1      39.409 -14.519  -0.864  1.00  0.00     0.009 A 
HETATM   37  C   UNL     1      40.054 -15.044   0.263  1.00  0.00     0.031 A 
ENDBRANCH   1  31
TORSDOF 6
ENDMDL
MODEL 5
REMARK VINA RESULT:      -8.8      3.381      4.884
REMARK  6 active torsions:
REMARK  status: ('A' for Active; 'I' for Inactive)
REMARK    1  A    between atoms: C_5  and  N_6 
REMARK    2  A    between atoms: C_17  and  N_18 
REMARK    3  A    between atoms: C_17  and  C_29 
REMARK       I    between atoms: N_18  and  C_19 
REMARK    4  A    between atoms: C_19  and  C_20 
REMARK    5  A    between atoms: C_20  and  C_21 
REMARK    6  A    between atoms: C_21  and  C_22 
ROOT
HETATM    1  N   UNL     1      40.345 -10.665   5.817  1.00  0.00    -0.248 N 
HETATM    2  C   UNL     1      39.334 -11.503   6.345  1.00  0.00     0.335 A 
HETATM    3  O   UNL     1      38.192 -11.165   6.655  1.00  0.00    -0.246 OA
HETATM    4  N   UNL     1      39.668 -12.835   6.487  1.00  0.00    -0.274 N 
HETATM    5  C   UNL     1      40.830 -13.439   6.105  1.00  0.00     0.262 A 
HETATM    6  O   UNL     1      41.029 -14.643   6.175  1.00  0.00    -0.267 OA
HETATM    7  C   UNL     1      41.837 -12.528   5.610  1.00  0.00     0.101 A 
HETATM    8  C   UNL     1      41.563 -11.228   5.487  1.00  0.00     0.134 A 
HETATM    9  N   UNL     1      42.687 -10.590   5.064  1.00  0.00    -0.309 N 
HETATM   10  C   UNL     1      43.728 -11.480   4.829  1.00  0.00     0.266 A 
HETATM   11  O   UNL     1      44.814 -11.176   4.362  1.00  0.00    -0.270 OA
HETATM   12  C   UNL     1      43.251 -12.877   5.257  1.00  0.00     0.249 A 
HETATM   13  H   UNL     1      38.927 -13.434   6.822  1.00  0.00     0.173 HD
HETATM   14  H   UNL     1      42.777  -9.600   4.886  1.00  0.00     0.170 HD
ENDROOT
BRANCH  12  15
HETATM   15  N   UNL     1      43.343 -13.890   4.189  1.00  0.00    -0.332 N 
HETATM   16  C   UNL     1      42.870 -13.697   2.915  1.00  0.00     0.219 C 
HETATM   17  O   UNL     1      42.434 -12.623   2.518  1.00  0.00    -0.274 OA
HETATM   18  H   UNL     1      43.542 -14.841   4.482  1.00  0.00     0.164 HD
BRANCH  16  19
HETATM   19  C   UNL     1      42.879 -14.944   2.061  1.00  0.00     0.107 C 
BRANCH  19  20
HETATM   20  C   UNL     1      41.985 -16.012   2.686  1.00  0.00     0.047 C 
BRANCH  20  21
HETATM   21  C   UNL     1      42.748 -17.253   3.084  1.00  0.00    -0.058 A 
HETATM   22  C   UNL     1      43.320 -17.354   4.360  1.00  0.00     0.007 A 
HETATM   23  C   UNL     1      44.014 -18.506   4.736  1.00  0.00     0.001 A 
HETATM   24  C   UNL     1      44.144 -19.567   3.841  1.00  0.00     0.000 A 
HETATM   25  C   UNL     1      43.576 -19.478   2.572  1.00  0.00     0.001 A 
HETATM   26  C   UNL     1      42.879 -18.329   2.195  1.00  0.00     0.007 A 
ENDBRANCH  20  21
ENDBRANCH  19  20
ENDBRANCH  16  19
ENDBRANCH  12  15
BRANCH  12  27
HETATM   27  C   UNL     1      44.085 -13.214   6.501  1.00  0.00     0.426 C 
HETATM   28  F   UNL     1      43.469 -12.865   7.654  1.00  0.00    -0.167 F 
HETATM   29  F   UNL     1      44.331 -14.546   6.573  1.00  0.00    -0.167 F 
HETATM   30  F   UNL     1      45.295 -12.612   6.482  1.00  0.00    -0.167 F 
ENDBRANCH  12  27
BRANCH   1  31
HETATM   31  C   UNL     1      40.056  -9.266   5.643  1.00  0.00     0.045 A 
HETATM   32  C   UNL     1      40.283  -8.351   6.681  1.00  0.00     0.031 A 
HETATM   33  C   UNL     1      40.045  -6.984   6.504  1.00  0.00     0.009 A 
HETATM   34  C   UNL     1      39.552  -6.500   5.290  1.00  0.00    -0.062 A 
HETATM   35  C   UNL     1      39.333  -5.030   5.093  1.00  0.00     0.048 C 
HETATM   36  C   UNL     1      39.311  -7.406   4.252  1.00  0.00     0.009 A 
HETATM   37  C   UNL     1      39.552  -8.773   4.431  1.00  0.00     0.031 A 
ENDBRANCH   1  31
TORSDOF 6
ENDMDL
MODEL 6
REMARK VINA RESULT:      -8.7      3.931      8.099
REMARK  6 active torsions:
REMARK  status: ('A' for Active; 'I' for Inactive)
REMARK    1  A    between atoms: C_5  and  N_6 
REMARK    2  A    between atoms: C_17  and  N_18 
REMARK    3  A    between atoms: C_17  and  C_29 
REMARK       I    between atoms: N_18  and  C_19 
REMARK    4  A    between atoms: C_19  and  C_20 
REMARK    5  A    between atoms: C_20  and  C_21 
REMARK    6  A    between atoms: C_21  and  C_22 
ROOT
HETATM    1  N   UNL     1      40.192 -12.463   2.008  1.00  0.00    -0.248 N 
HETATM    2  C   UNL     1      41.089 -12.775   0.958  1.00  0.00     0.335 A 
HETATM    3  O   UNL     1      41.093 -12.282  -0.169  1.00  0.00    -0.246 OA
HETATM    4  N   UNL     1      42.070 -13.699   1.257  1.00  0.00    -0.274 N 
HETATM    5  C   UNL     1      42.313 -14.281   2.467  1.00  0.00     0.262 A 
HETATM    6  O   UNL     1      43.258 -15.024   2.689  1.00  0.00    -0.267 OA
HETATM    7  C   UNL     1      41.343 -13.955   3.488  1.00  0.00     0.101 A 
HETATM    8  C   UNL     1      40.362 -13.090   3.228  1.00  0.00     0.134 A 
HETATM    9  N   UNL     1      39.560 -13.007   4.324  1.00  0.00    -0.309 N 
HETATM   10  C   UNL     1      40.042 -13.779   5.374  1.00  0.00     0.266 A 
HETATM   11  O   UNL     1      39.558 -13.812   6.494  1.00  0.00    -0.270 OA
HETATM   12  C   UNL     1      41.266 -14.552   4.860  1.00  0.00     0.249 A 
HETATM   13  H   UNL     1      42.733 -13.881   0.517  1.00  0.00     0.173 HD
HETATM   14  H   UNL     1      38.736 -12.430   4.416  1.00  0.00     0.170 HD
ENDROOT
BRANCH  12  15
HETATM   15  N   UNL     1      42.489 -14.327   5.654  1.00  0.00    -0.332 N 
HETATM   16  C   UNL     1      42.962 -13.081   5.984  1.00  0.00     0.219 C 
HETATM   17  O   UNL     1      42.347 -12.047   5.749  1.00  0.00    -0.274 OA
HETATM   18  H   UNL     1      43.123 -15.114   5.745  1.00  0.00     0.164 HD
BRANCH  16  19
HETATM   19  C   UNL     1      44.336 -13.092   6.612  1.00  0.00     0.107 C 
BRANCH  19  20
HETATM   20  C   UNL     1      45.028 -11.750   6.382  1.00  0.00     0.047 C 
BRANCH  20  21
HETATM   21  C   UNL     1      45.061 -10.890   7.621  1.00  0.00    -0.058 A 
HETATM   22  C   UNL     1      44.131 -11.093   8.651  1.00  0.00     0.007 A 
HETATM   23  C   UNL     1      44.169 -10.308   9.804  1.00  0.00     0.001 A 
HETATM   24  C   UNL     1      45.135  -9.313   9.942  1.00  0.00     0.000 A 
HETATM   25  C   UNL     1      46.067  -9.106   8.927  1.00  0.00     0.001 A 
HETATM   26  C   UNL     1      46.033  -9.891   7.774  1.00  0.00     0.007 A 
ENDBRANCH  20  21
ENDBRANCH  19  20
ENDBRANCH  16  19
ENDBRANCH  12  15
BRANCH  12  27
HETATM   27  C   UNL     1      40.818 -16.020   4.821  1.00  0.00     0.426 C 
HETATM   28  F   UNL     1      40.042 -16.302   3.748  1.00  0.00    -0.167 F 
HETATM   29  F   UNL     1      41.888 -16.851   4.762  1.00  0.00    -0.167 F 
HETATM   30  F   UNL     1      40.131 -16.373   5.930  1.00  0.00    -0.167 F 
ENDBRANCH  12  27
BRANCH   1  31
HETATM   31  C   UNL     1      39.148 -11.504   1.758  1.00  0.00     0.045 A 
HETATM   32  C   UNL     1      39.341 -10.144   2.034  1.00  0.00     0.031 A 
HETATM   33  C   UNL     1      38.345  -9.201   1.753  1.00  0.00     0.009 A 
HETATM   34  C   UNL     1      37.123  -9.601   1.209  1.00  0.00    -0.062 A 
HETATM   35  C   UNL     1      36.073  -8.583   0.876  1.00  0.00     0.048 C 
HETATM   36  C   UNL     1      36.916 -10.957   0.940  1.00  0.00     0.009 A 
HETATM   37  C   UNL     1      37.914 -11.898   1.220  1.00  0.00     0.031 A 
ENDBRANCH   1  31
TORSDOF 6
ENDMDL
MODEL 7
REMARK VINA RESULT:      -8.6      7.114     10.918
REMARK  6 active torsions:
REMARK  status: ('A' for Active; 'I' for Inactive)
REMARK    1  A    between atoms: C_5  and  N_6 
REMARK    2  A    between atoms: C_17  and  N_18 
REMARK    3  A    between atoms: C_17  and  C_29 
REMARK       I    between atoms: N_18  and  C_19 
REMARK    4  A    between atoms: C_19  and  C_20 
REMARK    5  A    between atoms: C_20  and  C_21 
REMARK    6  A    between atoms: C_21  and  C_22 
ROOT
HETATM    1  N   UNL     1      40.200 -13.736   1.249  1.00  0.00    -0.248 N 
HETATM    2  C   UNL     1      39.372 -13.151   2.237  1.00  0.00     0.335 A 
HETATM    3  O   UNL     1      39.376 -13.409   3.440  1.00  0.00    -0.246 OA
HETATM    4  N   UNL     1      38.506 -12.171   1.794  1.00  0.00    -0.274 N 
HETATM    5  C   UNL     1      38.417 -11.657   0.534  1.00  0.00     0.262 A 
HETATM    6  O   UNL     1      37.690 -10.723   0.228  1.00  0.00    -0.267 OA
HETATM    7  C   UNL     1      39.257 -12.320  -0.437  1.00  0.00     0.101 A 
HETATM    8  C   UNL     1      40.086 -13.293  -0.055  1.00  0.00     0.134 A 
HETATM    9  N   UNL     1      40.710 -13.785  -1.158  1.00  0.00    -0.309 N 
HETATM   10  C   UNL     1      40.350 -13.090  -2.307  1.00  0.00     0.266 A 
HETATM   11  O   UNL     1      40.832 -13.275  -3.413  1.00  0.00    -0.270 OA
HETATM   12  C   UNL     1      39.266 -12.074  -1.916  1.00  0.00     0.249 A 
HETATM   13  H   UNL     1      37.952 -11.727   2.513  1.00  0.00     0.173 HD
HETATM   14  H   UNL     1      41.391 -14.531  -1.174  1.00  0.00     0.170 HD
ENDROOT
BRANCH  12  15
HETATM   15  N   UNL     1      39.602 -10.681  -2.265  1.00  0.00    -0.332 N 
HETATM   16  C   UNL     1      40.749 -10.050  -1.853  1.00  0.00     0.219 C 
HETATM   17  O   UNL     1      41.652 -10.624  -1.257  1.00  0.00    -0.274 OA
HETATM   18  H   UNL     1      38.843 -10.105  -2.614  1.00  0.00     0.164 HD
BRANCH  16  19
HETATM   19  C   UNL     1      40.775  -8.568  -2.149  1.00  0.00     0.107 C 
BRANCH  19  20
HETATM   20  C   UNL     1      42.139  -8.170  -2.710  1.00  0.00     0.047 C 
BRANCH  20  21
HETATM   21  C   UNL     1      42.054  -7.613  -4.110  1.00  0.00    -0.058 A 
HETATM   22  C   UNL     1      40.914  -7.837  -4.895  1.00  0.00     0.007 A 
HETATM   23  C   UNL     1      40.828  -7.311  -6.185  1.00  0.00     0.001 A 
HETATM   24  C   UNL     1      41.879  -6.556  -6.704  1.00  0.00     0.000 A 
HETATM   25  C   UNL     1      43.014  -6.323  -5.931  1.00  0.00     0.001 A 
HETATM   26  C   UNL     1      43.102  -6.846  -4.640  1.00  0.00     0.007 A 
ENDBRANCH  20  21
ENDBRANCH  19  20
ENDBRANCH  16  19
ENDBRANCH  12  15
BRANCH  12  27
HETATM   27  C   UNL     1      37.985 -12.587  -2.588  1.00  0.00     0.426 C 
HETATM   28  F   UNL     1      38.233 -13.469  -3.584  1.00  0.00    -0.167 F 
HETATM   29  F   UNL     1      37.187 -13.219  -1.692  1.00  0.00    -0.167 F 
HETATM   30  F   UNL     1      37.241 -11.582  -3.104  1.00  0.00    -0.167 F 
ENDBRANCH  12  27
BRANCH   1  31
HETATM   31  C   UNL     1      41.126 -14.763   1.649  1.00  0.00     0.045 A 
HETATM   32  C   UNL     1      42.488 -14.476   1.816  1.00  0.00     0.031 A 
HETATM   33  C   UNL     1      43.386 -15.459   2.245  1.00  0.00     0.009 A 
HETATM   34  C   UNL     1      42.946 -16.761   2.499  1.00  0.00    -0.062 A 
HETATM   35  C   UNL     1      43.906 -17.801   2.994  1.00  0.00     0.048 C 
HETATM   36  C   UNL     1      41.592 -17.060   2.325  1.00  0.00     0.009 A 
HETATM   37  C   UNL     1      40.695 -16.074   1.897  1.00  0.00     0.031 A 
ENDBRANCH   1  31
TORSDOF 6
ENDMDL
MODEL 8
REMARK VINA RESULT:      -8.5      7.022     10.615
REMARK  6 active torsions:
REMARK  status: ('A' for Active; 'I' for Inactive)
REMARK    1  A    between atoms: C_5  and  N_6 
REMARK    2  A    between atoms: C_17  and  N_18 
REMARK    3  A    between atoms: C_17  and  C_29 
REMARK       I    between atoms: N_18  and  C_19 
REMARK    4  A    between atoms: C_19  and  C_20 
REMARK    5  A    between atoms: C_20  and  C_21 
REMARK    6  A    between atoms: C_21  and  C_22 
ROOT
HETATM    1  N   UNL     1      40.132 -13.629   1.321  1.00  0.00    -0.248 N 
HETATM    2  C   UNL     1      39.280 -12.995   2.255  1.00  0.00     0.335 A 
HETATM    3  O   UNL     1      39.253 -13.190   3.469  1.00  0.00    -0.246 OA
HETATM    4  N   UNL     1      38.426 -12.039   1.740  1.00  0.00    -0.274 N 
HETATM    5  C   UNL     1      38.369 -11.592   0.453  1.00  0.00     0.262 A 
HETATM    6  O   UNL     1      37.651 -10.676   0.080  1.00  0.00    -0.267 OA
HETATM    7  C   UNL     1      39.234 -12.304  -0.461  1.00  0.00     0.101 A 
HETATM    8  C   UNL     1      40.051 -13.255  -0.007  1.00  0.00     0.134 A 
HETATM    9  N   UNL     1      40.703 -13.803  -1.067  1.00  0.00    -0.309 N 
HETATM   10  C   UNL     1      40.373 -13.169  -2.260  1.00  0.00     0.266 A 
HETATM   11  O   UNL     1      40.883 -13.411  -3.342  1.00  0.00    -0.270 OA
HETATM   12  C   UNL     1      39.279 -12.135  -1.949  1.00  0.00     0.249 A 
HETATM   13  H   UNL     1      37.854 -11.559   2.420  1.00  0.00     0.173 HD
HETATM   14  H   UNL     1      41.384 -14.548  -1.027  1.00  0.00     0.170 HD
ENDROOT
BRANCH  12  15
HETATM   15  N   UNL     1      39.625 -10.762  -2.362  1.00  0.00    -0.332 N 
HETATM   16  C   UNL     1      40.797 -10.136  -2.016  1.00  0.00     0.219 C 
HETATM   17  O   UNL     1      41.712 -10.704  -1.432  1.00  0.00    -0.274 OA
HETATM   18  H   UNL     1      38.863 -10.186  -2.705  1.00  0.00     0.164 HD
BRANCH  16  19
HETATM   19  C   UNL     1      40.836  -8.667  -2.368  1.00  0.00     0.107 C 
BRANCH  19  20
HETATM   20  C   UNL     1      42.281  -8.217  -2.573  1.00  0.00     0.047 C 
BRANCH  20  21
HETATM   21  C   UNL     1      42.659  -7.049  -1.694  1.00  0.00    -0.058 A 
HETATM   22  C   UNL     1      41.854  -6.693  -0.603  1.00  0.00     0.007 A 
HETATM   23  C   UNL     1      42.208  -5.622   0.219  1.00  0.00     0.001 A 
HETATM   24  C   UNL     1      43.371  -4.898  -0.039  1.00  0.00     0.000 A 
HETATM   25  C   UNL     1      44.181  -5.246  -1.117  1.00  0.00     0.001 A 
HETATM   26  C   UNL     1      43.829  -6.318  -1.939  1.00  0.00     0.007 A 
ENDBRANCH  20  21
ENDBRANCH  19  20
ENDBRANCH  16  19
ENDBRANCH  12  15
BRANCH  12  27
HETATM   27  C   UNL     1      38.016 -12.684  -2.626  1.00  0.00     0.426 C 
HETATM   28  F   UNL     1      37.177 -11.706  -3.040  1.00  0.00    -0.167 F 
HETATM   29  F   UNL     1      38.333 -13.419  -3.721  1.00  0.00    -0.167 F 
HETATM   30  F   UNL     1      37.318 -13.508  -1.813  1.00  0.00    -0.167 F 
ENDBRANCH  12  27
BRANCH   1  31
HETATM   31  C   UNL     1      41.048 -14.633   1.797  1.00  0.00     0.045 A 
HETATM   32  C   UNL     1      40.639 -15.966   1.946  1.00  0.00     0.031 A 
HETATM   33  C   UNL     1      41.534 -16.954   2.367  1.00  0.00     0.009 A 
HETATM   34  C   UNL     1      42.859 -16.629   2.671  1.00  0.00    -0.062 A 
HETATM   35  C   UNL     1      43.825 -17.698   3.087  1.00  0.00     0.048 C 
HETATM   36  C   UNL     1      43.274 -15.301   2.536  1.00  0.00     0.009 A 
HETATM   37  C   UNL     1      42.376 -14.314   2.113  1.00  0.00     0.031 A 
ENDBRANCH   1  31
TORSDOF 6
ENDMDL
MODEL 9
REMARK VINA RESULT:      -8.4      1.966      2.547
REMARK  6 active torsions:
REMARK  status: ('A' for Active; 'I' for Inactive)
REMARK    1  A    between atoms: C_5  and  N_6 
REMARK    2  A    between atoms: C_17  and  N_18 
REMARK    3  A    between atoms: C_17  and  C_29 
REMARK       I    between atoms: N_18  and  C_19 
REMARK    4  A    between atoms: C_19  and  C_20 
REMARK    5  A    between atoms: C_20  and  C_21 
REMARK    6  A    between atoms: C_21  and  C_22 
ROOT
HETATM    1  N   UNL     1      43.924 -10.242   7.915  1.00  0.00    -0.248 N 
HETATM    2  C   UNL     1      45.253 -10.437   7.470  1.00  0.00     0.335 A 
HETATM    3  O   UNL     1      46.279 -10.219   8.112  1.00  0.00    -0.246 OA
HETATM    4  N   UNL     1      45.392 -10.957   6.198  1.00  0.00    -0.274 N 
HETATM    5  C   UNL     1      44.396 -11.371   5.363  1.00  0.00     0.262 A 
HETATM    6  O   UNL     1      44.591 -11.909   4.283  1.00  0.00    -0.267 OA
HETATM    7  C   UNL     1      43.062 -11.110   5.856  1.00  0.00     0.101 A 
HETATM    8  C   UNL     1      42.887 -10.580   7.067  1.00  0.00     0.134 A 
HETATM    9  N   UNL     1      41.555 -10.382   7.261  1.00  0.00    -0.309 N 
HETATM   10  C   UNL     1      40.803 -10.848   6.189  1.00  0.00     0.266 A 
HETATM   11  O   UNL     1      39.584 -10.869   6.150  1.00  0.00    -0.270 OA
HETATM   12  C   UNL     1      41.784 -11.319   5.103  1.00  0.00     0.249 A 
HETATM   13  H   UNL     1      46.342 -11.136   5.905  1.00  0.00     0.173 HD
HETATM   14  H   UNL     1      41.126  -9.991   8.088  1.00  0.00     0.170 HD
ENDROOT
BRANCH  12  15
HETATM   15  N   UNL     1      41.583 -12.720   4.688  1.00  0.00    -0.332 N 
HETATM   16  C   UNL     1      41.786 -13.795   5.517  1.00  0.00     0.219 C 
HETATM   17  O   UNL     1      42.040 -13.682   6.710  1.00  0.00    -0.274 OA
HETATM   18  H   UNL     1      41.530 -12.894   3.689  1.00  0.00     0.164 HD
BRANCH  16  19
HETATM   19  C   UNL     1      41.728 -15.132   4.814  1.00  0.00     0.107 C 
BRANCH  19  20
HETATM   20  C   UNL     1      42.506 -15.067   3.501  1.00  0.00     0.047 C 
BRANCH  20  21
HETATM   21  C   UNL     1      41.606 -14.994   2.292  1.00  0.00    -0.058 A 
HETATM   22  C   UNL     1      41.698 -13.912   1.404  1.00  0.00     0.007 A 
HETATM   23  C   UNL     1      40.876 -13.849   0.278  1.00  0.00     0.001 A 
HETATM   24  C   UNL     1      39.956 -14.864   0.026  1.00  0.00     0.000 A 
HETATM   25  C   UNL     1      39.859 -15.946   0.899  1.00  0.00     0.001 A 
HETATM   26  C   UNL     1      40.681 -16.013   2.025  1.00  0.00     0.007 A 
ENDBRANCH  20  21
ENDBRANCH  19  20
ENDBRANCH  16  19
ENDBRANCH  12  15
BRANCH  12  27
HETATM   27  C   UNL     1      41.621 -10.307   3.960  1.00  0.00     0.426 C 
HETATM   28  F   UNL     1      42.392 -10.601   2.887  1.00  0.00    -0.167 F 
HETATM   29  F   UNL     1      40.337 -10.271   3.524  1.00  0.00    -0.167 F 
HETATM   30  F   UNL     1      41.919  -9.047   4.348  1.00  0.00    -0.167 F 
ENDBRANCH  12  27
BRANCH   1  31
HETATM   31  C   UNL     1      43.714  -9.704   9.234  1.00  0.00     0.045 A 
HETATM   32  C   UNL     1      43.714 -10.539  10.359  1.00  0.00     0.031 A 
HETATM   33  C   UNL     1      43.552 -10.018  11.647  1.00  0.00     0.009 A 
HETATM   34  C   UNL     1      43.365  -8.647  11.839  1.00  0.00    -0.062 A 
HETATM   35  C   UNL     1      43.230  -8.088  13.224  1.00  0.00     0.048 C 
HETATM   36  C   UNL     1      43.353  -7.806  10.723  1.00  0.00     0.009 A 
HETATM   37  C   UNL     1      43.516  -8.330   9.435  1.00  0.00     0.031 A 
ENDBRANCH   1  31
TORSDOF 6
ENDMDL
MODEL 10
REMARK VINA RESULT:      -8.4      5.282      8.047
REMARK  6 active torsions:
REMARK  status: ('A' for Active; 'I' for Inactive)
REMARK    1  A    between atoms: C_5  and  N_6 
REMARK    2  A    between atoms: C_17  and  N_18 
REMARK    3  A    between atoms: C_17  and  C_29 
REMARK       I    between atoms: N_18  and  C_19 
REMARK    4  A    between atoms: C_19  and  C_20 
REMARK    5  A    between atoms: C_20  and  C_21 
REMARK    6  A    between atoms: C_21  and  C_22 
ROOT
HETATM    1  N   UNL     1      41.232 -10.825  -0.906  1.00  0.00    -0.248 N 
HETATM    2  C   UNL     1      41.172 -11.925  -1.794  1.00  0.00     0.335 A 
HETATM    3  O   UNL     1      41.372 -11.896  -3.008  1.00  0.00    -0.246 OA
HETATM    4  N   UNL     1      40.894 -13.150  -1.220  1.00  0.00    -0.274 N 
HETATM    5  C   UNL     1      40.750 -13.423   0.109  1.00  0.00     0.262 A 
HETATM    6  O   UNL     1      40.595 -14.548   0.561  1.00  0.00    -0.267 OA
HETATM    7  C   UNL     1      40.782 -12.256   0.962  1.00  0.00     0.101 A 
HETATM    8  C   UNL     1      41.017 -11.051   0.440  1.00  0.00     0.134 A 
HETATM    9  N   UNL     1      40.934 -10.128   1.436  1.00  0.00    -0.309 N 
HETATM   10  C   UNL     1      40.704 -10.722   2.672  1.00  0.00     0.266 A 
HETATM   11  O   UNL     1      40.675 -10.127   3.737  1.00  0.00    -0.270 OA
HETATM   12  C   UNL     1      40.507 -12.228   2.435  1.00  0.00     0.249 A 
HETATM   13  H   UNL     1      40.898 -13.936  -1.853  1.00  0.00     0.173 HD
HETATM   14  H   UNL     1      41.063  -9.132   1.336  1.00  0.00     0.170 HD
ENDROOT
BRANCH  12  15
HETATM   15  N   UNL     1      41.432 -13.078   3.208  1.00  0.00    -0.332 N 
HETATM   16  C   UNL     1      42.788 -12.873   3.262  1.00  0.00     0.219 C 
HETATM   17  O   UNL     1      43.338 -11.896   2.768  1.00  0.00    -0.274 OA
HETATM   18  H   UNL     1      41.076 -13.981   3.507  1.00  0.00     0.164 HD
BRANCH  16  19
HETATM   19  C   UNL     1      43.552 -13.989   3.936  1.00  0.00     0.107 C 
BRANCH  19  20
HETATM   20  C   UNL     1      42.594 -15.109   4.338  1.00  0.00     0.047 C 
BRANCH  20  21
HETATM   21  C   UNL     1      43.074 -16.473   3.904  1.00  0.00    -0.058 A 
HETATM   22  C   UNL     1      43.889 -17.239   4.749  1.00  0.00     0.007 A 
HETATM   23  C   UNL     1      44.324 -18.506   4.357  1.00  0.00     0.001 A 
HETATM   24  C   UNL     1      43.949 -19.021   3.117  1.00  0.00     0.000 A 
HETATM   25  C   UNL     1      43.136 -18.270   2.271  1.00  0.00     0.001 A 
HETATM   26  C   UNL     1      42.698 -17.003   2.662  1.00  0.00     0.007 A 
ENDBRANCH  20  21
ENDBRANCH  19  20
ENDBRANCH  16  19
ENDBRANCH  12  15
BRANCH  12  27
HETATM   27  C   UNL     1      39.026 -12.485   2.745  1.00  0.00     0.426 C 
HETATM   28  F   UNL     1      38.193 -11.833   1.901  1.00  0.00    -0.167 F 
HETATM   29  F   UNL     1      38.733 -13.806   2.646  1.00  0.00    -0.167 F 
HETATM   30  F   UNL     1      38.699 -12.124   4.007  1.00  0.00    -0.167 F 
ENDBRANCH  12  27
BRANCH   1  31
HETATM   31  C   UNL     1      41.520  -9.521  -1.445  1.00  0.00     0.045 A 
HETATM   32  C   UNL     1      42.795  -8.955  -1.313  1.00  0.00     0.031 A 
HETATM   33  C   UNL     1      43.093  -7.707  -1.871  1.00  0.00     0.009 A 
HETATM   34  C   UNL     1      42.114  -6.985  -2.558  1.00  0.00    -0.062 A 
HETATM   35  C   UNL     1      42.449  -5.665  -3.187  1.00  0.00     0.048 C 
HETATM   36  C   UNL     1      40.836  -7.536  -2.686  1.00  0.00     0.009 A 
HETATM   37  C   UNL     1      40.540  -8.786  -2.128  1.00  0.00     0.031 A 
ENDBRANCH   1  31
TORSDOF 6
ENDMDL
