MODEL 1
REMARK VINA RESULT:      -9.7      0.000      0.000
REMARK  6 active torsions:
REMARK  status: ('A' for Active; 'I' for Inactive)
REMARK    1  A    between atoms: C_4  and  C_5 
REMARK    2  A    between atoms: C_5  and  N_6 
REMARK    3  A    between atoms: C_14  and  C_15 
REMARK    4  A    between atoms: C_18  and  O_19 
REMARK    5  A    between atoms: O_19  and  C_20 
REMARK    6  A    between atoms: C_20  and  C_21 
ROOT
HETATM    1  N   UNL     1      40.425  -7.323  10.291  1.00  0.00    -0.063 N 
HETATM    2  H   UNL     1      40.061  -6.792   9.491  1.00  0.00     0.280 HD
HETATM    3  C   UNL     1      41.749  -7.899   9.812  1.00  0.00     0.282 C 
HETATM    4  C   UNL     1      41.499  -8.852   8.693  1.00  0.00     0.018 A 
HETATM    5  C   UNL     1      40.279  -9.443   8.417  1.00  0.00    -0.023 A 
HETATM    6  C   UNL     1      40.362 -10.279   7.257  1.00  0.00     0.073 A 
HETATM    7  C   UNL     1      41.635 -10.309   6.739  1.00  0.00     0.088 A 
HETATM    8  N   UNL     1      41.975 -11.017   5.646  1.00  0.00    -0.358 N 
HETATM    9  C   UNL     1      41.059 -11.992   5.093  1.00  0.00     0.219 C 
HETATM   10  N   UNL     1      39.699 -11.740   5.497  1.00  0.00    -0.332 N 
HETATM   11  C   UNL     1      39.316 -11.039   6.603  1.00  0.00     0.256 C 
HETATM   12  O   UNL     1      38.155 -11.036   6.997  1.00  0.00    -0.267 OA
HETATM   13  S   UNL     1      42.724  -9.344   7.621  1.00  0.00    -0.074 SA
HETATM   14  C   UNL     1      39.057  -9.155   9.240  1.00  0.00     0.068 C 
HETATM   15  C   UNL     1      39.411  -8.430  10.555  1.00  0.00     0.240 C 
HETATM   16  H   UNL     1      42.954 -11.172   5.420  1.00  0.00     0.162 HD
HETATM   17  H   UNL     1      38.977 -12.312   5.084  1.00  0.00     0.165 HD
ENDROOT
BRANCH   9  18
HETATM   18  C   UNL     1      41.498 -13.404   5.426  1.00  0.00    -0.016 A 
HETATM   19  C   UNL     1      40.660 -14.306   6.103  1.00  0.00     0.014 A 
HETATM   20  C   UNL     1      41.074 -15.616   6.374  1.00  0.00     0.037 A 
HETATM   21  C   UNL     1      42.337 -16.047   5.971  1.00  0.00     0.069 A 
HETATM   22  C   UNL     1      43.187 -15.153   5.322  1.00  0.00     0.037 A 
HETATM   23  C   UNL     1      42.776 -13.845   5.049  1.00  0.00     0.014 A 
BRANCH  21  24
HETATM   24  O   UNL     1      42.857 -17.297   6.153  1.00  0.00    -0.347 OA
BRANCH  24  25
HETATM   25  C   UNL     1      44.114 -17.574   5.539  1.00  0.00     0.214 C 
BRANCH  25  26
HETATM   26  C   UNL     1      43.892 -18.585   4.441  1.00  0.00    -0.034 A 
HETATM   27  C   UNL     1      44.114 -19.949   4.677  1.00  0.00     0.009 A 
HETATM   28  C   UNL     1      43.917 -20.885   3.660  1.00  0.00     0.001 A 
HETATM   29  C   UNL     1      43.500 -20.466   2.397  1.00  0.00     0.000 A 
HETATM   30  C   UNL     1      43.286 -19.112   2.148  1.00  0.00     0.001 A 
HETATM   31  C   UNL     1      43.483 -18.174   3.164  1.00  0.00     0.009 A 
ENDBRANCH  25  26
ENDBRANCH  24  25
ENDBRANCH  21  24
ENDBRANCH   9  18
BRANCH   1  32
HETATM   32  C   UNL     1      40.564  -6.319  11.405  1.00  0.00     0.273 C 
BRANCH  32  33
HETATM   33  C   UNL     1      41.171  -6.834  12.681  1.00  0.00    -0.033 A 
HETATM   34  C   UNL     1      40.392  -7.565  13.594  1.00  0.00     0.009 A 
HETATM   35  C   UNL     1      40.946  -8.027  14.787  1.00  0.00     0.001 A 
HETATM   36  C   UNL     1      42.283  -7.771  15.081  1.00  0.00     0.000 A 
HETATM   37  C   UNL     1      43.070  -7.060  14.180  1.00  0.00     0.001 A 
HETATM   38  C   UNL     1      42.520  -6.594  12.984  1.00  0.00     0.009 A 
ENDBRANCH  32  33
ENDBRANCH   1  32
TORSDOF 6
ENDMDL
MODEL 2
REMARK VINA RESULT:      -9.7      2.133      2.873
REMARK  6 active torsions:
REMARK  status: ('A' for Active; 'I' for Inactive)
REMARK    1  A    between atoms: C_4  and  C_5 
REMARK    2  A    between atoms: C_5  and  N_6 
REMARK    3  A    between atoms: C_14  and  C_15 
REMARK    4  A    between atoms: C_18  and  O_19 
REMARK    5  A    between atoms: O_19  and  C_20 
REMARK    6  A    between atoms: C_20  and  C_21 
ROOT
HETATM    1  N   UNL     1      43.232  -9.056  10.159  1.00  0.00    -0.063 N 
HETATM    2  H   UNL     1      43.482  -8.220   9.618  1.00  0.00     0.280 HD
HETATM    3  C   UNL     1      44.199 -10.132   9.688  1.00  0.00     0.282 C 
HETATM    4  C   UNL     1      43.958 -10.418   8.244  1.00  0.00     0.018 A 
HETATM    5  C   UNL     1      42.800 -10.096   7.558  1.00  0.00    -0.023 A 
HETATM    6  C   UNL     1      42.897 -10.472   6.180  1.00  0.00     0.073 A 
HETATM    7  C   UNL     1      44.094 -11.086   5.900  1.00  0.00     0.088 A 
HETATM    8  N   UNL     1      44.433 -11.529   4.675  1.00  0.00    -0.358 N 
HETATM    9  C   UNL     1      43.440 -11.602   3.624  1.00  0.00     0.219 C 
HETATM   10  N   UNL     1      42.319 -10.735   3.884  1.00  0.00    -0.332 N 
HETATM   11  C   UNL     1      41.938 -10.276   5.111  1.00  0.00     0.256 C 
HETATM   12  O   UNL     1      40.863  -9.712   5.286  1.00  0.00    -0.267 OA
HETATM   13  S   UNL     1      45.102 -11.210   7.266  1.00  0.00    -0.074 SA
HETATM   14  C   UNL     1      41.654  -9.394   8.227  1.00  0.00     0.068 C 
HETATM   15  C   UNL     1      41.800  -9.398   9.763  1.00  0.00     0.240 C 
HETATM   16  H   UNL     1      45.228 -12.150   4.557  1.00  0.00     0.162 HD
HETATM   17  H   UNL     1      41.620 -10.647   3.160  1.00  0.00     0.165 HD
ENDROOT
BRANCH   9  18
HETATM   18  C   UNL     1      43.006 -13.034   3.381  1.00  0.00    -0.016 A 
HETATM   19  C   UNL     1      42.049 -13.671   4.190  1.00  0.00     0.014 A 
HETATM   20  C   UNL     1      41.641 -14.985   3.929  1.00  0.00     0.037 A 
HETATM   21  C   UNL     1      42.183 -15.686   2.853  1.00  0.00     0.069 A 
HETATM   22  C   UNL     1      43.153 -15.073   2.060  1.00  0.00     0.037 A 
HETATM   23  C   UNL     1      43.562 -13.761   2.317  1.00  0.00     0.014 A 
BRANCH  21  24
HETATM   24  O   UNL     1      41.862 -16.959   2.476  1.00  0.00    -0.347 OA
BRANCH  24  25
HETATM   25  C   UNL     1      42.892 -17.739   1.874  1.00  0.00     0.214 C 
BRANCH  25  26
HETATM   26  C   UNL     1      43.368 -18.755   2.882  1.00  0.00    -0.034 A 
HETATM   27  C   UNL     1      43.481 -20.107   2.527  1.00  0.00     0.009 A 
HETATM   28  C   UNL     1      43.913 -21.051   3.460  1.00  0.00     0.001 A 
HETATM   29  C   UNL     1      44.232 -20.653   4.758  1.00  0.00     0.000 A 
HETATM   30  C   UNL     1      44.114 -19.315   5.125  1.00  0.00     0.001 A 
HETATM   31  C   UNL     1      43.682 -18.369   4.193  1.00  0.00     0.009 A 
ENDBRANCH  25  26
ENDBRANCH  24  25
ENDBRANCH  21  24
ENDBRANCH   9  18
BRANCH   1  32
HETATM   32  C   UNL     1      43.410  -8.667  11.603  1.00  0.00     0.273 C 
BRANCH  32  33
HETATM   33  C   UNL     1      42.897  -7.306  11.983  1.00  0.00    -0.033 A 
HETATM   34  C   UNL     1      42.608  -7.005  13.326  1.00  0.00     0.009 A 
HETATM   35  C   UNL     1      42.114  -5.751  13.680  1.00  0.00     0.001 A 
HETATM   36  C   UNL     1      41.907  -4.780  12.704  1.00  0.00     0.000 A 
HETATM   37  C   UNL     1      42.201  -5.059  11.372  1.00  0.00     0.001 A 
HETATM   38  C   UNL     1      42.696  -6.314  11.011  1.00  0.00     0.009 A 
ENDBRANCH  32  33
ENDBRANCH   1  32
TORSDOF 6
ENDMDL
MODEL 3
REMARK VINA RESULT:      -9.6      2.193     11.393
REMARK  6 active torsions:
REMARK  status: ('A' for Active; 'I' for Inactive)
REMARK    1  A    between atoms: C_4  and  C_5 
REMARK    2  A    between atoms: C_5  and  N_6 
REMARK    3  A    between atoms: C_14  and  C_15 
REMARK    4  A    between atoms: C_18  and  O_19 
REMARK    5  A    between atoms: O_19  and  C_20 
REMARK    6  A    between atoms: C_20  and  C_21 
ROOT
HETATM    1  N   UNL     1      43.485 -16.897   5.849  1.00  0.00    -0.063 N 
HETATM    2  H   UNL     1      43.595 -16.574   4.880  1.00  0.00     0.280 HD
HETATM    3  C   UNL     1      42.057 -16.530   6.226  1.00  0.00     0.282 C 
HETATM    4  C   UNL     1      41.905 -15.046   6.206  1.00  0.00     0.018 A 
HETATM    5  C   UNL     1      42.953 -14.144   6.264  1.00  0.00    -0.023 A 
HETATM    6  C   UNL     1      42.476 -12.796   6.190  1.00  0.00     0.073 A 
HETATM    7  C   UNL     1      41.104 -12.742   6.118  1.00  0.00     0.088 A 
HETATM    8  N   UNL     1      40.410 -11.592   6.035  1.00  0.00    -0.358 N 
HETATM    9  C   UNL     1      41.067 -10.323   6.266  1.00  0.00     0.219 C 
HETATM   10  N   UNL     1      42.494 -10.417   6.082  1.00  0.00    -0.332 N 
HETATM   11  C   UNL     1      43.233 -11.560   6.170  1.00  0.00     0.256 C 
HETATM   12  O   UNL     1      44.458 -11.538   6.205  1.00  0.00    -0.267 OA
HETATM   13  S   UNL     1      40.386 -14.285   6.132  1.00  0.00    -0.074 SA
HETATM   14  C   UNL     1      44.382 -14.597   6.339  1.00  0.00     0.068 C 
HETATM   15  C   UNL     1      44.490 -16.099   6.672  1.00  0.00     0.240 C 
HETATM   16  H   UNL     1      39.405 -11.587   6.188  1.00  0.00     0.162 HD
HETATM   17  H   UNL     1      43.027  -9.560   6.128  1.00  0.00     0.165 HD
ENDROOT
BRANCH   9  18
HETATM   18  C   UNL     1      40.707  -9.760   7.625  1.00  0.00    -0.016 A 
HETATM   19  C   UNL     1      39.400  -9.824   8.138  1.00  0.00     0.014 A 
HETATM   20  C   UNL     1      39.095  -9.324   9.410  1.00  0.00     0.037 A 
HETATM   21  C   UNL     1      40.095  -8.750  10.194  1.00  0.00     0.069 A 
HETATM   22  C   UNL     1      41.389  -8.656   9.685  1.00  0.00     0.037 A 
HETATM   23  C   UNL     1      41.697  -9.155   8.416  1.00  0.00     0.014 A 
BRANCH  21  24
HETATM   24  O   UNL     1      39.940  -8.243  11.453  1.00  0.00    -0.347 OA
BRANCH  24  25
HETATM   25  C   UNL     1      40.230  -9.113  12.545  1.00  0.00     0.214 C 
BRANCH  25  26
HETATM   26  C   UNL     1      41.158  -8.392  13.491  1.00  0.00    -0.034 A 
HETATM   27  C   UNL     1      40.810  -8.231  14.840  1.00  0.00     0.009 A 
HETATM   28  C   UNL     1      41.663  -7.558  15.716  1.00  0.00     0.001 A 
HETATM   29  C   UNL     1      42.869  -7.034  15.251  1.00  0.00     0.000 A 
HETATM   30  C   UNL     1      43.220  -7.178  13.911  1.00  0.00     0.001 A 
HETATM   31  C   UNL     1      42.369  -7.852  13.033  1.00  0.00     0.009 A 
ENDBRANCH  25  26
ENDBRANCH  24  25
ENDBRANCH  21  24
ENDBRANCH   9  18
BRANCH   1  32
HETATM   32  C   UNL     1      43.742 -18.380   5.807  1.00  0.00     0.273 C 
BRANCH  32  33
HETATM   33  C   UNL     1      43.681 -19.018   4.447  1.00  0.00    -0.033 A 
HETATM   34  C   UNL     1      43.952 -20.389   4.293  1.00  0.00     0.009 A 
HETATM   35  C   UNL     1      43.916 -20.981   3.031  1.00  0.00     0.001 A 
HETATM   36  C   UNL     1      43.603 -20.216   1.909  1.00  0.00     0.000 A 
HETATM   37  C   UNL     1      43.320 -18.860   2.049  1.00  0.00     0.001 A 
HETATM   38  C   UNL     1      43.355 -18.262   3.310  1.00  0.00     0.009 A 
ENDBRANCH  32  33
ENDBRANCH   1  32
TORSDOF 6
ENDMDL
MODEL 4
REMARK VINA RESULT:      -9.5      3.020     11.916
REMARK  6 active torsions:
REMARK  status: ('A' for Active; 'I' for Inactive)
REMARK    1  A    between atoms: C_4  and  C_5 
REMARK    2  A    between atoms: C_5  and  N_6 
REMARK    3  A    between atoms: C_14  and  C_15 
REMARK    4  A    between atoms: C_18  and  O_19 
REMARK    5  A    between atoms: O_19  and  C_20 
REMARK    6  A    between atoms: C_20  and  C_21 
ROOT
HETATM    1  N   UNL     1      41.702 -13.254   4.871  1.00  0.00    -0.063 N 
HETATM    2  H   UNL     1      42.442 -12.855   4.281  1.00  0.00     0.280 HD
HETATM    3  C   UNL     1      40.844 -12.066   5.282  1.00  0.00     0.282 C 
HETATM    4  C   UNL     1      41.655 -11.132   6.114  1.00  0.00     0.018 A 
HETATM    5  C   UNL     1      42.829 -11.471   6.764  1.00  0.00    -0.023 A 
HETATM    6  C   UNL     1      43.382 -10.342   7.449  1.00  0.00     0.073 A 
HETATM    7  C   UNL     1      42.590  -9.226   7.318  1.00  0.00     0.088 A 
HETATM    8  N   UNL     1      42.892  -8.034   7.865  1.00  0.00    -0.358 N 
HETATM    9  C   UNL     1      43.958  -7.924   8.838  1.00  0.00     0.219 C 
HETATM   10  N   UNL     1      44.886  -9.023   8.743  1.00  0.00    -0.332 N 
HETATM   11  C   UNL     1      44.614 -10.248   8.207  1.00  0.00     0.256 C 
HETATM   12  O   UNL     1      45.379 -11.197   8.342  1.00  0.00    -0.267 OA
HETATM   13  S   UNL     1      41.201  -9.515   6.380  1.00  0.00    -0.074 SA
HETATM   14  C   UNL     1      43.415 -12.850   6.670  1.00  0.00     0.068 C 
HETATM   15  C   UNL     1      42.410 -13.859   6.077  1.00  0.00     0.240 C 
HETATM   16  H   UNL     1      42.189  -7.301   7.916  1.00  0.00     0.162 HD
HETATM   17  H   UNL     1      45.715  -8.984   9.318  1.00  0.00     0.165 HD
ENDROOT
BRANCH   9  18
HETATM   18  C   UNL     1      43.404  -7.770  10.240  1.00  0.00    -0.016 A 
HETATM   19  C   UNL     1      42.534  -6.723  10.588  1.00  0.00     0.014 A 
HETATM   20  C   UNL     1      42.010  -6.616  11.883  1.00  0.00     0.037 A 
HETATM   21  C   UNL     1      42.350  -7.557  12.854  1.00  0.00     0.069 A 
HETATM   22  C   UNL     1      43.234  -8.584  12.528  1.00  0.00     0.037 A 
HETATM   23  C   UNL     1      43.758  -8.694  11.236  1.00  0.00     0.014 A 
BRANCH  21  24
HETATM   24  O   UNL     1      41.899  -7.582  14.144  1.00  0.00    -0.347 OA
BRANCH  24  25
HETATM   25  C   UNL     1      42.654  -6.854  15.111  1.00  0.00     0.214 C 
BRANCH  25  26
HETATM   26  C   UNL     1      41.845  -6.777  16.382  1.00  0.00    -0.034 A 
HETATM   27  C   UNL     1      41.144  -7.899  16.846  1.00  0.00     0.009 A 
HETATM   28  C   UNL     1      40.389  -7.828  18.018  1.00  0.00     0.001 A 
HETATM   29  C   UNL     1      40.322  -6.633  18.734  1.00  0.00     0.000 A 
HETATM   30  C   UNL     1      41.006  -5.509  18.276  1.00  0.00     0.001 A 
HETATM   31  C   UNL     1      41.762  -5.578  17.105  1.00  0.00     0.009 A 
ENDBRANCH  25  26
ENDBRANCH  24  25
ENDBRANCH  21  24
ENDBRANCH   9  18
BRANCH   1  32
HETATM   32  C   UNL     1      40.987 -14.249   3.996  1.00  0.00     0.273 C 
BRANCH  32  33
HETATM   33  C   UNL     1      41.861 -15.245   3.285  1.00  0.00    -0.033 A 
HETATM   34  C   UNL     1      42.689 -14.835   2.227  1.00  0.00     0.009 A 
HETATM   35  C   UNL     1      43.486 -15.760   1.551  1.00  0.00     0.001 A 
HETATM   36  C   UNL     1      43.470 -17.100   1.927  1.00  0.00     0.000 A 
HETATM   37  C   UNL     1      42.664 -17.518   2.982  1.00  0.00     0.001 A 
HETATM   38  C   UNL     1      41.864 -16.597   3.661  1.00  0.00     0.009 A 
ENDBRANCH  32  33
ENDBRANCH   1  32
TORSDOF 6
ENDMDL
MODEL 5
REMARK VINA RESULT:      -9.5      1.928      2.823
REMARK  6 active torsions:
REMARK  status: ('A' for Active; 'I' for Inactive)
REMARK    1  A    between atoms: C_4  and  C_5 
REMARK    2  A    between atoms: C_5  and  N_6 
REMARK    3  A    between atoms: C_14  and  C_15 
REMARK    4  A    between atoms: C_18  and  O_19 
REMARK    5  A    between atoms: O_19  and  C_20 
REMARK    6  A    between atoms: C_20  and  C_21 
ROOT
HETATM    1  N   UNL     1      41.568  -8.766  13.376  1.00  0.00    -0.063 N 
HETATM    2  H   UNL     1      41.398  -7.814  13.032  1.00  0.00     0.280 HD
HETATM    3  C   UNL     1      42.736  -9.281  12.547  1.00  0.00     0.282 C 
HETATM    4  C   UNL     1      42.328  -9.366  11.115  1.00  0.00     0.018 A 
HETATM    5  C   UNL     1      41.019  -9.393  10.668  1.00  0.00    -0.023 A 
HETATM    6  C   UNL     1      40.966  -9.442   9.237  1.00  0.00     0.073 A 
HETATM    7  C   UNL     1      42.221  -9.486   8.680  1.00  0.00     0.088 A 
HETATM    8  N   UNL     1      42.443  -9.531   7.353  1.00  0.00    -0.358 N 
HETATM    9  C   UNL     1      41.351  -9.785   6.438  1.00  0.00     0.219 C 
HETATM   10  N   UNL     1      40.073  -9.480   7.030  1.00  0.00    -0.332 N 
HETATM   11  C   UNL     1      39.807  -9.437   8.367  1.00  0.00     0.256 C 
HETATM   12  O   UNL     1      38.660  -9.372   8.797  1.00  0.00    -0.267 OA
HETATM   13  S   UNL     1      43.458  -9.463   9.848  1.00  0.00    -0.074 SA
HETATM   14  C   UNL     1      39.858  -9.323  11.616  1.00  0.00     0.068 C 
HETATM   15  C   UNL     1      40.297  -9.553  13.076  1.00  0.00     0.240 C 
HETATM   16  H   UNL     1      43.365  -9.766   6.995  1.00  0.00     0.162 HD
HETATM   17  H   UNL     1      39.259  -9.535   6.435  1.00  0.00     0.165 HD
ENDROOT
BRANCH   9  18
HETATM   18  C   UNL     1      41.404 -11.202   5.903  1.00  0.00    -0.016 A 
HETATM   19  C   UNL     1      40.269 -12.029   5.865  1.00  0.00     0.014 A 
HETATM   20  C   UNL     1      40.334 -13.326   5.340  1.00  0.00     0.037 A 
HETATM   21  C   UNL     1      41.539 -13.818   4.841  1.00  0.00     0.069 A 
HETATM   22  C   UNL     1      42.678 -13.017   4.899  1.00  0.00     0.037 A 
HETATM   23  C   UNL     1      42.616 -11.722   5.422  1.00  0.00     0.014 A 
BRANCH  21  24
HETATM   24  O   UNL     1      41.738 -15.051   4.286  1.00  0.00    -0.347 OA
BRANCH  24  25
HETATM   25  C   UNL     1      42.871 -15.206   3.434  1.00  0.00     0.214 C 
BRANCH  25  26
HETATM   26  C   UNL     1      43.237 -16.669   3.395  1.00  0.00    -0.034 A 
HETATM   27  C   UNL     1      42.889 -17.457   2.289  1.00  0.00     0.009 A 
HETATM   28  C   UNL     1      43.220 -18.813   2.253  1.00  0.00     0.001 A 
HETATM   29  C   UNL     1      43.898 -19.394   3.324  1.00  0.00     0.000 A 
HETATM   30  C   UNL     1      44.240 -18.623   4.432  1.00  0.00     0.001 A 
HETATM   31  C   UNL     1      43.910 -17.267   4.470  1.00  0.00     0.009 A 
ENDBRANCH  25  26
ENDBRANCH  24  25
ENDBRANCH  21  24
ENDBRANCH   9  18
BRANCH   1  32
HETATM   32  C   UNL     1      41.882  -8.612  14.841  1.00  0.00     0.273 C 
BRANCH  32  33
HETATM   33  C   UNL     1      41.051  -7.605  15.587  1.00  0.00    -0.033 A 
HETATM   34  C   UNL     1      40.869  -7.724  16.976  1.00  0.00     0.009 A 
HETATM   35  C   UNL     1      40.083  -6.804  17.669  1.00  0.00     0.001 A 
HETATM   36  C   UNL     1      39.475  -5.752  16.988  1.00  0.00     0.000 A 
HETATM   37  C   UNL     1      39.658  -5.614  15.614  1.00  0.00     0.001 A 
HETATM   38  C   UNL     1      40.444  -6.533  14.916  1.00  0.00     0.009 A 
ENDBRANCH  32  33
ENDBRANCH   1  32
TORSDOF 6
ENDMDL
MODEL 6
REMARK VINA RESULT:      -9.4      2.914     11.367
REMARK  6 active torsions:
REMARK  status: ('A' for Active; 'I' for Inactive)
REMARK    1  A    between atoms: C_4  and  C_5 
REMARK    2  A    between atoms: C_5  and  N_6 
REMARK    3  A    between atoms: C_14  and  C_15 
REMARK    4  A    between atoms: C_18  and  O_19 
REMARK    5  A    between atoms: O_19  and  C_20 
REMARK    6  A    between atoms: C_20  and  C_21 
ROOT
HETATM    1  N   UNL     1      41.725 -13.467   5.031  1.00  0.00    -0.063 N 
HETATM    2  H   UNL     1      42.433 -13.082   4.394  1.00  0.00     0.280 HD
HETATM    3  C   UNL     1      40.856 -12.280   5.418  1.00  0.00     0.282 C 
HETATM    4  C   UNL     1      41.676 -11.290   6.173  1.00  0.00     0.018 A 
HETATM    5  C   UNL     1      42.882 -11.572   6.792  1.00  0.00    -0.023 A 
HETATM    6  C   UNL     1      43.434 -10.399   7.401  1.00  0.00     0.073 A 
HETATM    7  C   UNL     1      42.612  -9.308   7.248  1.00  0.00     0.088 A 
HETATM    8  N   UNL     1      42.906  -8.085   7.726  1.00  0.00    -0.358 N 
HETATM    9  C   UNL     1      44.005  -7.906   8.650  1.00  0.00     0.219 C 
HETATM   10  N   UNL     1      44.954  -8.988   8.572  1.00  0.00    -0.332 N 
HETATM   11  C   UNL     1      44.691 -10.243   8.105  1.00  0.00     0.256 C 
HETATM   12  O   UNL     1      45.482 -11.168   8.255  1.00  0.00    -0.267 OA
HETATM   13  S   UNL     1      41.195  -9.672   6.379  1.00  0.00    -0.074 SA
HETATM   14  C   UNL     1      43.495 -12.941   6.741  1.00  0.00     0.068 C 
HETATM   15  C   UNL     1      42.492 -13.999   6.236  1.00  0.00     0.240 C 
HETATM   16  H   UNL     1      42.189  -7.365   7.769  1.00  0.00     0.162 HD
HETATM   17  H   UNL     1      45.803  -8.903   9.111  1.00  0.00     0.165 HD
ENDROOT
BRANCH   9  18
HETATM   18  C   UNL     1      43.502  -7.695  10.064  1.00  0.00    -0.016 A 
HETATM   19  C   UNL     1      42.790  -6.543  10.439  1.00  0.00     0.014 A 
HETATM   20  C   UNL     1      42.308  -6.383  11.745  1.00  0.00     0.037 A 
HETATM   21  C   UNL     1      42.530  -7.374  12.699  1.00  0.00     0.069 A 
HETATM   22  C   UNL     1      43.259  -8.509  12.345  1.00  0.00     0.037 A 
HETATM   23  C   UNL     1      43.740  -8.673  11.043  1.00  0.00     0.014 A 
BRANCH  21  24
HETATM   24  O   UNL     1      42.101  -7.355  13.996  1.00  0.00    -0.347 OA
BRANCH  24  25
HETATM   25  C   UNL     1      40.934  -8.112  14.307  1.00  0.00     0.214 C 
BRANCH  25  26
HETATM   26  C   UNL     1      39.724  -7.265  13.997  1.00  0.00    -0.034 A 
HETATM   27  C   UNL     1      38.898  -7.580  12.908  1.00  0.00     0.009 A 
HETATM   28  C   UNL     1      37.783  -6.794  12.614  1.00  0.00     0.001 A 
HETATM   29  C   UNL     1      37.485  -5.683  13.403  1.00  0.00     0.000 A 
HETATM   30  C   UNL     1      38.303  -5.355  14.481  1.00  0.00     0.001 A 
HETATM   31  C   UNL     1      39.419  -6.140  14.777  1.00  0.00     0.009 A 
ENDBRANCH  25  26
ENDBRANCH  24  25
ENDBRANCH  21  24
ENDBRANCH   9  18
BRANCH   1  32
HETATM   32  C   UNL     1      41.001 -14.519   4.232  1.00  0.00     0.273 C 
BRANCH  32  33
HETATM   33  C   UNL     1      41.870 -15.458   3.443  1.00  0.00    -0.033 A 
HETATM   34  C   UNL     1      42.149 -16.746   3.931  1.00  0.00     0.009 A 
HETATM   35  C   UNL     1      42.971 -17.614   3.212  1.00  0.00     0.001 A 
HETATM   36  C   UNL     1      43.518 -17.210   1.997  1.00  0.00     0.000 A 
HETATM   37  C   UNL     1      43.239 -15.942   1.495  1.00  0.00     0.001 A 
HETATM   38  C   UNL     1      42.418 -15.069   2.211  1.00  0.00     0.009 A 
ENDBRANCH  32  33
ENDBRANCH   1  32
TORSDOF 6
ENDMDL
MODEL 7
REMARK VINA RESULT:      -9.3      3.055      4.527
REMARK  6 active torsions:
REMARK  status: ('A' for Active; 'I' for Inactive)
REMARK    1  A    between atoms: C_4  and  C_5 
REMARK    2  A    between atoms: C_5  and  N_6 
REMARK    3  A    between atoms: C_14  and  C_15 
REMARK    4  A    between atoms: C_18  and  O_19 
REMARK    5  A    between atoms: O_19  and  C_20 
REMARK    6  A    between atoms: C_20  and  C_21 
ROOT
HETATM    1  N   UNL     1      41.015  -6.703  13.705  1.00  0.00    -0.063 N 
HETATM    2  H   UNL     1      41.962  -6.393  13.953  1.00  0.00     0.280 HD
HETATM    3  C   UNL     1      41.117  -8.216  13.579  1.00  0.00     0.282 C 
HETATM    4  C   UNL     1      42.033  -8.559  12.452  1.00  0.00     0.018 A 
HETATM    5  C   UNL     1      42.387  -7.694  11.432  1.00  0.00    -0.023 A 
HETATM    6  C   UNL     1      43.307  -8.316  10.528  1.00  0.00     0.073 A 
HETATM    7  C   UNL     1      43.574  -9.617  10.883  1.00  0.00     0.088 A 
HETATM    8  N   UNL     1      44.412 -10.416  10.197  1.00  0.00    -0.358 N 
HETATM    9  C   UNL     1      44.897 -10.020   8.892  1.00  0.00     0.219 C 
HETATM   10  N   UNL     1      44.803  -8.595   8.695  1.00  0.00    -0.332 N 
HETATM   11  C   UNL     1      43.959  -7.755   9.361  1.00  0.00     0.256 C 
HETATM   12  O   UNL     1      43.786  -6.595   9.004  1.00  0.00    -0.267 OA
HETATM   13  S   UNL     1      42.740 -10.096  12.286  1.00  0.00    -0.074 SA
HETATM   14  C   UNL     1      41.875  -6.285  11.376  1.00  0.00     0.068 C 
HETATM   15  C   UNL     1      40.704  -6.063  12.356  1.00  0.00     0.240 C 
HETATM   16  H   UNL     1      44.423 -11.417  10.372  1.00  0.00     0.162 HD
HETATM   17  H   UNL     1      45.206  -8.214   7.851  1.00  0.00     0.165 HD
ENDROOT
BRANCH   9  18
HETATM   18  C   UNL     1      44.197 -10.792   7.792  1.00  0.00    -0.016 A 
HETATM   19  C   UNL     1      44.747 -11.957   7.232  1.00  0.00     0.014 A 
HETATM   20  C   UNL     1      44.069 -12.672   6.236  1.00  0.00     0.037 A 
HETATM   21  C   UNL     1      42.827 -12.232   5.783  1.00  0.00     0.069 A 
HETATM   22  C   UNL     1      42.284 -11.061   6.312  1.00  0.00     0.037 A 
HETATM   23  C   UNL     1      42.958 -10.346   7.306  1.00  0.00     0.014 A 
BRANCH  21  24
HETATM   24  O   UNL     1      42.053 -12.840   4.835  1.00  0.00    -0.347 OA
BRANCH  24  25
HETATM   25  C   UNL     1      42.580 -12.910   3.512  1.00  0.00     0.214 C 
BRANCH  25  26
HETATM   26  C   UNL     1      42.668 -14.362   3.113  1.00  0.00    -0.034 A 
HETATM   27  C   UNL     1      42.178 -15.362   3.964  1.00  0.00     0.009 A 
HETATM   28  C   UNL     1      42.266 -16.707   3.601  1.00  0.00     0.001 A 
HETATM   29  C   UNL     1      42.849 -17.065   2.386  1.00  0.00     0.000 A 
HETATM   30  C   UNL     1      43.349 -16.081   1.537  1.00  0.00     0.001 A 
HETATM   31  C   UNL     1      43.262 -14.735   1.898  1.00  0.00     0.009 A 
ENDBRANCH  25  26
ENDBRANCH  24  25
ENDBRANCH  21  24
ENDBRANCH   9  18
BRANCH   1  32
HETATM   32  C   UNL     1      40.135  -6.244  14.837  1.00  0.00     0.273 C 
BRANCH  32  33
HETATM   33  C   UNL     1      40.583  -6.636  16.217  1.00  0.00    -0.033 A 
HETATM   34  C   UNL     1      39.645  -7.058  17.175  1.00  0.00     0.009 A 
HETATM   35  C   UNL     1      40.054  -7.403  18.463  1.00  0.00     0.001 A 
HETATM   36  C   UNL     1      41.401  -7.339  18.809  1.00  0.00     0.000 A 
HETATM   37  C   UNL     1      42.343  -6.936  17.865  1.00  0.00     0.001 A 
HETATM   38  C   UNL     1      41.939  -6.588  16.575  1.00  0.00     0.009 A 
ENDBRANCH  32  33
ENDBRANCH   1  32
TORSDOF 6
ENDMDL
MODEL 8
REMARK VINA RESULT:      -9.3      4.713      6.493
REMARK  6 active torsions:
REMARK  status: ('A' for Active; 'I' for Inactive)
REMARK    1  A    between atoms: C_4  and  C_5 
REMARK    2  A    between atoms: C_5  and  N_6 
REMARK    3  A    between atoms: C_14  and  C_15 
REMARK    4  A    between atoms: C_18  and  O_19 
REMARK    5  A    between atoms: O_19  and  C_20 
REMARK    6  A    between atoms: C_20  and  C_21 
ROOT
HETATM    1  N   UNL     1      43.888  -9.819   7.984  1.00  0.00    -0.063 N 
HETATM    2  H   UNL     1      43.561 -10.429   8.743  1.00  0.00     0.280 HD
HETATM    3  C   UNL     1      42.649  -9.529   7.149  1.00  0.00     0.282 C 
HETATM    4  C   UNL     1      42.149 -10.799   6.548  1.00  0.00     0.018 A 
HETATM    5  C   UNL     1      42.898 -11.953   6.405  1.00  0.00    -0.023 A 
HETATM    6  C   UNL     1      42.119 -13.004   5.823  1.00  0.00     0.073 A 
HETATM    7  C   UNL     1      40.843 -12.589   5.523  1.00  0.00     0.088 A 
HETATM    8  N   UNL     1      39.912 -13.390   4.973  1.00  0.00    -0.358 N 
HETATM    9  C   UNL     1      40.283 -14.681   4.436  1.00  0.00     0.219 C 
HETATM   10  N   UNL     1      41.526 -15.156   4.991  1.00  0.00    -0.332 N 
HETATM   11  C   UNL     1      42.498 -14.375   5.546  1.00  0.00     0.256 C 
HETATM   12  O   UNL     1      43.610 -14.818   5.812  1.00  0.00    -0.267 OA
HETATM   13  S   UNL     1      40.570 -10.961   5.937  1.00  0.00    -0.074 SA
HETATM   14  C   UNL     1      44.322 -12.035   6.873  1.00  0.00     0.068 C 
HETATM   15  C   UNL     1      44.899 -10.640   7.193  1.00  0.00     0.240 C 
HETATM   16  H   UNL     1      39.060 -12.994   4.585  1.00  0.00     0.162 HD
HETATM   17  H   UNL     1      41.818 -16.091   4.748  1.00  0.00     0.165 HD
ENDROOT
BRANCH   9  18
HETATM   18  C   UNL     1      40.313 -14.655   2.921  1.00  0.00    -0.016 A 
HETATM   19  C   UNL     1      39.885 -15.747   2.147  1.00  0.00     0.014 A 
HETATM   20  C   UNL     1      39.894 -15.690   0.747  1.00  0.00     0.037 A 
HETATM   21  C   UNL     1      40.330 -14.537   0.097  1.00  0.00     0.069 A 
HETATM   22  C   UNL     1      40.782 -13.457   0.854  1.00  0.00     0.037 A 
HETATM   23  C   UNL     1      40.774 -13.511   2.252  1.00  0.00     0.014 A 
BRANCH  21  24
HETATM   24  O   UNL     1      40.372 -14.341  -1.255  1.00  0.00    -0.347 OA
BRANCH  24  25
HETATM   25  C   UNL     1      39.145 -14.475  -1.970  1.00  0.00     0.214 C 
BRANCH  25  26
HETATM   26  C   UNL     1      38.668 -13.097  -2.354  1.00  0.00    -0.034 A 
HETATM   27  C   UNL     1      37.298 -12.794  -2.349  1.00  0.00     0.009 A 
HETATM   28  C   UNL     1      36.853 -11.521  -2.711  1.00  0.00     0.001 A 
HETATM   29  C   UNL     1      37.771 -10.542  -3.086  1.00  0.00     0.000 A 
HETATM   30  C   UNL     1      39.133 -10.834  -3.105  1.00  0.00     0.001 A 
HETATM   31  C   UNL     1      39.580 -12.106  -2.743  1.00  0.00     0.009 A 
ENDBRANCH  25  26
ENDBRANCH  24  25
ENDBRANCH  21  24
ENDBRANCH   9  18
BRANCH   1  32
HETATM   32  C   UNL     1      44.460  -8.604   8.667  1.00  0.00     0.273 C 
BRANCH  32  33
HETATM   33  C   UNL     1      43.821  -8.224   9.973  1.00  0.00    -0.033 A 
HETATM   34  C   UNL     1      43.995  -9.031  11.111  1.00  0.00     0.009 A 
HETATM   35  C   UNL     1      43.388  -8.692  12.319  1.00  0.00     0.001 A 
HETATM   36  C   UNL     1      42.605  -7.544  12.410  1.00  0.00     0.000 A 
HETATM   37  C   UNL     1      42.435  -6.728  11.294  1.00  0.00     0.001 A 
HETATM   38  C   UNL     1      43.040  -7.063  10.082  1.00  0.00     0.009 A 
ENDBRANCH  32  33
ENDBRANCH   1  32
TORSDOF 6
ENDMDL
MODEL 9
REMARK VINA RESULT:      -9.1      5.872      9.199
REMARK  6 active torsions:
REMARK  status: ('A' for Active; 'I' for Inactive)
REMARK    1  A    between atoms: C_4  and  C_5 
REMARK    2  A    between atoms: C_5  and  N_6 
REMARK    3  A    between atoms: C_14  and  C_15 
REMARK    4  A    between atoms: C_18  and  O_19 
REMARK    5  A    between atoms: O_19  and  C_20 
REMARK    6  A    between atoms: C_20  and  C_21 
ROOT
HETATM    1  N   UNL     1      40.891  -9.954  -1.731  1.00  0.00    -0.063 N 
HETATM    2  H   UNL     1      40.076  -9.426  -1.396  1.00  0.00     0.280 HD
HETATM    3  C   UNL     1      40.508 -11.417  -1.560  1.00  0.00     0.282 C 
HETATM    4  C   UNL     1      40.321 -11.714  -0.110  1.00  0.00     0.018 A 
HETATM    5  C   UNL     1      40.818 -10.941   0.924  1.00  0.00    -0.023 A 
HETATM    6  C   UNL     1      40.435 -11.476   2.196  1.00  0.00     0.073 A 
HETATM    7  C   UNL     1      39.708 -12.635   2.065  1.00  0.00     0.088 A 
HETATM    8  N   UNL     1      39.225 -13.331   3.112  1.00  0.00    -0.358 N 
HETATM    9  C   UNL     1      39.661 -13.024   4.457  1.00  0.00     0.219 C 
HETATM   10  N   UNL     1      40.194 -11.688   4.556  1.00  0.00    -0.332 N 
HETATM   11  C   UNL     1      40.702 -10.957   3.523  1.00  0.00     0.256 C 
HETATM   12  O   UNL     1      41.322  -9.915   3.710  1.00  0.00    -0.267 OA
HETATM   13  S   UNL     1      39.474 -13.081   0.440  1.00  0.00    -0.074 SA
HETATM   14  C   UNL     1      41.601  -9.687   0.668  1.00  0.00     0.068 C 
HETATM   15  C   UNL     1      42.042  -9.579  -0.806  1.00  0.00     0.240 C 
HETATM   16  H   UNL     1      38.874 -14.276   2.981  1.00  0.00     0.162 HD
HETATM   17  H   UNL     1      40.436 -11.350   5.476  1.00  0.00     0.165 HD
ENDROOT
BRANCH   9  18
HETATM   18  C   UNL     1      40.639 -14.063   4.966  1.00  0.00    -0.016 A 
HETATM   19  C   UNL     1      40.335 -14.908   6.047  1.00  0.00     0.014 A 
HETATM   20  C   UNL     1      41.241 -15.883   6.482  1.00  0.00     0.037 A 
HETATM   21  C   UNL     1      42.471 -16.030   5.842  1.00  0.00     0.069 A 
HETATM   22  C   UNL     1      42.794 -15.179   4.785  1.00  0.00     0.037 A 
HETATM   23  C   UNL     1      41.891 -14.206   4.348  1.00  0.00     0.014 A 
BRANCH  21  24
HETATM   24  O   UNL     1      43.435 -16.947   6.150  1.00  0.00    -0.347 OA
BRANCH  24  25
HETATM   25  C   UNL     1      44.478 -17.140   5.196  1.00  0.00     0.214 C 
BRANCH  25  26
HETATM   26  C   UNL     1      44.171 -18.387   4.404  1.00  0.00    -0.034 A 
HETATM   27  C   UNL     1      43.779 -18.294   3.060  1.00  0.00     0.009 A 
HETATM   28  C   UNL     1      43.487 -19.445   2.327  1.00  0.00     0.001 A 
HETATM   29  C   UNL     1      43.578 -20.699   2.931  1.00  0.00     0.000 A 
HETATM   30  C   UNL     1      43.956 -20.802   4.267  1.00  0.00     0.001 A 
HETATM   31  C   UNL     1      44.249 -19.652   5.003  1.00  0.00     0.009 A 
ENDBRANCH  25  26
ENDBRANCH  24  25
ENDBRANCH  21  24
ENDBRANCH   9  18
BRANCH   1  32
HETATM   32  C   UNL     1      41.075  -9.536  -3.166  1.00  0.00     0.273 C 
BRANCH  32  33
HETATM   33  C   UNL     1      41.323  -8.071  -3.397  1.00  0.00    -0.033 A 
HETATM   34  C   UNL     1      40.433  -7.111  -2.885  1.00  0.00     0.009 A 
HETATM   35  C   UNL     1      40.649  -5.752  -3.114  1.00  0.00     0.001 A 
HETATM   36  C   UNL     1      41.755  -5.335  -3.850  1.00  0.00     0.000 A 
HETATM   37  C   UNL     1      42.651  -6.275  -4.352  1.00  0.00     0.001 A 
HETATM   38  C   UNL     1      42.440  -7.636  -4.126  1.00  0.00     0.009 A 
ENDBRANCH  32  33
ENDBRANCH   1  32
TORSDOF 6
ENDMDL
MODEL 10
REMARK VINA RESULT:      -9.1      6.951      8.619
REMARK  6 active torsions:
REMARK  status: ('A' for Active; 'I' for Inactive)
REMARK    1  A    between atoms: C_4  and  C_5 
REMARK    2  A    between atoms: C_5  and  N_6 
REMARK    3  A    between atoms: C_14  and  C_15 
REMARK    4  A    between atoms: C_18  and  O_19 
REMARK    5  A    between atoms: O_19  and  C_20 
REMARK    6  A    between atoms: C_20  and  C_21 
ROOT
HETATM    1  N   UNL     1      40.389  -8.460  -1.339  1.00  0.00    -0.063 N 
HETATM    2  H   UNL     1      39.394  -8.643  -1.514  1.00  0.00     0.280 HD
HETATM    3  C   UNL     1      41.092  -9.774  -1.645  1.00  0.00     0.282 C 
HETATM    4  C   UNL     1      40.631 -10.819  -0.685  1.00  0.00     0.018 A 
HETATM    5  C   UNL     1      40.017 -10.560   0.527  1.00  0.00    -0.023 A 
HETATM    6  C   UNL     1      39.666 -11.777   1.196  1.00  0.00     0.073 A 
HETATM    7  C   UNL     1      40.060 -12.884   0.484  1.00  0.00     0.088 A 
HETATM    8  N   UNL     1      39.843 -14.147   0.894  1.00  0.00    -0.358 N 
HETATM    9  C   UNL     1      39.393 -14.409   2.245  1.00  0.00     0.219 C 
HETATM   10  N   UNL     1      38.769 -13.252   2.837  1.00  0.00    -0.332 N 
HETATM   11  C   UNL     1      38.973 -11.958   2.456  1.00  0.00     0.256 C 
HETATM   12  O   UNL     1      38.572 -11.015   3.129  1.00  0.00    -0.267 OA
HETATM   13  S   UNL     1      40.837 -12.481  -0.976  1.00  0.00    -0.074 SA
HETATM   14  C   UNL     1      39.739  -9.159   0.990  1.00  0.00     0.068 C 
HETATM   15  C   UNL     1      40.496  -8.116   0.143  1.00  0.00     0.240 C 
HETATM   16  H   UNL     1      40.324 -14.922   0.445  1.00  0.00     0.162 HD
HETATM   17  H   UNL     1      38.339 -13.367   3.743  1.00  0.00     0.165 HD
ENDROOT
BRANCH   9  18
HETATM   18  C   UNL     1      40.522 -14.946   3.103  1.00  0.00    -0.016 A 
HETATM   19  C   UNL     1      41.760 -14.289   3.204  1.00  0.00     0.014 A 
HETATM   20  C   UNL     1      42.779 -14.786   4.026  1.00  0.00     0.037 A 
HETATM   21  C   UNL     1      42.576 -15.952   4.763  1.00  0.00     0.069 A 
HETATM   22  C   UNL     1      41.361 -16.627   4.649  1.00  0.00     0.037 A 
HETATM   23  C   UNL     1      40.342 -16.132   3.830  1.00  0.00     0.014 A 
BRANCH  21  24
HETATM   24  O   UNL     1      43.473 -16.533   5.614  1.00  0.00    -0.347 OA
BRANCH  24  25
HETATM   25  C   UNL     1      44.659 -17.076   5.037  1.00  0.00     0.214 C 
BRANCH  25  26
HETATM   26  C   UNL     1      44.316 -18.404   4.409  1.00  0.00    -0.034 A 
HETATM   27  C   UNL     1      44.112 -18.503   3.025  1.00  0.00     0.009 A 
HETATM   28  C   UNL     1      43.786 -19.729   2.443  1.00  0.00     0.001 A 
HETATM   29  C   UNL     1      43.657 -20.867   3.238  1.00  0.00     0.000 A 
HETATM   30  C   UNL     1      43.847 -20.778   4.616  1.00  0.00     0.001 A 
HETATM   31  C   UNL     1      44.173 -19.553   5.200  1.00  0.00     0.009 A 
ENDBRANCH  25  26
ENDBRANCH  24  25
ENDBRANCH  21  24
ENDBRANCH   9  18
BRANCH   1  32
HETATM   32  C   UNL     1      40.759  -7.338  -2.273  1.00  0.00     0.273 C 
BRANCH  32  33
HETATM   33  C   UNL     1      41.932  -6.496  -1.855  1.00  0.00    -0.033 A 
HETATM   34  C   UNL     1      43.236  -7.017  -1.910  1.00  0.00     0.009 A 
HETATM   35  C   UNL     1      44.325  -6.246  -1.505  1.00  0.00     0.001 A 
HETATM   36  C   UNL     1      44.128  -4.946  -1.045  1.00  0.00     0.000 A 
HETATM   37  C   UNL     1      42.843  -4.413  -0.997  1.00  0.00     0.001 A 
HETATM   38  C   UNL     1      41.749  -5.181  -1.402  1.00  0.00     0.009 A 
ENDBRANCH  32  33
ENDBRANCH   1  32
TORSDOF 6
ENDMDL
