MODEL 1
REMARK VINA RESULT:     -10.5      0.000      0.000
REMARK  4 active torsions:
REMARK  status: ('A' for Active; 'I' for Inactive)
REMARK    1  A    between atoms: N_5  and  C_6 
REMARK    2  A    between atoms: C_6  and  C_7 
REMARK    3  A    between atoms: C_7  and  C_8 
REMARK    4  A    between atoms: C_8  and  N_9 
ROOT
HETATM    1  C   UNL     1      39.772 -15.104   1.870  1.00  0.00     0.236 C 
ENDROOT
BRANCH   1   2
HETATM    2  C   UNL     1      41.071 -15.819   2.241  1.00  0.00     0.048 C 
BRANCH   2   3
HETATM    3  C   UNL     1      41.003 -16.257   3.716  1.00  0.00     0.131 C 
BRANCH   3   4
HETATM    4  N   UNL     1      42.339 -16.268   4.338  1.00  0.00    -0.346 N 
HETATM    5  C   UNL     1      42.806 -15.063   4.925  1.00  0.00     0.041 A 
HETATM    6  C   UNL     1      43.616 -15.001   6.079  1.00  0.00    -0.031 A 
HETATM    7  C   UNL     1      42.526 -13.830   4.286  1.00  0.00     0.030 A 
HETATM    8  C   UNL     1      44.063 -13.743   6.558  1.00  0.00     0.009 A 
HETATM    9  C   UNL     1      44.116 -16.186   6.878  1.00  0.00     0.045 C 
HETATM   10  C   UNL     1      43.726 -12.552   5.927  1.00  0.00     0.001 A 
HETATM   11  C   UNL     1      42.959 -12.596   4.780  1.00  0.00     0.002 A 
HETATM   12  C   UNL     1      43.265 -17.444   6.834  1.00  0.00     0.045 C 
HETATM   13  C   UNL     1      43.422 -18.145   5.514  1.00  0.00    -0.031 A 
HETATM   14  C   UNL     1      42.977 -17.531   4.333  1.00  0.00     0.042 A 
HETATM   15  C   UNL     1      44.032 -19.413   5.471  1.00  0.00     0.011 A 
HETATM   16  C   UNL     1      43.167 -18.220   3.121  1.00  0.00     0.054 A 
HETATM   17  C   UNL     1      43.746 -19.489   3.090  1.00  0.00     0.036 A 
HETATM   18 CL   UNL     1      43.865 -20.332   1.597  1.00  0.00    -0.084 Cl
HETATM   19  C   UNL     1      44.187 -20.088   4.262  1.00  0.00     0.024 A 
ENDBRANCH   3   4
ENDBRANCH   2   3
ENDBRANCH   1   2
BRANCH   1  20
HETATM   20  N   UNL     1      39.936 -13.973   0.832  1.00  0.00    -0.071 N 
HETATM   21  H   UNL     1      40.937 -13.741   0.933  1.00  0.00     0.279 HD
HETATM   22  C   UNL     1      39.171 -12.699   1.092  1.00  0.00     0.238 C 
HETATM   23  C   UNL     1      38.597 -12.031  -0.153  1.00  0.00     0.077 C 
HETATM   24  C   UNL     1      39.343 -12.240  -1.478  1.00  0.00     0.212 C 
HETATM   25  N   UNL     1      40.154 -11.023  -1.930  1.00  0.00    -0.032 N 
HETATM   26  C   UNL     1      38.283 -12.297  -2.598  1.00  0.00     0.256 C 
HETATM   27  C   UNL     1      40.217 -13.491  -1.549  1.00  0.00     0.077 C 
HETATM   28  H   UNL     1      40.752 -11.367  -2.697  1.00  0.00     0.283 HD
HETATM   29  C   UNL     1      39.184 -10.149  -2.668  1.00  0.00     0.290 C 
HETATM   30  C   UNL     1      41.042 -10.260  -1.008  1.00  0.00     0.239 C 
HETATM   31  C   UNL     1      39.966  -9.202  -3.562  1.00  0.00     0.055 C 
HETATM   32  N   UNL     1      38.389 -11.122  -3.321  1.00  0.00    -0.331 N 
HETATM   33  C   UNL     1      40.971  -8.393  -2.730  1.00  0.00     0.005 C 
HETATM   34  C   UNL     1      41.857  -9.282  -1.851  1.00  0.00     0.028 C 
HETATM   35  H   UNL     1      37.657 -10.895  -3.994  1.00  0.00     0.164 HD
HETATM   36  O   UNL     1      37.506 -13.210  -2.794  1.00  0.00    -0.271 OA
HETATM   37  C   UNL     1      39.743 -14.537  -0.560  1.00  0.00     0.238 C 
ENDBRANCH   1  20
TORSDOF 4
ENDMDL
MODEL 2
REMARK VINA RESULT:     -10.3      1.390      2.124
REMARK  4 active torsions:
REMARK  status: ('A' for Active; 'I' for Inactive)
REMARK    1  A    between atoms: N_5  and  C_6 
REMARK    2  A    between atoms: C_6  and  C_7 
REMARK    3  A    between atoms: C_7  and  C_8 
REMARK    4  A    between atoms: C_8  and  N_9 
ROOT
HETATM    1  C   UNL     1      39.765 -15.586   1.691  1.00  0.00     0.236 C 
ENDROOT
BRANCH   1   2
HETATM    2  C   UNL     1      41.172 -15.765   2.258  1.00  0.00     0.048 C 
BRANCH   2   3
HETATM    3  C   UNL     1      41.072 -16.214   3.727  1.00  0.00     0.131 C 
BRANCH   3   4
HETATM    4  N   UNL     1      42.397 -16.253   4.372  1.00  0.00    -0.346 N 
HETATM    5  C   UNL     1      42.872 -15.062   4.980  1.00  0.00     0.041 A 
HETATM    6  C   UNL     1      43.662 -15.025   6.149  1.00  0.00    -0.031 A 
HETATM    7  C   UNL     1      42.621 -13.818   4.351  1.00  0.00     0.030 A 
HETATM    8  C   UNL     1      44.120 -13.779   6.650  1.00  0.00     0.009 A 
HETATM    9  C   UNL     1      44.130 -16.225   6.943  1.00  0.00     0.045 C 
HETATM   10  C   UNL     1      43.812 -12.576   6.026  1.00  0.00     0.001 A 
HETATM   11  C   UNL     1      43.064 -12.595   4.865  1.00  0.00     0.002 A 
HETATM   12  C   UNL     1      43.260 -17.470   6.871  1.00  0.00     0.045 C 
HETATM   13  C   UNL     1      43.430 -18.159   5.546  1.00  0.00    -0.031 A 
HETATM   14  C   UNL     1      43.015 -17.525   4.364  1.00  0.00     0.042 A 
HETATM   15  C   UNL     1      44.021 -19.436   5.500  1.00  0.00     0.011 A 
HETATM   16  C   UNL     1      43.216 -18.204   3.148  1.00  0.00     0.054 A 
HETATM   17  C   UNL     1      43.776 -19.481   3.114  1.00  0.00     0.036 A 
HETATM   18 CL   UNL     1      43.908 -20.310   1.613  1.00  0.00    -0.084 Cl
HETATM   19  C   UNL     1      44.187 -20.100   4.286  1.00  0.00     0.024 A 
ENDBRANCH   3   4
ENDBRANCH   2   3
ENDBRANCH   1   2
BRANCH   1  20
HETATM   20  N   UNL     1      39.562 -14.293   0.872  1.00  0.00    -0.071 N 
HETATM   21  H   UNL     1      38.555 -14.343   0.649  1.00  0.00     0.279 HD
HETATM   22  C   UNL     1      40.291 -14.204  -0.445  1.00  0.00     0.238 C 
HETATM   23  C   UNL     1      40.839 -12.821  -0.782  1.00  0.00     0.077 C 
HETATM   24  C   UNL     1      40.093 -11.605  -0.217  1.00  0.00     0.212 C 
HETATM   25  N   UNL     1      39.244 -10.863  -1.253  1.00  0.00    -0.032 N 
HETATM   26  C   UNL     1      41.148 -10.525   0.101  1.00  0.00     0.256 C 
HETATM   27  C   UNL     1      39.255 -11.872   1.032  1.00  0.00     0.077 C 
HETATM   28  H   UNL     1      38.653 -10.219  -0.705  1.00  0.00     0.283 HD
HETATM   29  C   UNL     1      40.185  -9.911  -1.930  1.00  0.00     0.290 C 
HETATM   30  C   UNL     1      38.339 -11.567  -2.205  1.00  0.00     0.239 C 
HETATM   31  C   UNL     1      39.370  -8.813  -2.592  1.00  0.00     0.055 C 
HETATM   32  N   UNL     1      41.005  -9.523  -0.843  1.00  0.00    -0.331 N 
HETATM   33  C   UNL     1      38.347  -9.418  -3.562  1.00  0.00     0.005 C 
HETATM   34  C   UNL     1      37.492 -10.510  -2.908  1.00  0.00     0.028 C 
HETATM   35  H   UNL     1      41.725  -8.805  -0.908  1.00  0.00     0.164 HD
HETATM   36  O   UNL     1      41.950 -10.562   1.012  1.00  0.00    -0.271 OA
HETATM   37  C   UNL     1      39.765 -13.092   1.773  1.00  0.00     0.238 C 
ENDBRANCH   1  20
TORSDOF 4
ENDMDL
MODEL 3
REMARK VINA RESULT:     -10.2      5.187      8.647
REMARK  4 active torsions:
REMARK  status: ('A' for Active; 'I' for Inactive)
REMARK    1  A    between atoms: N_5  and  C_6 
REMARK    2  A    between atoms: C_6  and  C_7 
REMARK    3  A    between atoms: C_7  and  C_8 
REMARK    4  A    between atoms: C_8  and  N_9 
ROOT
HETATM    1  C   UNL     1      44.355 -12.497   6.728  1.00  0.00     0.236 C 
ENDROOT
BRANCH   1   2
HETATM    2  C   UNL     1      43.514 -13.008   5.559  1.00  0.00     0.048 C 
BRANCH   2   3
HETATM    3  C   UNL     1      43.009 -14.426   5.880  1.00  0.00     0.131 C 
BRANCH   3   4
HETATM    4  N   UNL     1      42.331 -15.034   4.721  1.00  0.00    -0.346 N 
HETATM    5  C   UNL     1      41.307 -14.283   4.086  1.00  0.00     0.041 A 
HETATM    6  C   UNL     1      41.047 -14.308   2.699  1.00  0.00    -0.031 A 
HETATM    7  C   UNL     1      40.423 -13.513   4.879  1.00  0.00     0.030 A 
HETATM    8  C   UNL     1      39.970 -13.550   2.172  1.00  0.00     0.009 A 
HETATM    9  C   UNL     1      41.799 -15.122   1.668  1.00  0.00     0.045 C 
HETATM   10  C   UNL     1      39.153 -12.770   2.980  1.00  0.00     0.001 A 
HETATM   11  C   UNL     1      39.375 -12.756   4.343  1.00  0.00     0.002 A 
HETATM   12  C   UNL     1      43.245 -15.461   1.992  1.00  0.00     0.045 C 
HETATM   13  C   UNL     1      43.315 -16.540   3.036  1.00  0.00    -0.031 A 
HETATM   14  C   UNL     1      42.845 -16.294   4.335  1.00  0.00     0.042 A 
HETATM   15  C   UNL     1      43.841 -17.800   2.696  1.00  0.00     0.011 A 
HETATM   16  C   UNL     1      42.915 -17.344   5.270  1.00  0.00     0.054 A 
HETATM   17  C   UNL     1      43.463 -18.581   4.932  1.00  0.00     0.036 A 
HETATM   18 CL   UNL     1      43.618 -19.798   6.137  1.00  0.00    -0.084 Cl
HETATM   19  C   UNL     1      43.923 -18.817   3.645  1.00  0.00     0.024 A 
ENDBRANCH   3   4
ENDBRANCH   2   3
ENDBRANCH   1   2
BRANCH   1  20
HETATM   20  N   UNL     1      43.645 -11.458   7.622  1.00  0.00    -0.071 N 
HETATM   21  H   UNL     1      43.105 -12.065   8.259  1.00  0.00     0.279 HD
HETATM   22  C   UNL     1      42.648 -10.550   6.946  1.00  0.00     0.238 C 
HETATM   23  C   UNL     1      42.642  -9.112   7.454  1.00  0.00     0.077 C 
HETATM   24  C   UNL     1      43.051  -8.875   8.914  1.00  0.00     0.212 C 
HETATM   25  N   UNL     1      41.875  -8.577   9.847  1.00  0.00    -0.032 N 
HETATM   26  C   UNL     1      43.796  -7.524   8.968  1.00  0.00     0.256 C 
HETATM   27  C   UNL     1      43.932  -9.959   9.533  1.00  0.00     0.077 C 
HETATM   28  H   UNL     1      42.262  -8.647  10.800  1.00  0.00     0.283 HD
HETATM   29  C   UNL     1      41.633  -7.102   9.725  1.00  0.00     0.290 C 
HETATM   30  C   UNL     1      40.618  -9.378   9.838  1.00  0.00     0.239 C 
HETATM   31  C   UNL     1      40.854  -6.635  10.942  1.00  0.00     0.055 C 
HETATM   32  N   UNL     1      42.958  -6.621   9.599  1.00  0.00    -0.331 N 
HETATM   33  C   UNL     1      39.552  -7.435  11.081  1.00  0.00     0.005 C 
HETATM   34  C   UNL     1      39.785  -8.949  11.044  1.00  0.00     0.028 C 
HETATM   35  H   UNL     1      43.200  -5.630   9.575  1.00  0.00     0.164 HD
HETATM   36  O   UNL     1      44.909  -7.309   8.533  1.00  0.00    -0.271 OA
HETATM   37  C   UNL     1      44.675 -10.729   8.460  1.00  0.00     0.238 C 
ENDBRANCH   1  20
TORSDOF 4
ENDMDL
MODEL 4
REMARK VINA RESULT:     -10.2      3.354      9.860
REMARK  4 active torsions:
REMARK  status: ('A' for Active; 'I' for Inactive)
REMARK    1  A    between atoms: N_5  and  C_6 
REMARK    2  A    between atoms: C_6  and  C_7 
REMARK    3  A    between atoms: C_7  and  C_8 
REMARK    4  A    between atoms: C_8  and  N_9 
ROOT
HETATM    1  C   UNL     1      40.080 -13.447   1.817  1.00  0.00     0.236 C 
ENDROOT
BRANCH   1   2
HETATM    2  C   UNL     1      40.850 -12.195   1.402  1.00  0.00     0.048 C 
BRANCH   2   3
HETATM    3  C   UNL     1      41.323 -12.351  -0.055  1.00  0.00     0.131 C 
BRANCH   3   4
HETATM    4  N   UNL     1      40.387 -11.713  -0.998  1.00  0.00    -0.346 N 
HETATM    5  C   UNL     1      39.474 -12.550  -1.691  1.00  0.00     0.041 A 
HETATM    6  C   UNL     1      38.158 -12.176  -2.040  1.00  0.00    -0.031 A 
HETATM    7  C   UNL     1      39.909 -13.819  -2.146  1.00  0.00     0.030 A 
HETATM    8  C   UNL     1      37.341 -13.075  -2.771  1.00  0.00     0.009 A 
HETATM    9  C   UNL     1      37.505 -10.844  -1.740  1.00  0.00     0.045 C 
HETATM   10  C   UNL     1      37.792 -14.331  -3.159  1.00  0.00     0.001 A 
HETATM   11  C   UNL     1      39.086 -14.703  -2.852  1.00  0.00     0.002 A 
HETATM   12  C   UNL     1      38.017 -10.094  -0.521  1.00  0.00     0.045 C 
HETATM   13  C   UNL     1      39.360  -9.480  -0.802  1.00  0.00    -0.031 A 
HETATM   14  C   UNL     1      40.472 -10.302  -1.045  1.00  0.00     0.042 A 
HETATM   15  C   UNL     1      39.489  -8.079  -0.834  1.00  0.00     0.011 A 
HETATM   16  C   UNL     1      41.703  -9.678  -1.322  1.00  0.00     0.054 A 
HETATM   17  C   UNL     1      41.828  -8.289  -1.324  1.00  0.00     0.036 A 
HETATM   18 CL   UNL     1      43.374  -7.577  -1.570  1.00  0.00    -0.084 Cl
HETATM   19  C   UNL     1      40.723  -7.484  -1.087  1.00  0.00     0.024 A 
ENDBRANCH   3   4
ENDBRANCH   2   3
ENDBRANCH   1   2
BRANCH   1  20
HETATM   20  N   UNL     1      40.969 -14.650   2.199  1.00  0.00    -0.071 N 
HETATM   21  H   UNL     1      41.150 -15.077   1.277  1.00  0.00     0.279 HD
HETATM   22  C   UNL     1      40.332 -15.719   3.051  1.00  0.00     0.238 C 
HETATM   23  C   UNL     1      41.250 -16.330   4.106  1.00  0.00     0.077 C 
HETATM   24  C   UNL     1      42.754 -16.363   3.804  1.00  0.00     0.212 C 
HETATM   25  N   UNL     1      43.276 -17.747   3.411  1.00  0.00    -0.032 N 
HETATM   26  C   UNL     1      43.495 -16.157   5.141  1.00  0.00     0.256 C 
HETATM   27  C   UNL     1      43.243 -15.327   2.794  1.00  0.00     0.077 C 
HETATM   28  H   UNL     1      44.225 -17.582   3.042  1.00  0.00     0.283 HD
HETATM   29  C   UNL     1      43.569 -18.445   4.706  1.00  0.00     0.290 C 
HETATM   30  C   UNL     1      42.581 -18.619   2.422  1.00  0.00     0.239 C 
HETATM   31  C   UNL     1      44.533 -19.587   4.435  1.00  0.00     0.055 C 
HETATM   32  N   UNL     1      44.064 -17.371   5.485  1.00  0.00    -0.331 N 
HETATM   33  C   UNL     1      43.954 -20.534   3.375  1.00  0.00     0.005 C 
HETATM   34  C   UNL     1      43.503 -19.794   2.110  1.00  0.00     0.028 C 
HETATM   35  H   UNL     1      44.449 -17.483   6.422  1.00  0.00     0.164 HD
HETATM   36  O   UNL     1      43.558 -15.117   5.766  1.00  0.00    -0.271 OA
HETATM   37  C   UNL     1      42.295 -14.145   2.730  1.00  0.00     0.238 C 
ENDBRANCH   1  20
TORSDOF 4
ENDMDL
MODEL 5
REMARK VINA RESULT:     -10.1      5.184      9.144
REMARK  4 active torsions:
REMARK  status: ('A' for Active; 'I' for Inactive)
REMARK    1  A    between atoms: N_5  and  C_6 
REMARK    2  A    between atoms: C_6  and  C_7 
REMARK    3  A    between atoms: C_7  and  C_8 
REMARK    4  A    between atoms: C_8  and  N_9 
ROOT
HETATM    1  C   UNL     1      40.625  -9.901   5.220  1.00  0.00     0.236 C 
ENDROOT
BRANCH   1   2
HETATM    2  C   UNL     1      41.153  -9.061   6.381  1.00  0.00     0.048 C 
BRANCH   2   3
HETATM    3  C   UNL     1      41.202  -9.928   7.652  1.00  0.00     0.131 C 
BRANCH   3   4
HETATM    4  N   UNL     1      42.337  -9.557   8.517  1.00  0.00    -0.346 N 
HETATM    5  C   UNL     1      43.639  -9.935   8.097  1.00  0.00     0.041 A 
HETATM    6  C   UNL     1      44.802  -9.167   8.322  1.00  0.00    -0.031 A 
HETATM    7  C   UNL     1      43.827 -11.196   7.481  1.00  0.00     0.030 A 
HETATM    8  C   UNL     1      46.062  -9.659   7.897  1.00  0.00     0.009 A 
HETATM    9  C   UNL     1      44.861  -7.833   9.035  1.00  0.00     0.045 C 
HETATM   10  C   UNL     1      46.197 -10.883   7.254  1.00  0.00     0.001 A 
HETATM   11  C   UNL     1      45.074 -11.661   7.051  1.00  0.00     0.002 A 
HETATM   12  C   UNL     1      43.604  -6.981   8.989  1.00  0.00     0.045 C 
HETATM   13  C   UNL     1      42.553  -7.535   9.910  1.00  0.00    -0.031 A 
HETATM   14  C   UNL     1      41.983  -8.791   9.652  1.00  0.00     0.042 A 
HETATM   15  C   UNL     1      42.159  -6.792  11.038  1.00  0.00     0.011 A 
HETATM   16  C   UNL     1      41.018  -9.274  10.556  1.00  0.00     0.054 A 
HETATM   17  C   UNL     1      40.613  -8.519  11.656  1.00  0.00     0.036 A 
HETATM   18 CL   UNL     1      39.359  -9.108  12.675  1.00  0.00    -0.084 Cl
HETATM   19  C   UNL     1      41.184  -7.279  11.906  1.00  0.00     0.024 A 
ENDBRANCH   3   4
ENDBRANCH   2   3
ENDBRANCH   1   2
BRANCH   1  20
HETATM   20  N   UNL     1      41.125 -11.362   5.205  1.00  0.00    -0.071 N 
HETATM   21  H   UNL     1      41.469 -11.474   6.172  1.00  0.00     0.279 HD
HETATM   22  C   UNL     1      42.288 -11.670   4.296  1.00  0.00     0.238 C 
HETATM   23  C   UNL     1      42.216 -13.026   3.600  1.00  0.00     0.077 C 
HETATM   24  C   UNL     1      41.465 -14.154   4.321  1.00  0.00     0.212 C 
HETATM   25  N   UNL     1      42.383 -15.200   4.957  1.00  0.00    -0.032 N 
HETATM   26  C   UNL     1      40.776 -15.011   3.239  1.00  0.00     0.256 C 
HETATM   27  C   UNL     1      40.423 -13.701   5.342  1.00  0.00     0.077 C 
HETATM   28  H   UNL     1      41.769 -15.763   5.567  1.00  0.00     0.283 HD
HETATM   29  C   UNL     1      42.697 -16.175   3.860  1.00  0.00     0.290 C 
HETATM   30  C   UNL     1      43.575 -14.836   5.773  1.00  0.00     0.239 C 
HETATM   31  C   UNL     1      43.165 -17.477   4.487  1.00  0.00     0.055 C 
HETATM   32  N   UNL     1      41.461 -16.212   3.171  1.00  0.00    -0.331 N 
HETATM   33  C   UNL     1      44.364 -17.224   5.410  1.00  0.00     0.005 C 
HETATM   34  C   UNL     1      44.097 -16.112   6.430  1.00  0.00     0.028 C 
HETATM   35  H   UNL     1      41.266 -16.844   2.395  1.00  0.00     0.164 HD
HETATM   36  O   UNL     1      39.814 -14.680   2.576  1.00  0.00    -0.271 OA
HETATM   37  C   UNL     1      39.944 -12.295   5.036  1.00  0.00     0.238 C 
ENDBRANCH   1  20
TORSDOF 4
ENDMDL
MODEL 6
REMARK VINA RESULT:     -10.0      4.099      6.461
REMARK  4 active torsions:
REMARK  status: ('A' for Active; 'I' for Inactive)
REMARK    1  A    between atoms: N_5  and  C_6 
REMARK    2  A    between atoms: C_6  and  C_7 
REMARK    3  A    between atoms: C_7  and  C_8 
REMARK    4  A    between atoms: C_8  and  N_9 
ROOT
HETATM    1  C   UNL     1      40.421  -9.289   4.092  1.00  0.00     0.236 C 
ENDROOT
BRANCH   1   2
HETATM    2  C   UNL     1      41.770  -9.463   4.789  1.00  0.00     0.048 C 
BRANCH   2   3
HETATM    3  C   UNL     1      41.534  -9.733   6.286  1.00  0.00     0.131 C 
BRANCH   3   4
HETATM    4  N   UNL     1      42.392 -10.826   6.780  1.00  0.00    -0.346 N 
HETATM    5  C   UNL     1      42.169 -12.127   6.260  1.00  0.00     0.041 A 
HETATM    6  C   UNL     1      43.187 -13.078   6.032  1.00  0.00    -0.031 A 
HETATM    7  C   UNL     1      40.841 -12.557   6.021  1.00  0.00     0.030 A 
HETATM    8  C   UNL     1      42.849 -14.368   5.549  1.00  0.00     0.009 A 
HETATM    9  C   UNL     1      44.664 -12.879   6.296  1.00  0.00     0.045 C 
HETATM   10  C   UNL     1      41.536 -14.735   5.283  1.00  0.00     0.001 A 
HETATM   11  C   UNL     1      40.524 -13.827   5.527  1.00  0.00     0.002 A 
HETATM   12  C   UNL     1      45.180 -11.451   6.230  1.00  0.00     0.045 C 
HETATM   13  C   UNL     1      44.760 -10.679   7.450  1.00  0.00    -0.031 A 
HETATM   14  C   UNL     1      43.401 -10.416   7.683  1.00  0.00     0.042 A 
HETATM   15  C   UNL     1      45.737 -10.235   8.360  1.00  0.00     0.011 A 
HETATM   16  C   UNL     1      43.058  -9.707   8.849  1.00  0.00     0.054 A 
HETATM   17  C   UNL     1      44.035  -9.247   9.732  1.00  0.00     0.036 A 
HETATM   18 CL   UNL     1      43.574  -8.299  11.090  1.00  0.00    -0.084 Cl
HETATM   19  C   UNL     1      45.376  -9.513   9.496  1.00  0.00     0.024 A 
ENDBRANCH   3   4
ENDBRANCH   2   3
ENDBRANCH   1   2
BRANCH   1  20
HETATM   20  N   UNL     1      40.220 -10.184   2.850  1.00  0.00    -0.071 N 
HETATM   21  H   UNL     1      39.856  -9.506   2.162  1.00  0.00     0.279 HD
HETATM   22  C   UNL     1      39.187 -11.277   2.964  1.00  0.00     0.238 C 
HETATM   23  C   UNL     1      39.560 -12.585   2.273  1.00  0.00     0.077 C 
HETATM   24  C   UNL     1      40.481 -12.503   1.048  1.00  0.00     0.212 C 
HETATM   25  N   UNL     1      39.756 -12.700  -0.285  1.00  0.00    -0.032 N 
HETATM   26  C   UNL     1      41.379 -13.757   1.063  1.00  0.00     0.256 C 
HETATM   27  C   UNL     1      41.360 -11.256   0.971  1.00  0.00     0.077 C 
HETATM   28  H   UNL     1      40.437 -12.417  -1.007  1.00  0.00     0.283 HD
HETATM   29  C   UNL     1      39.696 -14.185  -0.490  1.00  0.00     0.290 C 
HETATM   30  C   UNL     1      38.476 -12.012  -0.615  1.00  0.00     0.239 C 
HETATM   31  C   UNL     1      39.463 -14.462  -1.965  1.00  0.00     0.055 C 
HETATM   32  N   UNL     1      40.949 -14.580   0.038  1.00  0.00    -0.331 N 
HETATM   33  C   UNL     1      38.192 -13.750  -2.448  1.00  0.00     0.005 C 
HETATM   34  C   UNL     1      38.183 -12.259  -2.093  1.00  0.00     0.028 C 
HETATM   35  H   UNL     1      41.303 -15.536  -0.005  1.00  0.00     0.164 HD
HETATM   36  O   UNL     1      42.289 -13.969   1.839  1.00  0.00    -0.271 OA
HETATM   37  C   UNL     1      41.568 -10.656   2.348  1.00  0.00     0.238 C 
ENDBRANCH   1  20
TORSDOF 4
ENDMDL
MODEL 7
REMARK VINA RESULT:      -9.7      3.447      9.498
REMARK  4 active torsions:
REMARK  status: ('A' for Active; 'I' for Inactive)
REMARK    1  A    between atoms: N_5  and  C_6 
REMARK    2  A    between atoms: C_6  and  C_7 
REMARK    3  A    between atoms: C_7  and  C_8 
REMARK    4  A    between atoms: C_8  and  N_9 
ROOT
HETATM    1  C   UNL     1      40.089 -10.869   3.588  1.00  0.00     0.236 C 
ENDROOT
BRANCH   1   2
HETATM    2  C   UNL     1      39.798 -10.353   2.179  1.00  0.00     0.048 C 
BRANCH   2   3
HETATM    3  C   UNL     1      41.060 -10.511   1.312  1.00  0.00     0.131 C 
BRANCH   3   4
HETATM    4  N   UNL     1      40.719 -10.806  -0.092  1.00  0.00    -0.346 N 
HETATM    5  C   UNL     1      40.251 -12.110  -0.399  1.00  0.00     0.041 A 
HETATM    6  C   UNL     1      39.283 -12.397  -1.385  1.00  0.00    -0.031 A 
HETATM    7  C   UNL     1      40.835 -13.224   0.254  1.00  0.00     0.030 A 
HETATM    8  C   UNL     1      38.918 -13.744  -1.641  1.00  0.00     0.009 A 
HETATM    9  C   UNL     1      38.587 -11.384  -2.268  1.00  0.00     0.045 C 
HETATM   10  C   UNL     1      39.482 -14.806  -0.945  1.00  0.00     0.001 A 
HETATM   11  C   UNL     1      40.452 -14.546   0.003  1.00  0.00     0.002 A 
HETATM   12  C   UNL     1      38.445  -9.978  -1.709  1.00  0.00     0.045 C 
HETATM   13  C   UNL     1      39.762  -9.255  -1.752  1.00  0.00    -0.031 A 
HETATM   14  C   UNL     1      40.837  -9.701  -0.968  1.00  0.00     0.042 A 
HETATM   15  C   UNL     1      39.912  -8.137  -2.595  1.00  0.00     0.011 A 
HETATM   16  C   UNL     1      42.054  -9.002  -1.060  1.00  0.00     0.054 A 
HETATM   17  C   UNL     1      42.186  -7.879  -1.877  1.00  0.00     0.036 A 
HETATM   18 CL   UNL     1      43.663  -6.999  -1.879  1.00  0.00    -0.084 Cl
HETATM   19  C   UNL     1      41.120  -7.445  -2.652  1.00  0.00     0.024 A 
ENDBRANCH   3   4
ENDBRANCH   2   3
ENDBRANCH   1   2
BRANCH   1  20
HETATM   20  N   UNL     1      40.903 -12.180   3.635  1.00  0.00    -0.071 N 
HETATM   21  H   UNL     1      41.121 -12.326   2.637  1.00  0.00     0.279 HD
HETATM   22  C   UNL     1      40.171 -13.415   4.101  1.00  0.00     0.238 C 
HETATM   23  C   UNL     1      40.997 -14.361   4.967  1.00  0.00     0.077 C 
HETATM   24  C   UNL     1      42.514 -14.390   4.738  1.00  0.00     0.212 C 
HETATM   25  N   UNL     1      43.001 -15.624   3.976  1.00  0.00    -0.032 N 
HETATM   26  C   UNL     1      43.181 -14.630   6.108  1.00  0.00     0.256 C 
HETATM   27  C   UNL     1      43.106 -13.132   4.104  1.00  0.00     0.077 C 
HETATM   28  H   UNL     1      43.977 -15.413   3.716  1.00  0.00     0.283 HD
HETATM   29  C   UNL     1      43.186 -16.688   5.016  1.00  0.00     0.290 C 
HETATM   30  C   UNL     1      42.332 -16.124   2.741  1.00  0.00     0.239 C 
HETATM   31  C   UNL     1      44.116 -17.754   4.462  1.00  0.00     0.055 C 
HETATM   32  N   UNL     1      43.677 -15.922   6.101  1.00  0.00    -0.331 N 
HETATM   33  C   UNL     1      43.563 -18.311   3.143  1.00  0.00     0.005 C 
HETATM   34  C   UNL     1      43.222 -17.207   2.136  1.00  0.00     0.028 C 
HETATM   35  H   UNL     1      43.999 -16.327   6.979  1.00  0.00     0.164 HD
HETATM   36  O   UNL     1      43.248 -13.826   7.016  1.00  0.00    -0.271 OA
HETATM   37  C   UNL     1      42.213 -11.932   4.352  1.00  0.00     0.238 C 
ENDBRANCH   1  20
TORSDOF 4
ENDMDL
MODEL 8
REMARK VINA RESULT:      -9.7      6.093      9.582
REMARK  4 active torsions:
REMARK  status: ('A' for Active; 'I' for Inactive)
REMARK    1  A    between atoms: N_5  and  C_6 
REMARK    2  A    between atoms: C_6  and  C_7 
REMARK    3  A    between atoms: C_7  and  C_8 
REMARK    4  A    between atoms: C_8  and  N_9 
ROOT
HETATM    1  C   UNL     1      40.253  -9.946   6.898  1.00  0.00     0.236 C 
ENDROOT
BRANCH   1   2
HETATM    2  C   UNL     1      40.357  -9.561   8.373  1.00  0.00     0.048 C 
BRANCH   2   3
HETATM    3  C   UNL     1      41.061  -8.196   8.491  1.00  0.00     0.131 C 
BRANCH   3   4
HETATM    4  N   UNL     1      41.690  -8.025   9.813  1.00  0.00    -0.346 N 
HETATM    5  C   UNL     1      40.996  -7.253  10.781  1.00  0.00     0.041 A 
HETATM    6  C   UNL     1      41.013  -7.515  12.168  1.00  0.00    -0.031 A 
HETATM    7  C   UNL     1      40.299  -6.092  10.368  1.00  0.00     0.030 A 
HETATM    8  C   UNL     1      40.318  -6.653  13.055  1.00  0.00     0.009 A 
HETATM    9  C   UNL     1      41.758  -8.642  12.851  1.00  0.00     0.045 C 
HETATM   10  C   UNL     1      39.607  -5.549  12.603  1.00  0.00     0.001 A 
HETATM   11  C   UNL     1      39.603  -5.261  11.252  1.00  0.00     0.002 A 
HETATM   12  C   UNL     1      42.008  -9.892  12.023  1.00  0.00     0.045 C 
HETATM   13  C   UNL     1      43.099  -9.651  11.017  1.00  0.00    -0.031 A 
HETATM   14  C   UNL     1      42.907  -8.728   9.978  1.00  0.00     0.042 A 
HETATM   15  C   UNL     1      44.316 -10.349  11.134  1.00  0.00     0.011 A 
HETATM   16  C   UNL     1      43.967  -8.525   9.074  1.00  0.00     0.054 A 
HETATM   17  C   UNL     1      45.159  -9.240   9.181  1.00  0.00     0.036 A 
HETATM   18 CL   UNL     1      46.385  -9.030   7.994  1.00  0.00    -0.084 Cl
HETATM   19  C   UNL     1      45.342 -10.149  10.213  1.00  0.00     0.024 A 
ENDBRANCH   3   4
ENDBRANCH   2   3
ENDBRANCH   1   2
BRANCH   1  20
HETATM   20  N   UNL     1      40.836 -11.334   6.555  1.00  0.00    -0.071 N 
HETATM   21  H   UNL     1      41.130 -11.672   7.485  1.00  0.00     0.279 HD
HETATM   22  C   UNL     1      42.066 -11.354   5.682  1.00  0.00     0.238 C 
HETATM   23  C   UNL     1      42.112 -12.491   4.666  1.00  0.00     0.077 C 
HETATM   24  C   UNL     1      41.388 -13.794   5.027  1.00  0.00     0.212 C 
HETATM   25  N   UNL     1      42.326 -14.929   5.444  1.00  0.00    -0.032 N 
HETATM   26  C   UNL     1      40.813 -14.377   3.720  1.00  0.00     0.256 C 
HETATM   27  C   UNL     1      40.264 -13.657   6.053  1.00  0.00     0.077 C 
HETATM   28  H   UNL     1      41.711 -15.652   5.850  1.00  0.00     0.283 HD
HETATM   29  C   UNL     1      42.758 -15.580   4.164  1.00  0.00     0.290 C 
HETATM   30  C   UNL     1      43.446 -14.734   6.408  1.00  0.00     0.239 C 
HETATM   31  C   UNL     1      43.263 -16.978   4.477  1.00  0.00     0.055 C 
HETATM   32  N   UNL     1      41.568 -15.493   3.403  1.00  0.00    -0.331 N 
HETATM   33  C   UNL     1      44.391 -16.918   5.516  1.00  0.00     0.005 C 
HETATM   34  C   UNL     1      44.001 -16.112   6.760  1.00  0.00     0.028 C 
HETATM   35  H   UNL     1      41.455 -15.915   2.481  1.00  0.00     0.164 HD
HETATM   36  O   UNL     1      39.873 -13.929   3.095  1.00  0.00    -0.271 OA
HETATM   37  C   UNL     1      39.723 -12.241   6.075  1.00  0.00     0.238 C 
ENDBRANCH   1  20
TORSDOF 4
ENDMDL
MODEL 9
REMARK VINA RESULT:      -9.6      5.582      9.419
REMARK  4 active torsions:
REMARK  status: ('A' for Active; 'I' for Inactive)
REMARK    1  A    between atoms: N_5  and  C_6 
REMARK    2  A    between atoms: C_6  and  C_7 
REMARK    3  A    between atoms: C_7  and  C_8 
REMARK    4  A    between atoms: C_8  and  N_9 
ROOT
HETATM    1  C   UNL     1      40.405 -11.128   5.987  1.00  0.00     0.236 C 
ENDROOT
BRANCH   1   2
HETATM    2  C   UNL     1      41.390 -11.994   5.204  1.00  0.00     0.048 C 
BRANCH   2   3
HETATM    3  C   UNL     1      40.733 -13.351   4.891  1.00  0.00     0.131 C 
BRANCH   3   4
HETATM    4  N   UNL     1      41.554 -14.147   3.961  1.00  0.00    -0.346 N 
HETATM    5  C   UNL     1      42.460 -15.087   4.517  1.00  0.00     0.041 A 
HETATM    6  C   UNL     1      42.779 -16.330   3.928  1.00  0.00    -0.031 A 
HETATM    7  C   UNL     1      43.166 -14.751   5.698  1.00  0.00     0.030 A 
HETATM    8  C   UNL     1      43.732 -17.178   4.548  1.00  0.00     0.009 A 
HETATM    9  C   UNL     1      42.221 -16.865   2.627  1.00  0.00     0.045 C 
HETATM   10  C   UNL     1      44.369 -16.829   5.732  1.00  0.00     0.001 A 
HETATM   11  C   UNL     1      44.090 -15.605   6.307  1.00  0.00     0.002 A 
HETATM   12  C   UNL     1      40.842 -16.370   2.223  1.00  0.00     0.045 C 
HETATM   13  C   UNL     1      40.913 -14.954   1.721  1.00  0.00    -0.031 A 
HETATM   14  C   UNL     1      41.279 -13.917   2.592  1.00  0.00     0.042 A 
HETATM   15  C   UNL     1      40.624 -14.683   0.371  1.00  0.00     0.011 A 
HETATM   16  C   UNL     1      41.350 -12.613   2.068  1.00  0.00     0.054 A 
HETATM   17  C   UNL     1      41.036 -12.348   0.735  1.00  0.00     0.036 A 
HETATM   18 CL   UNL     1      41.041 -10.725   0.169  1.00  0.00    -0.084 Cl
HETATM   19  C   UNL     1      40.678 -13.380  -0.120  1.00  0.00     0.024 A 
ENDBRANCH   3   4
ENDBRANCH   2   3
ENDBRANCH   1   2
BRANCH   1  20
HETATM   20  N   UNL     1      40.963 -10.558   7.310  1.00  0.00    -0.071 N 
HETATM   21  H   UNL     1      41.123 -11.420   7.856  1.00  0.00     0.279 HD
HETATM   22  C   UNL     1      40.028  -9.700   8.125  1.00  0.00     0.238 C 
HETATM   23  C   UNL     1      40.687  -8.507   8.811  1.00  0.00     0.077 C 
HETATM   24  C   UNL     1      42.165  -8.641   9.200  1.00  0.00     0.212 C 
HETATM   25  N   UNL     1      42.394  -8.866  10.696  1.00  0.00    -0.032 N 
HETATM   26  C   UNL     1      42.813  -7.252   9.027  1.00  0.00     0.256 C 
HETATM   27  C   UNL     1      42.963  -9.671   8.401  1.00  0.00     0.077 C 
HETATM   28  H   UNL     1      43.385  -9.142  10.779  1.00  0.00     0.283 HD
HETATM   29  C   UNL     1      42.407  -7.497  11.308  1.00  0.00     0.290 C 
HETATM   30  C   UNL     1      41.610  -9.854  11.491  1.00  0.00     0.239 C 
HETATM   31  C   UNL     1      43.108  -7.572  12.653  1.00  0.00     0.055 C 
HETATM   32  N   UNL     1      43.061  -6.755  10.295  1.00  0.00    -0.331 N 
HETATM   33  C   UNL     1      42.425  -8.611  13.553  1.00  0.00     0.005 C 
HETATM   34  C   UNL     1      42.267  -9.972  12.864  1.00  0.00     0.028 C 
HETATM   35  H   UNL     1      43.326  -5.776  10.393  1.00  0.00     0.164 HD
HETATM   36  O   UNL     1      43.054  -6.707   7.968  1.00  0.00    -0.271 OA
HETATM   37  C   UNL     1      42.316  -9.929   7.054  1.00  0.00     0.238 C 
ENDBRANCH   1  20
TORSDOF 4
ENDMDL
MODEL 10
REMARK VINA RESULT:      -9.5      6.129      9.695
REMARK  4 active torsions:
REMARK  status: ('A' for Active; 'I' for Inactive)
REMARK    1  A    between atoms: N_5  and  C_6 
REMARK    2  A    between atoms: C_6  and  C_7 
REMARK    3  A    between atoms: C_7  and  C_8 
REMARK    4  A    between atoms: C_8  and  N_9 
ROOT
HETATM    1  C   UNL     1      41.150  -9.962   6.062  1.00  0.00     0.236 C 
ENDROOT
BRANCH   1   2
HETATM    2  C   UNL     1      41.091  -9.775   7.577  1.00  0.00     0.048 C 
BRANCH   2   3
HETATM    3  C   UNL     1      41.202  -8.274   7.906  1.00  0.00     0.131 C 
BRANCH   3   4
HETATM    4  N   UNL     1      41.692  -8.057   9.279  1.00  0.00    -0.346 N 
HETATM    5  C   UNL     1      40.898  -7.261  10.146  1.00  0.00     0.041 A 
HETATM    6  C   UNL     1      40.775  -7.479  11.535  1.00  0.00    -0.031 A 
HETATM    7  C   UNL     1      40.241  -6.120   9.627  1.00  0.00     0.030 A 
HETATM    8  C   UNL     1      39.988  -6.597  12.318  1.00  0.00     0.009 A 
HETATM    9  C   UNL     1      41.453  -8.578  12.326  1.00  0.00     0.045 C 
HETATM   10  C   UNL     1      39.320  -5.513  11.761  1.00  0.00     0.001 A 
HETATM   11  C   UNL     1      39.453  -5.268  10.408  1.00  0.00     0.002 A 
HETATM   12  C   UNL     1      41.793  -9.850  11.568  1.00  0.00     0.045 C 
HETATM   13  C   UNL     1      42.980  -9.632  10.671  1.00  0.00    -0.031 A 
HETATM   14  C   UNL     1      42.890  -8.743   9.589  1.00  0.00     0.042 A 
HETATM   15  C   UNL     1      44.182 -10.314  10.934  1.00  0.00     0.011 A 
HETATM   16  C   UNL     1      44.035  -8.558   8.792  1.00  0.00     0.054 A 
HETATM   17  C   UNL     1      45.214  -9.260   9.043  1.00  0.00     0.036 A 
HETATM   18 CL   UNL     1      46.554  -9.075   7.981  1.00  0.00    -0.084 Cl
HETATM   19  C   UNL     1      45.296 -10.135  10.117  1.00  0.00     0.024 A 
ENDBRANCH   3   4
ENDBRANCH   2   3
ENDBRANCH   1   2
BRANCH   1  20
HETATM   20  N   UNL     1      41.692 -11.334   5.606  1.00  0.00    -0.071 N 
HETATM   21  H   UNL     1      42.017 -11.122   4.649  1.00  0.00     0.279 HD
HETATM   22  C   UNL     1      40.687 -12.452   5.481  1.00  0.00     0.238 C 
HETATM   23  C   UNL     1      41.193 -13.822   5.921  1.00  0.00     0.077 C 
HETATM   24  C   UNL     1      42.696 -14.101   5.780  1.00  0.00     0.212 C 
HETATM   25  N   UNL     1      43.048 -15.013   4.602  1.00  0.00    -0.032 N 
HETATM   26  C   UNL     1      43.108 -15.003   6.961  1.00  0.00     0.256 C 
HETATM   27  C   UNL     1      43.593 -12.865   5.755  1.00  0.00     0.077 C 
HETATM   28  H   UNL     1      44.073 -14.944   4.505  1.00  0.00     0.283 HD
HETATM   29  C   UNL     1      42.885 -16.412   5.118  1.00  0.00     0.290 C 
HETATM   30  C   UNL     1      42.478 -14.823   3.238  1.00  0.00     0.239 C 
HETATM   31  C   UNL     1      43.671 -17.354   4.223  1.00  0.00     0.055 C 
HETATM   32  N   UNL     1      43.353 -16.265   6.446  1.00  0.00    -0.331 N 
HETATM   33  C   UNL     1      43.215 -17.209   2.765  1.00  0.00     0.005 C 
HETATM   34  C   UNL     1      43.228 -15.752   2.287  1.00  0.00     0.028 C 
HETATM   35  H   UNL     1      43.468 -17.044   7.094  1.00  0.00     0.164 HD
HETATM   36  O   UNL     1      43.195 -14.658   8.122  1.00  0.00    -0.271 OA
HETATM   37  C   UNL     1      42.913 -11.690   6.429  1.00  0.00     0.238 C 
ENDBRANCH   1  20
TORSDOF 4
ENDMDL
