MODEL 1
REMARK VINA RESULT:      -8.5      0.000      0.000
REMARK  4 active torsions:
REMARK  status: ('A' for Active; 'I' for Inactive)
REMARK    1  A    between atoms: C_3  and  O_4 
REMARK    2  A    between atoms: O_4  and  C_5 
REMARK    3  A    between atoms: C_11  and  C_12 
REMARK    4  A    between atoms: C_23  and  N_24 
ROOT
HETATM    1  C   UNL     1      40.419 -15.094   3.846  1.00  0.00     0.244 A 
HETATM    2  N   UNL     1      41.634 -15.732   4.293  1.00  0.00    -0.151 N 
HETATM    3  C   UNL     1      42.204 -15.392   5.494  1.00  0.00     0.734 A 
HETATM    4  N   UNL     1      43.289 -16.110   5.685  1.00  0.00    -0.060 NA
HETATM    5  C   UNL     1      43.385 -16.961   4.612  1.00  0.00     0.103 A 
HETATM    6  C   UNL     1      42.341 -16.752   3.716  1.00  0.00     0.083 A 
HETATM    7  C   UNL     1      44.340 -17.950   4.340  1.00  0.00     0.034 A 
HETATM    8  C   UNL     1      44.209 -18.706   3.170  1.00  0.00     0.002 A 
HETATM    9  C   UNL     1      43.150 -18.480   2.288  1.00  0.00     0.002 A 
HETATM   10  C   UNL     1      42.188 -17.494   2.539  1.00  0.00     0.033 A 
HETATM   11  N   UNL     1      41.682 -14.452   6.312  1.00  0.00    -0.033 NA
HETATM   12  C   UNL     1      40.572 -13.891   5.990  1.00  0.00     0.193 A 
HETATM   13  N   UNL     1      39.853 -14.168   4.823  1.00  0.00    -0.339 N 
HETATM   14  H   UNL     1      38.958 -13.737   4.653  1.00  0.00     0.164 HD
ENDROOT
BRANCH   1  15
HETATM   15  C   UNL     1      40.602 -14.296   2.565  1.00  0.00    -0.014 A 
HETATM   16  C   UNL     1      40.116 -14.810   1.350  1.00  0.00     0.020 A 
HETATM   17  C   UNL     1      40.192 -14.068   0.159  1.00  0.00    -0.027 A 
HETATM   18  C   UNL     1      40.777 -12.795   0.194  1.00  0.00     0.086 A 
HETATM   19  C   UNL     1      39.593 -14.653  -1.091  1.00  0.00     0.051 C 
HETATM   20  C   UNL     1      41.231 -12.238   1.400  1.00  0.00    -0.027 A 
HETATM   21  C   UNL     1      41.817 -10.852   1.454  1.00  0.00     0.051 C 
HETATM   22  C   UNL     1      41.153 -13.002   2.572  1.00  0.00     0.020 A 
BRANCH  18  23
HETATM   23  O   UNL     1      40.822 -12.042  -0.949  1.00  0.00    -0.289 OA
BRANCH  23  24
HETATM   24  C   UNL     1      39.605 -11.323  -1.124  1.00  0.00     0.505 C 
HETATM   25  F   UNL     1      39.897  -9.999  -1.104  1.00  0.00    -0.184 F 
HETATM   26  F   UNL     1      39.145 -11.607  -2.368  1.00  0.00    -0.184 F 
ENDBRANCH  23  24
ENDBRANCH  18  23
ENDBRANCH   1  15
BRANCH  12  27
HETATM   27  N   UNL     1      39.969 -12.961   6.757  1.00  0.00    -0.272 NA
HETATM   28  H   UNL     1      39.948 -13.254   7.732  1.00  0.00     0.127 HD
HETATM   29  H   UNL     1      40.315 -12.014   6.674  1.00  0.00     0.127 HD
ENDBRANCH  12  27
TORSDOF 4
ENDMDL
MODEL 2
REMARK VINA RESULT:      -8.5      4.780      7.051
REMARK  4 active torsions:
REMARK  status: ('A' for Active; 'I' for Inactive)
REMARK    1  A    between atoms: C_3  and  O_4 
REMARK    2  A    between atoms: O_4  and  C_5 
REMARK    3  A    between atoms: C_11  and  C_12 
REMARK    4  A    between atoms: C_23  and  N_24 
ROOT
HETATM    1  C   UNL     1      41.127 -14.973   4.378  1.00  0.00     0.244 A 
HETATM    2  N   UNL     1      41.913 -13.767   4.260  1.00  0.00    -0.151 N 
HETATM    3  C   UNL     1      41.837 -12.988   3.134  1.00  0.00     0.734 A 
HETATM    4  N   UNL     1      42.630 -11.948   3.264  1.00  0.00    -0.060 NA
HETATM    5  C   UNL     1      43.184 -12.037   4.517  1.00  0.00     0.103 A 
HETATM    6  C   UNL     1      42.737 -13.177   5.178  1.00  0.00     0.083 A 
HETATM    7  C   UNL     1      44.075 -11.169   5.162  1.00  0.00     0.034 A 
HETATM    8  C   UNL     1      44.486 -11.475   6.464  1.00  0.00     0.002 A 
HETATM    9  C   UNL     1      44.022 -12.624   7.109  1.00  0.00     0.002 A 
HETATM   10  C   UNL     1      43.135 -13.506   6.480  1.00  0.00     0.033 A 
HETATM   11  N   UNL     1      41.046 -13.297   2.082  1.00  0.00    -0.033 NA
HETATM   12  C   UNL     1      40.285 -14.329   2.155  1.00  0.00     0.193 A 
HETATM   13  N   UNL     1      40.220 -15.190   3.255  1.00  0.00    -0.339 N 
HETATM   14  H   UNL     1      39.559 -15.950   3.277  1.00  0.00     0.164 HD
ENDROOT
BRANCH   1  15
HETATM   15  C   UNL     1      41.977 -16.229   4.484  1.00  0.00    -0.014 A 
HETATM   16  C   UNL     1      42.488 -16.824   3.318  1.00  0.00     0.020 A 
HETATM   17  C   UNL     1      43.344 -17.936   3.378  1.00  0.00    -0.027 A 
HETATM   18  C   UNL     1      43.680 -18.461   4.633  1.00  0.00     0.086 A 
HETATM   19  C   UNL     1      43.906 -18.481   2.093  1.00  0.00     0.051 C 
HETATM   20  C   UNL     1      43.220 -17.862   5.818  1.00  0.00    -0.027 A 
HETATM   21  C   UNL     1      43.615 -18.391   7.171  1.00  0.00     0.051 C 
HETATM   22  C   UNL     1      42.360 -16.760   5.730  1.00  0.00     0.020 A 
BRANCH  18  23
HETATM   23  O   UNL     1      44.547 -19.519   4.713  1.00  0.00    -0.289 OA
BRANCH  23  24
HETATM   24  C   UNL     1      43.833 -20.748   4.789  1.00  0.00     0.505 C 
HETATM   25  F   UNL     1      44.023 -21.413   3.623  1.00  0.00    -0.184 F 
HETATM   26  F   UNL     1      44.413 -21.491   5.766  1.00  0.00    -0.184 F 
ENDBRANCH  23  24
ENDBRANCH  18  23
ENDBRANCH   1  15
BRANCH  12  27
HETATM   27  N   UNL     1      39.450 -14.697   1.163  1.00  0.00    -0.272 NA
HETATM   28  H   UNL     1      38.498 -14.389   1.357  1.00  0.00     0.127 HD
HETATM   29  H   UNL     1      39.724 -14.442   0.224  1.00  0.00     0.127 HD
ENDBRANCH  12  27
TORSDOF 4
ENDMDL
MODEL 3
REMARK VINA RESULT:      -8.4      4.693      7.226
REMARK  4 active torsions:
REMARK  status: ('A' for Active; 'I' for Inactive)
REMARK    1  A    between atoms: C_3  and  O_4 
REMARK    2  A    between atoms: O_4  and  C_5 
REMARK    3  A    between atoms: C_11  and  C_12 
REMARK    4  A    between atoms: C_23  and  N_24 
ROOT
HETATM    1  C   UNL     1      40.870 -15.251   3.435  1.00  0.00     0.244 A 
HETATM    2  N   UNL     1      41.439 -13.930   3.300  1.00  0.00    -0.151 N 
HETATM    3  C   UNL     1      41.339 -13.241   2.119  1.00  0.00     0.734 A 
HETATM    4  N   UNL     1      41.919 -12.068   2.243  1.00  0.00    -0.060 NA
HETATM    5  C   UNL     1      42.353 -11.986   3.543  1.00  0.00     0.103 A 
HETATM    6  C   UNL     1      42.051 -13.150   4.243  1.00  0.00     0.083 A 
HETATM    7  C   UNL     1      43.008 -10.936   4.200  1.00  0.00     0.034 A 
HETATM    8  C   UNL     1      43.335 -11.090   5.552  1.00  0.00     0.002 A 
HETATM    9  C   UNL     1      43.019 -12.267   6.234  1.00  0.00     0.002 A 
HETATM   10  C   UNL     1      42.369 -13.329   5.594  1.00  0.00     0.033 A 
HETATM   11  N   UNL     1      40.724 -13.747   1.026  1.00  0.00    -0.033 NA
HETATM   12  C   UNL     1      40.153 -14.894   1.106  1.00  0.00     0.193 A 
HETATM   13  N   UNL     1      40.131 -15.691   2.256  1.00  0.00    -0.339 N 
HETATM   14  H   UNL     1      39.616 -16.557   2.274  1.00  0.00     0.164 HD
ENDROOT
BRANCH   1  15
HETATM   15  C   UNL     1      41.913 -16.323   3.706  1.00  0.00    -0.014 A 
HETATM   16  C   UNL     1      42.326 -16.576   5.025  1.00  0.00     0.020 A 
HETATM   17  C   UNL     1      43.226 -17.613   5.325  1.00  0.00    -0.027 A 
HETATM   18  C   UNL     1      43.723 -18.398   4.277  1.00  0.00     0.086 A 
HETATM   19  C   UNL     1      43.573 -17.867   6.767  1.00  0.00     0.051 C 
HETATM   20  C   UNL     1      43.295 -18.198   2.954  1.00  0.00    -0.027 A 
HETATM   21  C   UNL     1      43.788 -19.068   1.828  1.00  0.00     0.051 C 
HETATM   22  C   UNL     1      42.405 -17.151   2.680  1.00  0.00     0.020 A 
BRANCH  18  23
HETATM   23  O   UNL     1      44.567 -19.439   4.556  1.00  0.00    -0.289 OA
BRANCH  23  24
HETATM   24  C   UNL     1      43.829 -20.604   4.908  1.00  0.00     0.505 C 
HETATM   25  F   UNL     1      43.869 -21.457   3.855  1.00  0.00    -0.184 F 
HETATM   26  F   UNL     1      44.489 -21.207   5.928  1.00  0.00    -0.184 F 
ENDBRANCH  23  24
ENDBRANCH  18  23
ENDBRANCH   1  15
BRANCH  12  27
HETATM   27  N   UNL     1      39.498 -15.462   0.074  1.00  0.00    -0.272 NA
HETATM   28  H   UNL     1      39.703 -16.458   0.018  1.00  0.00     0.127 HD
HETATM   29  H   UNL     1      38.502 -15.298   0.026  1.00  0.00     0.127 HD
ENDBRANCH  12  27
TORSDOF 4
ENDMDL
MODEL 4
REMARK VINA RESULT:      -8.2      0.209      1.715
REMARK  4 active torsions:
REMARK  status: ('A' for Active; 'I' for Inactive)
REMARK    1  A    between atoms: C_3  and  O_4 
REMARK    2  A    between atoms: O_4  and  C_5 
REMARK    3  A    between atoms: C_11  and  C_12 
REMARK    4  A    between atoms: C_23  and  N_24 
ROOT
HETATM    1  C   UNL     1      40.336 -15.028   3.916  1.00  0.00     0.244 A 
HETATM    2  N   UNL     1      41.586 -15.643   4.297  1.00  0.00    -0.151 N 
HETATM    3  C   UNL     1      42.219 -15.283   5.460  1.00  0.00     0.734 A 
HETATM    4  N   UNL     1      43.324 -15.982   5.594  1.00  0.00    -0.060 NA
HETATM    5  C   UNL     1      43.372 -16.840   4.524  1.00  0.00     0.103 A 
HETATM    6  C   UNL     1      42.275 -16.656   3.689  1.00  0.00     0.083 A 
HETATM    7  C   UNL     1      44.326 -17.816   4.205  1.00  0.00     0.034 A 
HETATM    8  C   UNL     1      44.140 -18.585   3.051  1.00  0.00     0.002 A 
HETATM    9  C   UNL     1      43.028 -18.384   2.230  1.00  0.00     0.002 A 
HETATM   10  C   UNL     1      42.067 -17.411   2.528  1.00  0.00     0.033 A 
HETATM   11  N   UNL     1      41.729 -14.344   6.300  1.00  0.00    -0.033 NA
HETATM   12  C   UNL     1      40.593 -13.804   6.037  1.00  0.00     0.193 A 
HETATM   13  N   UNL     1      39.812 -14.103   4.916  1.00  0.00    -0.339 N 
HETATM   14  H   UNL     1      38.902 -13.688   4.796  1.00  0.00     0.164 HD
ENDROOT
BRANCH   1  15
HETATM   15  C   UNL     1      40.432 -14.240   2.620  1.00  0.00    -0.014 A 
HETATM   16  C   UNL     1      41.035 -12.970   2.620  1.00  0.00     0.020 A 
HETATM   17  C   UNL     1      41.217 -12.245   1.430  1.00  0.00    -0.027 A 
HETATM   18  C   UNL     1      40.773 -12.806   0.225  1.00  0.00     0.086 A 
HETATM   19  C   UNL     1      41.928 -10.921   1.497  1.00  0.00     0.051 C 
HETATM   20  C   UNL     1      40.208 -14.091   0.187  1.00  0.00    -0.027 A 
HETATM   21  C   UNL     1      39.773 -14.721  -1.109  1.00  0.00     0.051 C 
HETATM   22  C   UNL     1      40.029 -14.789   1.389  1.00  0.00     0.020 A 
BRANCH  18  23
HETATM   23  O   UNL     1      40.981 -12.133  -0.949  1.00  0.00    -0.289 OA
BRANCH  23  24
HETATM   24  C   UNL     1      39.922 -11.214  -1.195  1.00  0.00     0.505 C 
HETATM   25  F   UNL     1      40.472 -10.038  -1.584  1.00  0.00    -0.184 F 
HETATM   26  F   UNL     1      39.215 -11.688  -2.252  1.00  0.00    -0.184 F 
ENDBRANCH  23  24
ENDBRANCH  18  23
ENDBRANCH   1  15
BRANCH  12  27
HETATM   27  N   UNL     1      40.021 -12.877   6.831  1.00  0.00    -0.272 NA
HETATM   28  H   UNL     1      39.264 -12.399   6.344  1.00  0.00     0.127 HD
HETATM   29  H   UNL     1      39.718 -13.189   7.744  1.00  0.00     0.127 HD
ENDBRANCH  12  27
TORSDOF 4
ENDMDL
MODEL 5
REMARK VINA RESULT:      -8.2      4.235      6.483
REMARK  4 active torsions:
REMARK  status: ('A' for Active; 'I' for Inactive)
REMARK    1  A    between atoms: C_3  and  O_4 
REMARK    2  A    between atoms: O_4  and  C_5 
REMARK    3  A    between atoms: C_11  and  C_12 
REMARK    4  A    between atoms: C_23  and  N_24 
ROOT
HETATM    1  C   UNL     1      41.018 -14.244   5.025  1.00  0.00     0.244 A 
HETATM    2  N   UNL     1      41.652 -12.947   5.071  1.00  0.00    -0.151 N 
HETATM    3  C   UNL     1      41.201 -11.918   4.284  1.00  0.00     0.734 A 
HETATM    4  N   UNL     1      41.925 -10.844   4.508  1.00  0.00    -0.060 NA
HETATM    5  C   UNL     1      42.821 -11.178   5.493  1.00  0.00     0.103 A 
HETATM    6  C   UNL     1      42.663 -12.505   5.879  1.00  0.00     0.083 A 
HETATM    7  C   UNL     1      43.798 -10.390   6.116  1.00  0.00     0.034 A 
HETATM    8  C   UNL     1      44.587 -10.965   7.118  1.00  0.00     0.002 A 
HETATM    9  C   UNL     1      44.407 -12.299   7.491  1.00  0.00     0.002 A 
HETATM   10  C   UNL     1      43.440 -13.104   6.878  1.00  0.00     0.033 A 
HETATM   11  N   UNL     1      40.165 -12.052   3.427  1.00  0.00    -0.033 NA
HETATM   12  C   UNL     1      39.530 -13.167   3.384  1.00  0.00     0.193 A 
HETATM   13  N   UNL     1      39.843 -14.288   4.159  1.00  0.00    -0.339 N 
HETATM   14  H   UNL     1      39.271 -15.117   4.124  1.00  0.00     0.164 HD
ENDROOT
BRANCH   1  15
HETATM   15  C   UNL     1      41.947 -15.343   4.533  1.00  0.00    -0.014 A 
HETATM   16  C   UNL     1      42.367 -16.348   5.421  1.00  0.00     0.020 A 
HETATM   17  C   UNL     1      43.158 -17.425   4.987  1.00  0.00    -0.027 A 
HETATM   18  C   UNL     1      43.538 -17.482   3.639  1.00  0.00     0.086 A 
HETATM   19  C   UNL     1      43.517 -18.499   5.979  1.00  0.00     0.051 C 
HETATM   20  C   UNL     1      43.096 -16.517   2.719  1.00  0.00    -0.027 A 
HETATM   21  C   UNL     1      43.460 -16.597   1.261  1.00  0.00     0.051 C 
HETATM   22  C   UNL     1      42.317 -15.448   3.180  1.00  0.00     0.020 A 
BRANCH  18  23
HETATM   23  O   UNL     1      44.272 -18.547   3.190  1.00  0.00    -0.289 OA
BRANCH  23  24
HETATM   24  C   UNL     1      43.418 -19.616   2.798  1.00  0.00     0.505 C 
HETATM   25  F   UNL     1      43.691 -19.914   1.504  1.00  0.00    -0.184 F 
HETATM   26  F   UNL     1      43.768 -20.701   3.534  1.00  0.00    -0.184 F 
ENDBRANCH  23  24
ENDBRANCH  18  23
ENDBRANCH   1  15
BRANCH  12  27
HETATM   27  N   UNL     1      38.472 -13.379   2.577  1.00  0.00    -0.272 NA
HETATM   28  H   UNL     1      37.840 -12.581   2.589  1.00  0.00     0.127 HD
HETATM   29  H   UNL     1      38.677 -13.658   1.627  1.00  0.00     0.127 HD
ENDBRANCH  12  27
TORSDOF 4
ENDMDL
MODEL 6
REMARK VINA RESULT:      -8.0      4.578      7.415
REMARK  4 active torsions:
REMARK  status: ('A' for Active; 'I' for Inactive)
REMARK    1  A    between atoms: C_3  and  O_4 
REMARK    2  A    between atoms: O_4  and  C_5 
REMARK    3  A    between atoms: C_11  and  C_12 
REMARK    4  A    between atoms: C_23  and  N_24 
ROOT
HETATM    1  C   UNL     1      39.312 -13.260  -0.243  1.00  0.00     0.244 A 
HETATM    2  N   UNL     1      40.118 -12.394  -1.071  1.00  0.00    -0.151 N 
HETATM    3  C   UNL     1      40.365 -12.709  -2.383  1.00  0.00     0.734 A 
HETATM    4  N   UNL     1      41.107 -11.771  -2.928  1.00  0.00    -0.060 NA
HETATM    5  C   UNL     1      41.294 -10.814  -1.963  1.00  0.00     0.103 A 
HETATM    6  C   UNL     1      40.667 -11.176  -0.775  1.00  0.00     0.083 A 
HETATM    7  C   UNL     1      41.986  -9.597  -2.034  1.00  0.00     0.034 A 
HETATM    8  C   UNL     1      42.019  -8.776  -0.902  1.00  0.00     0.002 A 
HETATM    9  C   UNL     1      41.379  -9.160   0.279  1.00  0.00     0.002 A 
HETATM   10  C   UNL     1      40.687 -10.373   0.372  1.00  0.00     0.033 A 
HETATM   11  N   UNL     1      39.889 -13.831  -2.968  1.00  0.00    -0.033 NA
HETATM   12  C   UNL     1      39.122 -14.610  -2.294  1.00  0.00     0.193 A 
HETATM   13  N   UNL     1      38.745 -14.395  -0.964  1.00  0.00    -0.339 N 
HETATM   14  H   UNL     1      38.093 -15.012  -0.507  1.00  0.00     0.164 HD
ENDROOT
BRANCH   1  15
HETATM   15  C   UNL     1      40.082 -13.847   0.930  1.00  0.00    -0.014 A 
HETATM   16  C   UNL     1      41.177 -14.694   0.689  1.00  0.00     0.020 A 
HETATM   17  C   UNL     1      41.964 -15.190   1.742  1.00  0.00    -0.027 A 
HETATM   18  C   UNL     1      41.634 -14.834   3.056  1.00  0.00     0.086 A 
HETATM   19  C   UNL     1      43.160 -16.040   1.406  1.00  0.00     0.051 C 
HETATM   20  C   UNL     1      40.574 -13.953   3.325  1.00  0.00    -0.027 A 
HETATM   21  C   UNL     1      40.242 -13.527   4.730  1.00  0.00     0.051 C 
HETATM   22  C   UNL     1      39.798 -13.480   2.258  1.00  0.00     0.020 A 
BRANCH  18  23
HETATM   23  O   UNL     1      42.416 -15.273   4.092  1.00  0.00    -0.289 OA
BRANCH  23  24
HETATM   24  C   UNL     1      41.965 -16.540   4.558  1.00  0.00     0.505 C 
HETATM   25  F   UNL     1      43.011 -17.401   4.504  1.00  0.00    -0.184 F 
HETATM   26  F   UNL     1      41.640 -16.395   5.867  1.00  0.00    -0.184 F 
ENDBRANCH  23  24
ENDBRANCH  18  23
ENDBRANCH   1  15
BRANCH  12  27
HETATM   27  N   UNL     1      38.586 -15.735  -2.806  1.00  0.00    -0.272 NA
HETATM   28  H   UNL     1      37.580 -15.762  -2.649  1.00  0.00     0.127 HD
HETATM   29  H   UNL     1      38.804 -15.940  -3.772  1.00  0.00     0.127 HD
ENDBRANCH  12  27
TORSDOF 4
ENDMDL
MODEL 7
REMARK VINA RESULT:      -7.9      5.790      7.534
REMARK  4 active torsions:
REMARK  status: ('A' for Active; 'I' for Inactive)
REMARK    1  A    between atoms: C_3  and  O_4 
REMARK    2  A    between atoms: O_4  and  C_5 
REMARK    3  A    between atoms: C_11  and  C_12 
REMARK    4  A    between atoms: C_23  and  N_24 
ROOT
HETATM    1  C   UNL     1      43.832 -12.215   4.614  1.00  0.00     0.244 A 
HETATM    2  N   UNL     1      42.831 -13.246   4.760  1.00  0.00    -0.151 N 
HETATM    3  C   UNL     1      41.709 -13.250   3.971  1.00  0.00     0.734 A 
HETATM    4  N   UNL     1      40.958 -14.284   4.281  1.00  0.00    -0.060 NA
HETATM    5  C   UNL     1      41.637 -14.981   5.249  1.00  0.00     0.103 A 
HETATM    6  C   UNL     1      42.837 -14.351   5.566  1.00  0.00     0.083 A 
HETATM    7  C   UNL     1      41.290 -16.172   5.900  1.00  0.00     0.034 A 
HETATM    8  C   UNL     1      42.170 -16.699   6.852  1.00  0.00     0.002 A 
HETATM    9  C   UNL     1      43.371 -16.051   7.150  1.00  0.00     0.002 A 
HETATM   10  C   UNL     1      43.734 -14.857   6.514  1.00  0.00     0.033 A 
HETATM   11  N   UNL     1      41.468 -12.306   3.035  1.00  0.00    -0.033 NA
HETATM   12  C   UNL     1      42.351 -11.396   2.825  1.00  0.00     0.193 A 
HETATM   13  N   UNL     1      43.562 -11.291   3.517  1.00  0.00    -0.339 N 
HETATM   14  H   UNL     1      44.240 -10.589   3.266  1.00  0.00     0.164 HD
ENDROOT
BRANCH   1  15
HETATM   15  C   UNL     1      43.989 -11.358   5.860  1.00  0.00    -0.014 A 
HETATM   16  C   UNL     1      45.275 -11.065   6.346  1.00  0.00     0.020 A 
HETATM   17  C   UNL     1      45.466 -10.210   7.444  1.00  0.00    -0.027 A 
HETATM   18  C   UNL     1      44.341  -9.652   8.067  1.00  0.00     0.086 A 
HETATM   19  C   UNL     1      46.873  -9.890   7.869  1.00  0.00     0.051 C 
HETATM   20  C   UNL     1      43.047  -9.890   7.577  1.00  0.00    -0.027 A 
HETATM   21  C   UNL     1      41.837  -9.256   8.211  1.00  0.00     0.051 C 
HETATM   22  C   UNL     1      42.883 -10.754   6.486  1.00  0.00     0.020 A 
BRANCH  18  23
HETATM   23  O   UNL     1      44.511  -8.783   9.112  1.00  0.00    -0.289 OA
BRANCH  23  24
HETATM   24  C   UNL     1      44.496  -9.481  10.353  1.00  0.00     0.505 C 
HETATM   25  F   UNL     1      45.775  -9.581  10.790  1.00  0.00    -0.184 F 
HETATM   26  F   UNL     1      43.834  -8.702  11.245  1.00  0.00    -0.184 F 
ENDBRANCH  23  24
ENDBRANCH  18  23
ENDBRANCH   1  15
BRANCH  12  27
HETATM   27  N   UNL     1      42.203 -10.431   1.896  1.00  0.00    -0.272 NA
HETATM   28  H   UNL     1      41.218 -10.251   1.712  1.00  0.00     0.127 HD
HETATM   29  H   UNL     1      42.701  -9.566   2.061  1.00  0.00     0.127 HD
ENDBRANCH  12  27
TORSDOF 4
ENDMDL
MODEL 8
REMARK VINA RESULT:      -7.7      5.720      7.485
REMARK  4 active torsions:
REMARK  status: ('A' for Active; 'I' for Inactive)
REMARK    1  A    between atoms: C_3  and  O_4 
REMARK    2  A    between atoms: O_4  and  C_5 
REMARK    3  A    between atoms: C_11  and  C_12 
REMARK    4  A    between atoms: C_23  and  N_24 
ROOT
HETATM    1  C   UNL     1      43.645 -12.207   4.452  1.00  0.00     0.244 A 
HETATM    2  N   UNL     1      42.529 -13.099   4.666  1.00  0.00    -0.151 N 
HETATM    3  C   UNL     1      41.392 -12.995   3.907  1.00  0.00     0.734 A 
HETATM    4  N   UNL     1      40.529 -13.915   4.278  1.00  0.00    -0.060 NA
HETATM    5  C   UNL     1      41.146 -14.653   5.257  1.00  0.00     0.103 A 
HETATM    6  C   UNL     1      42.424 -14.166   5.517  1.00  0.00     0.083 A 
HETATM    7  C   UNL     1      40.675 -15.766   5.966  1.00  0.00     0.034 A 
HETATM    8  C   UNL     1      41.513 -16.362   6.916  1.00  0.00     0.002 A 
HETATM    9  C   UNL     1      42.792 -15.856   7.157  1.00  0.00     0.002 A 
HETATM   10  C   UNL     1      43.280 -14.742   6.463  1.00  0.00     0.033 A 
HETATM   11  N   UNL     1      41.242 -12.064   2.938  1.00  0.00    -0.033 NA
HETATM   12  C   UNL     1      42.222 -11.280   2.668  1.00  0.00     0.193 A 
HETATM   13  N   UNL     1      43.457 -11.299   3.324  1.00  0.00    -0.339 N 
HETATM   14  H   UNL     1      44.209 -10.698   3.028  1.00  0.00     0.164 HD
ENDROOT
BRANCH   1  15
HETATM   15  C   UNL     1      43.943 -11.329   5.657  1.00  0.00    -0.014 A 
HETATM   16  C   UNL     1      42.887 -10.710   6.346  1.00  0.00     0.020 A 
HETATM   17  C   UNL     1      43.113  -9.958   7.512  1.00  0.00    -0.027 A 
HETATM   18  C   UNL     1      44.426  -9.821   7.980  1.00  0.00     0.086 A 
HETATM   19  C   UNL     1      41.927  -9.378   8.234  1.00  0.00     0.051 C 
HETATM   20  C   UNL     1      45.497 -10.464   7.339  1.00  0.00    -0.027 A 
HETATM   21  C   UNL     1      46.905 -10.361   7.863  1.00  0.00     0.051 C 
HETATM   22  C   UNL     1      45.246 -11.200   6.173  1.00  0.00     0.020 A 
BRANCH  18  23
HETATM   23  O   UNL     1      44.661  -9.127   9.138  1.00  0.00    -0.289 OA
BRANCH  23  24
HETATM   24  C   UNL     1      44.397  -9.944  10.274  1.00  0.00     0.505 C 
HETATM   25  F   UNL     1      45.578 -10.446  10.709  1.00  0.00    -0.184 F 
HETATM   26  F   UNL     1      43.929  -9.131  11.254  1.00  0.00    -0.184 F 
ENDBRANCH  23  24
ENDBRANCH  18  23
ENDBRANCH   1  15
BRANCH  12  27
HETATM   27  N   UNL     1      42.167 -10.340   1.704  1.00  0.00    -0.272 NA
HETATM   28  H   UNL     1      42.717 -10.619   0.894  1.00  0.00     0.127 HD
HETATM   29  H   UNL     1      41.244 -10.036   1.422  1.00  0.00     0.127 HD
ENDBRANCH  12  27
TORSDOF 4
ENDMDL
MODEL 9
REMARK VINA RESULT:      -7.6      5.215      7.691
REMARK  4 active torsions:
REMARK  status: ('A' for Active; 'I' for Inactive)
REMARK    1  A    between atoms: C_3  and  O_4 
REMARK    2  A    between atoms: O_4  and  C_5 
REMARK    3  A    between atoms: C_11  and  C_12 
REMARK    4  A    between atoms: C_23  and  N_24 
ROOT
HETATM    1  C   UNL     1      43.875 -11.223   5.810  1.00  0.00     0.244 A 
HETATM    2  N   UNL     1      43.198 -10.526   6.879  1.00  0.00    -0.151 N 
HETATM    3  C   UNL     1      43.903 -10.005   7.934  1.00  0.00     0.734 A 
HETATM    4  N   UNL     1      43.076  -9.414   8.766  1.00  0.00    -0.060 NA
HETATM    5  C   UNL     1      41.827  -9.513   8.208  1.00  0.00     0.103 A 
HETATM    6  C   UNL     1      41.874 -10.204   7.001  1.00  0.00     0.083 A 
HETATM    7  C   UNL     1      40.599  -9.024   8.674  1.00  0.00     0.034 A 
HETATM    8  C   UNL     1      39.451  -9.243   7.904  1.00  0.00     0.002 A 
HETATM    9  C   UNL     1      39.525  -9.937   6.694  1.00  0.00     0.002 A 
HETATM   10  C   UNL     1      40.741 -10.438   6.213  1.00  0.00     0.033 A 
HETATM   11  N   UNL     1      45.246 -10.118   8.044  1.00  0.00    -0.033 NA
HETATM   12  C   UNL     1      45.905 -10.681   7.096  1.00  0.00     0.193 A 
HETATM   13  N   UNL     1      45.329 -11.216   5.938  1.00  0.00    -0.339 N 
HETATM   14  H   UNL     1      45.905 -11.593   5.202  1.00  0.00     0.164 HD
ENDROOT
BRANCH   1  15
HETATM   15  C   UNL     1      43.468 -12.684   5.701  1.00  0.00    -0.014 A 
HETATM   16  C   UNL     1      43.217 -13.244   4.437  1.00  0.00     0.020 A 
HETATM   17  C   UNL     1      42.918 -14.609   4.286  1.00  0.00    -0.027 A 
HETATM   18  C   UNL     1      42.862 -15.416   5.431  1.00  0.00     0.086 A 
HETATM   19  C   UNL     1      42.726 -15.154   2.897  1.00  0.00     0.051 C 
HETATM   20  C   UNL     1      43.151 -14.895   6.702  1.00  0.00    -0.027 A 
HETATM   21  C   UNL     1      43.139 -15.766   7.930  1.00  0.00     0.051 C 
HETATM   22  C   UNL     1      43.436 -13.529   6.826  1.00  0.00     0.020 A 
BRANCH  18  23
HETATM   23  O   UNL     1      42.614 -16.757   5.299  1.00  0.00    -0.289 OA
BRANCH  23  24
HETATM   24  C   UNL     1      43.832 -17.481   5.165  1.00  0.00     0.505 C 
HETATM   25  F   UNL     1      43.824 -18.483   6.078  1.00  0.00    -0.184 F 
HETATM   26  F   UNL     1      43.821 -18.065   3.940  1.00  0.00    -0.184 F 
ENDBRANCH  23  24
ENDBRANCH  18  23
ENDBRANCH   1  15
BRANCH  12  27
HETATM   27  N   UNL     1      47.246 -10.815   7.112  1.00  0.00    -0.272 NA
HETATM   28  H   UNL     1      47.700  -9.959   6.800  1.00  0.00     0.127 HD
HETATM   29  H   UNL     1      47.656 -11.144   7.976  1.00  0.00     0.127 HD
ENDBRANCH  12  27
TORSDOF 4
ENDMDL
MODEL 10
REMARK VINA RESULT:      -7.6      4.428      7.561
REMARK  4 active torsions:
REMARK  status: ('A' for Active; 'I' for Inactive)
REMARK    1  A    between atoms: C_3  and  O_4 
REMARK    2  A    between atoms: O_4  and  C_5 
REMARK    3  A    between atoms: C_11  and  C_12 
REMARK    4  A    between atoms: C_23  and  N_24 
ROOT
HETATM    1  C   UNL     1      39.113 -13.023  -0.588  1.00  0.00     0.244 A 
HETATM    2  N   UNL     1      39.902 -12.192  -1.468  1.00  0.00    -0.151 N 
HETATM    3  C   UNL     1      40.174 -12.590  -2.752  1.00  0.00     0.734 A 
HETATM    4  N   UNL     1      40.894 -11.670  -3.354  1.00  0.00    -0.060 NA
HETATM    5  C   UNL     1      41.040 -10.642  -2.457  1.00  0.00     0.103 A 
HETATM    6  C   UNL     1      40.410 -10.940  -1.252  1.00  0.00     0.083 A 
HETATM    7  C   UNL     1      41.695  -9.413  -2.607  1.00  0.00     0.034 A 
HETATM    8  C   UNL     1      41.691  -8.513  -1.535  1.00  0.00     0.002 A 
HETATM    9  C   UNL     1      41.048  -8.834  -0.337  1.00  0.00     0.002 A 
HETATM   10  C   UNL     1      40.392 -10.058  -0.165  1.00  0.00     0.033 A 
HETATM   11  N   UNL     1      39.740 -13.765  -3.261  1.00  0.00    -0.033 NA
HETATM   12  C   UNL     1      38.989 -14.518  -2.541  1.00  0.00     0.193 A 
HETATM   13  N   UNL     1      38.590 -14.223  -1.233  1.00  0.00    -0.339 N 
HETATM   14  H   UNL     1      37.951 -14.826  -0.740  1.00  0.00     0.164 HD
ENDROOT
BRANCH   1  15
HETATM   15  C   UNL     1      39.887 -13.501   0.630  1.00  0.00    -0.014 A 
HETATM   16  C   UNL     1      39.532 -13.035   1.908  1.00  0.00     0.020 A 
HETATM   17  C   UNL     1      40.167 -13.515   3.065  1.00  0.00    -0.027 A 
HETATM   18  C   UNL     1      41.182 -14.471   2.930  1.00  0.00     0.086 A 
HETATM   19  C   UNL     1      39.691 -13.019   4.404  1.00  0.00     0.051 C 
HETATM   20  C   UNL     1      41.528 -14.989   1.671  1.00  0.00    -0.027 A 
HETATM   21  C   UNL     1      42.584 -16.052   1.521  1.00  0.00     0.051 C 
HETATM   22  C   UNL     1      40.886 -14.487   0.531  1.00  0.00     0.020 A 
BRANCH  18  23
HETATM   23  O   UNL     1      41.783 -14.982   4.050  1.00  0.00    -0.289 OA
BRANCH  23  24
HETATM   24  C   UNL     1      42.715 -14.050   4.588  1.00  0.00     0.505 C 
HETATM   25  F   UNL     1      43.574 -14.733   5.384  1.00  0.00    -0.184 F 
HETATM   26  F   UNL     1      43.442 -13.564   3.550  1.00  0.00    -0.184 F 
ENDBRANCH  23  24
ENDBRANCH  18  23
ENDBRANCH   1  15
BRANCH  12  27
HETATM   27  N   UNL     1      38.494 -15.693  -2.977  1.00  0.00    -0.272 NA
HETATM   28  H   UNL     1      38.985 -16.476  -2.550  1.00  0.00     0.127 HD
HETATM   29  H   UNL     1      37.492 -15.816  -2.904  1.00  0.00     0.127 HD
ENDBRANCH  12  27
TORSDOF 4
ENDMDL
