MODEL 1
REMARK VINA RESULT:      -9.7      0.000      0.000
REMARK  6 active torsions:
REMARK  status: ('A' for Active; 'I' for Inactive)
REMARK    1  A    between atoms: C_4  and  C_5 
REMARK    2  A    between atoms: N_7  and  C_8 
REMARK    3  A    between atoms: C_8  and  C_9 
REMARK    4  A    between atoms: C_9  and  C_10 
REMARK       I    between atoms: C_10  and  N_11 
REMARK    5  A    between atoms: N_11  and  N_12 
REMARK    6  A    between atoms: C_24  and  C_25 
ROOT
HETATM    1  C   UNL     1      41.716 -11.668   5.642  1.00  0.00     0.161 C 
ENDROOT
BRANCH   1   2
HETATM    2  N   UNL     1      42.613 -12.804   5.783  1.00  0.00    -0.268 N 
HETATM    3  N   UNL     1      42.360 -13.901   5.048  1.00  0.00    -0.172 NA
HETATM    4  C   UNL     1      43.375 -14.741   5.304  1.00  0.00     0.089 A 
HETATM    5  C   UNL     1      44.283 -14.137   6.211  1.00  0.00     0.066 A 
HETATM    6  C   UNL     1      43.779 -12.883   6.505  1.00  0.00     0.065 A 
BRANCH   4   7
HETATM    7  C   UNL     1      43.463 -16.063   4.667  1.00  0.00    -0.006 A 
HETATM    8  C   UNL     1      43.090 -16.230   3.324  1.00  0.00     0.014 A 
HETATM    9  C   UNL     1      43.169 -17.482   2.707  1.00  0.00     0.001 A 
HETATM   10  C   UNL     1      43.624 -18.586   3.424  1.00  0.00     0.000 A 
HETATM   11  C   UNL     1      44.002 -18.437   4.757  1.00  0.00     0.001 A 
HETATM   12  C   UNL     1      43.921 -17.184   5.374  1.00  0.00     0.014 A 
ENDBRANCH   4   7
BRANCH   6  13
HETATM   13  C   UNL     1      44.371 -11.819   7.309  1.00  0.00    -0.008 A 
HETATM   14  C   UNL     1      43.737 -11.330   8.457  1.00  0.00     0.014 A 
HETATM   15  C   UNL     1      44.320 -10.304   9.204  1.00  0.00     0.001 A 
HETATM   16  C   UNL     1      45.548  -9.768   8.817  1.00  0.00     0.000 A 
HETATM   17  C   UNL     1      46.197 -10.261   7.689  1.00  0.00     0.001 A 
HETATM   18  C   UNL     1      45.612 -11.284   6.939  1.00  0.00     0.014 A 
ENDBRANCH   6  13
ENDBRANCH   1   2
BRANCH   1  19
HETATM   19  C   UNL     1      42.338 -10.524   4.861  1.00  0.00     0.126 C 
BRANCH  19  20
HETATM   20  C   UNL     1      42.514 -10.886   3.404  1.00  0.00     0.239 C 
HETATM   21  N   UNL     1      41.386 -10.673   2.634  1.00  0.00    -0.246 N 
HETATM   22  H   UNL     1      40.580 -10.168   3.010  1.00  0.00     0.192 HD
HETATM   23  O   UNL     1      43.580 -11.346   2.998  1.00  0.00    -0.272 OA
BRANCH  21  24
HETATM   24  N   UNL     1      41.401 -10.991   1.307  1.00  0.00    -0.166 NA
HETATM   25  C   UNL     1      40.716 -12.029   0.951  1.00  0.00     0.157 A 
HETATM   26  C   UNL     1      39.914 -13.000   1.823  1.00  0.00     0.277 A 
HETATM   27  C   UNL     1      40.584 -12.521  -0.415  1.00  0.00     0.027 A 
HETATM   28  O   UNL     1      39.842 -12.960   3.034  1.00  0.00    -0.266 OA
HETATM   29  N   UNL     1      39.368 -13.917   0.951  1.00  0.00    -0.321 N 
HETATM   30  C   UNL     1      39.768 -13.649  -0.356  1.00  0.00     0.048 A 
HETATM   31  H   UNL     1      38.789 -14.687   1.249  1.00  0.00     0.169 HD
HETATM   32  C   UNL     1      39.459 -14.366  -1.491  1.00  0.00     0.030 A 
HETATM   33  C   UNL     1      39.999 -13.916  -2.703  1.00  0.00     0.002 A 
HETATM   34  C   UNL     1      40.823 -12.772  -2.755  1.00  0.00     0.001 A 
HETATM   35  C   UNL     1      41.126 -12.056  -1.595  1.00  0.00     0.016 A 
ENDBRANCH  21  24
ENDBRANCH  19  20
ENDBRANCH   1  19
TORSDOF 6
ENDMDL
MODEL 2
REMARK VINA RESULT:      -9.7      1.955      8.296
REMARK  6 active torsions:
REMARK  status: ('A' for Active; 'I' for Inactive)
REMARK    1  A    between atoms: C_4  and  C_5 
REMARK    2  A    between atoms: N_7  and  C_8 
REMARK    3  A    between atoms: C_8  and  C_9 
REMARK    4  A    between atoms: C_9  and  C_10 
REMARK       I    between atoms: C_10  and  N_11 
REMARK    5  A    between atoms: N_11  and  N_12 
REMARK    6  A    between atoms: C_24  and  C_25 
ROOT
HETATM    1  C   UNL     1      43.201 -13.424   2.776  1.00  0.00     0.161 C 
ENDROOT
BRANCH   1   2
HETATM    2  N   UNL     1      42.155 -14.128   2.052  1.00  0.00    -0.268 N 
HETATM    3  N   UNL     1      41.435 -13.436   1.152  1.00  0.00    -0.172 NA
HETATM    4  C   UNL     1      40.620 -14.336   0.582  1.00  0.00     0.089 A 
HETATM    5  C   UNL     1      40.855 -15.619   1.138  1.00  0.00     0.066 A 
HETATM    6  C   UNL     1      41.855 -15.468   2.082  1.00  0.00     0.065 A 
BRANCH   4   7
HETATM    7  C   UNL     1      39.675 -13.959  -0.479  1.00  0.00    -0.006 A 
HETATM    8  C   UNL     1      39.050 -12.702  -0.460  1.00  0.00     0.014 A 
HETATM    9  C   UNL     1      38.148 -12.332  -1.463  1.00  0.00     0.001 A 
HETATM   10  C   UNL     1      37.861 -13.214  -2.501  1.00  0.00     0.000 A 
HETATM   11  C   UNL     1      38.474 -14.464  -2.538  1.00  0.00     0.001 A 
HETATM   12  C   UNL     1      39.375 -14.834  -1.533  1.00  0.00     0.014 A 
ENDBRANCH   4   7
BRANCH   6  13
HETATM   13  C   UNL     1      42.535 -16.489   2.873  1.00  0.00    -0.008 A 
HETATM   14  C   UNL     1      42.553 -16.438   4.272  1.00  0.00     0.014 A 
HETATM   15  C   UNL     1      43.220 -17.422   5.006  1.00  0.00     0.001 A 
HETATM   16  C   UNL     1      43.860 -18.472   4.349  1.00  0.00     0.000 A 
HETATM   17  C   UNL     1      43.830 -18.543   2.959  1.00  0.00     0.001 A 
HETATM   18  C   UNL     1      43.168 -17.557   2.224  1.00  0.00     0.014 A 
ENDBRANCH   6  13
ENDBRANCH   1   2
BRANCH   1  19
HETATM   19  C   UNL     1      42.875 -11.957   2.997  1.00  0.00     0.126 C 
BRANCH  19  20
HETATM   20  C   UNL     1      42.447 -11.699   4.423  1.00  0.00     0.239 C 
HETATM   21  N   UNL     1      43.038 -10.586   4.992  1.00  0.00    -0.246 N 
HETATM   22  H   UNL     1      43.582  -9.931   4.424  1.00  0.00     0.192 HD
HETATM   23  O   UNL     1      41.658 -12.455   4.986  1.00  0.00    -0.272 OA
BRANCH  21  24
HETATM   24  N   UNL     1      42.763 -10.259   6.287  1.00  0.00    -0.166 NA
HETATM   25  C   UNL     1      43.739 -10.353   7.130  1.00  0.00     0.157 A 
HETATM   26  C   UNL     1      45.176 -10.832   6.892  1.00  0.00     0.277 A 
HETATM   27  C   UNL     1      43.660 -10.031   8.550  1.00  0.00     0.027 A 
HETATM   28  O   UNL     1      45.608 -11.256   5.840  1.00  0.00    -0.266 OA
HETATM   29  N   UNL     1      45.809 -10.725   8.111  1.00  0.00    -0.321 N 
HETATM   30  C   UNL     1      44.924 -10.270   9.085  1.00  0.00     0.048 A 
HETATM   31  H   UNL     1      46.774 -10.980   8.257  1.00  0.00     0.169 HD
HETATM   32  C   UNL     1      45.179 -10.076  10.426  1.00  0.00     0.030 A 
HETATM   33  C   UNL     1      44.117  -9.631  11.224  1.00  0.00     0.002 A 
HETATM   34  C   UNL     1      42.841  -9.390  10.674  1.00  0.00     0.001 A 
HETATM   35  C   UNL     1      42.599  -9.591   9.313  1.00  0.00     0.016 A 
ENDBRANCH  21  24
ENDBRANCH  19  20
ENDBRANCH   1  19
TORSDOF 6
ENDMDL
MODEL 3
REMARK VINA RESULT:      -9.6      1.677      7.637
REMARK  6 active torsions:
REMARK  status: ('A' for Active; 'I' for Inactive)
REMARK    1  A    between atoms: C_4  and  C_5 
REMARK    2  A    between atoms: N_7  and  C_8 
REMARK    3  A    between atoms: C_8  and  C_9 
REMARK    4  A    between atoms: C_9  and  C_10 
REMARK       I    between atoms: C_10  and  N_11 
REMARK    5  A    between atoms: N_11  and  N_12 
REMARK    6  A    between atoms: C_24  and  C_25 
ROOT
HETATM    1  C   UNL     1      40.605 -12.620   2.929  1.00  0.00     0.161 C 
ENDROOT
BRANCH   1   2
HETATM    2  N   UNL     1      41.269 -13.808   2.415  1.00  0.00    -0.268 N 
HETATM    3  N   UNL     1      41.889 -14.614   3.295  1.00  0.00    -0.172 NA
HETATM    4  C   UNL     1      42.328 -15.656   2.573  1.00  0.00     0.089 A 
HETATM    5  C   UNL     1      41.956 -15.491   1.214  1.00  0.00     0.066 A 
HETATM    6  C   UNL     1      41.268 -14.295   1.130  1.00  0.00     0.065 A 
BRANCH   4   7
HETATM    7  C   UNL     1      43.054 -16.774   3.192  1.00  0.00    -0.006 A 
HETATM    8  C   UNL     1      43.558 -16.658   4.497  1.00  0.00     0.014 A 
HETATM    9  C   UNL     1      44.251 -17.714   5.097  1.00  0.00     0.001 A 
HETATM   10  C   UNL     1      44.446 -18.904   4.400  1.00  0.00     0.000 A 
HETATM   11  C   UNL     1      43.949 -19.039   3.106  1.00  0.00     0.001 A 
HETATM   12  C   UNL     1      43.258 -17.980   2.505  1.00  0.00     0.014 A 
ENDBRANCH   4   7
BRANCH   6  13
HETATM   13  C   UNL     1      40.588 -13.702  -0.017  1.00  0.00    -0.008 A 
HETATM   14  C   UNL     1      40.905 -12.417  -0.471  1.00  0.00     0.014 A 
HETATM   15  C   UNL     1      40.233 -11.868  -1.566  1.00  0.00     0.001 A 
HETATM   16  C   UNL     1      39.250 -12.605  -2.224  1.00  0.00     0.000 A 
HETATM   17  C   UNL     1      38.941 -13.892  -1.793  1.00  0.00     0.001 A 
HETATM   18  C   UNL     1      39.609 -14.439  -0.696  1.00  0.00     0.014 A 
ENDBRANCH   6  13
ENDBRANCH   1   2
BRANCH   1  19
HETATM   19  C   UNL     1      39.595 -12.939   4.016  1.00  0.00     0.126 C 
BRANCH  19  20
HETATM   20  C   UNL     1      40.028 -12.378   5.350  1.00  0.00     0.239 C 
HETATM   21  N   UNL     1      41.071 -11.474   5.266  1.00  0.00    -0.246 N 
HETATM   22  H   UNL     1      41.388 -11.119   4.360  1.00  0.00     0.192 HD
HETATM   23  O   UNL     1      39.482 -12.744   6.390  1.00  0.00    -0.272 OA
BRANCH  21  24
HETATM   24  N   UNL     1      41.581 -10.918   6.403  1.00  0.00    -0.166 NA
HETATM   25  C   UNL     1      42.869 -10.915   6.520  1.00  0.00     0.157 A 
HETATM   26  C   UNL     1      43.925 -11.497   5.574  1.00  0.00     0.277 A 
HETATM   27  C   UNL     1      43.610 -10.352   7.643  1.00  0.00     0.027 A 
HETATM   28  O   UNL     1      43.690 -12.114   4.556  1.00  0.00    -0.266 OA
HETATM   29  N   UNL     1      45.141 -11.215   6.158  1.00  0.00    -0.321 N 
HETATM   30  C   UNL     1      44.961 -10.557   7.373  1.00  0.00     0.048 A 
HETATM   31  H   UNL     1      46.025 -11.487   5.755  1.00  0.00     0.169 HD
HETATM   32  C   UNL     1      45.936 -10.150   8.258  1.00  0.00     0.030 A 
HETATM   33  C   UNL     1      45.511  -9.523   9.438  1.00  0.00     0.002 A 
HETATM   34  C   UNL     1      44.141  -9.318   9.703  1.00  0.00     0.001 A 
HETATM   35  C   UNL     1      43.166  -9.736   8.794  1.00  0.00     0.016 A 
ENDBRANCH  21  24
ENDBRANCH  19  20
ENDBRANCH   1  19
TORSDOF 6
ENDMDL
MODEL 4
REMARK VINA RESULT:      -9.6      1.569      7.428
REMARK  6 active torsions:
REMARK  status: ('A' for Active; 'I' for Inactive)
REMARK    1  A    between atoms: C_4  and  C_5 
REMARK    2  A    between atoms: N_7  and  C_8 
REMARK    3  A    between atoms: C_8  and  C_9 
REMARK    4  A    between atoms: C_9  and  C_10 
REMARK       I    between atoms: C_10  and  N_11 
REMARK    5  A    between atoms: N_11  and  N_12 
REMARK    6  A    between atoms: C_24  and  C_25 
ROOT
HETATM    1  C   UNL     1      39.386 -13.212   2.597  1.00  0.00     0.161 C 
ENDROOT
BRANCH   1   2
HETATM    2  N   UNL     1      40.456 -14.118   2.208  1.00  0.00    -0.268 N 
HETATM    3  N   UNL     1      41.037 -14.856   3.170  1.00  0.00    -0.172 NA
HETATM    4  C   UNL     1      41.910 -15.649   2.530  1.00  0.00     0.089 A 
HETATM    5  C   UNL     1      41.853 -15.399   1.134  1.00  0.00     0.066 A 
HETATM    6  C   UNL     1      40.905 -14.412   0.943  1.00  0.00     0.065 A 
BRANCH   4   7
HETATM    7  C   UNL     1      42.739 -16.625   3.250  1.00  0.00    -0.006 A 
HETATM    8  C   UNL     1      43.160 -17.805   2.617  1.00  0.00     0.014 A 
HETATM    9  C   UNL     1      43.949 -18.742   3.293  1.00  0.00     0.001 A 
HETATM   10  C   UNL     1      44.329 -18.510   4.612  1.00  0.00     0.000 A 
HETATM   11  C   UNL     1      43.924 -17.343   5.255  1.00  0.00     0.001 A 
HETATM   12  C   UNL     1      43.134 -16.407   4.579  1.00  0.00     0.014 A 
ENDBRANCH   4   7
BRANCH   6  13
HETATM   13  C   UNL     1      40.392 -13.856  -0.305  1.00  0.00    -0.008 A 
HETATM   14  C   UNL     1      40.836 -12.622  -0.793  1.00  0.00     0.014 A 
HETATM   15  C   UNL     1      40.323 -12.108  -1.986  1.00  0.00     0.001 A 
HETATM   16  C   UNL     1      39.373 -12.830  -2.708  1.00  0.00     0.000 A 
HETATM   17  C   UNL     1      38.940 -14.068  -2.242  1.00  0.00     0.001 A 
HETATM   18  C   UNL     1      39.449 -14.580  -1.046  1.00  0.00     0.014 A 
ENDBRANCH   6  13
ENDBRANCH   1   2
BRANCH   1  19
HETATM   19  C   UNL     1      39.801 -11.753   2.533  1.00  0.00     0.126 C 
BRANCH  19  20
HETATM   20  C   UNL     1      41.225 -11.566   3.004  1.00  0.00     0.239 C 
HETATM   21  N   UNL     1      41.432 -11.934   4.321  1.00  0.00    -0.246 N 
HETATM   22  H   UNL     1      40.710 -12.431   4.848  1.00  0.00     0.192 HD
HETATM   23  O   UNL     1      42.078 -11.105   2.248  1.00  0.00    -0.272 OA
BRANCH  21  24
HETATM   24  N   UNL     1      42.667 -11.784   4.880  1.00  0.00    -0.166 NA
HETATM   25  C   UNL     1      42.722 -11.144   6.003  1.00  0.00     0.157 A 
HETATM   26  C   UNL     1      41.588 -10.475   6.788  1.00  0.00     0.277 A 
HETATM   27  C   UNL     1      43.936 -10.895   6.772  1.00  0.00     0.027 A 
HETATM   28  O   UNL     1      40.431 -10.407   6.427  1.00  0.00    -0.266 OA
HETATM   29  N   UNL     1      42.179  -9.947   7.915  1.00  0.00    -0.321 N 
HETATM   30  C   UNL     1      43.553 -10.179   7.903  1.00  0.00     0.048 A 
HETATM   31  H   UNL     1      41.669  -9.438   8.621  1.00  0.00     0.169 HD
HETATM   32  C   UNL     1      44.480  -9.769   8.837  1.00  0.00     0.030 A 
HETATM   33  C   UNL     1      45.821 -10.102   8.600  1.00  0.00     0.002 A 
HETATM   34  C   UNL     1      46.201 -10.829   7.452  1.00  0.00     0.001 A 
HETATM   35  C   UNL     1      45.247 -11.237   6.516  1.00  0.00     0.016 A 
ENDBRANCH  21  24
ENDBRANCH  19  20
ENDBRANCH   1  19
TORSDOF 6
ENDMDL
MODEL 5
REMARK VINA RESULT:      -9.5      3.313      7.934
REMARK  6 active torsions:
REMARK  status: ('A' for Active; 'I' for Inactive)
REMARK    1  A    between atoms: C_4  and  C_5 
REMARK    2  A    between atoms: N_7  and  C_8 
REMARK    3  A    between atoms: C_8  and  C_9 
REMARK    4  A    between atoms: C_9  and  C_10 
REMARK       I    between atoms: C_10  and  N_11 
REMARK    5  A    between atoms: N_11  and  N_12 
REMARK    6  A    between atoms: C_24  and  C_25 
ROOT
HETATM    1  C   UNL     1      43.113 -13.944   6.673  1.00  0.00     0.161 C 
ENDROOT
BRANCH   1   2
HETATM    2  N   UNL     1      43.107 -14.753   5.464  1.00  0.00    -0.268 N 
HETATM    3  N   UNL     1      43.449 -16.048   5.571  1.00  0.00    -0.172 NA
HETATM    4  C   UNL     1      43.273 -16.564   4.345  1.00  0.00     0.089 A 
HETATM    5  C   UNL     1      42.797 -15.560   3.464  1.00  0.00     0.066 A 
HETATM    6  C   UNL     1      42.689 -14.397   4.205  1.00  0.00     0.065 A 
BRANCH   4   7
HETATM    7  C   UNL     1      43.534 -17.982   4.059  1.00  0.00    -0.006 A 
HETATM    8  C   UNL     1      43.958 -18.847   5.080  1.00  0.00     0.014 A 
HETATM    9  C   UNL     1      44.209 -20.198   4.820  1.00  0.00     0.001 A 
HETATM   10  C   UNL     1      44.037 -20.704   3.534  1.00  0.00     0.000 A 
HETATM   11  C   UNL     1      43.613 -19.861   2.509  1.00  0.00     0.001 A 
HETATM   12  C   UNL     1      43.363 -18.509   2.770  1.00  0.00     0.014 A 
ENDBRANCH   4   7
BRANCH   6  13
HETATM   13  C   UNL     1      42.158 -13.098   3.806  1.00  0.00    -0.008 A 
HETATM   14  C   UNL     1      40.909 -12.649   4.251  1.00  0.00     0.014 A 
HETATM   15  C   UNL     1      40.419 -11.405   3.846  1.00  0.00     0.001 A 
HETATM   16  C   UNL     1      41.179 -10.594   3.006  1.00  0.00     0.000 A 
HETATM   17  C   UNL     1      42.432 -11.021   2.573  1.00  0.00     0.001 A 
HETATM   18  C   UNL     1      42.920 -12.267   2.973  1.00  0.00     0.014 A 
ENDBRANCH   6  13
ENDBRANCH   1   2
BRANCH   1  19
HETATM   19  C   UNL     1      44.315 -13.020   6.753  1.00  0.00     0.126 C 
BRANCH  19  20
HETATM   20  C   UNL     1      43.891 -11.578   6.902  1.00  0.00     0.239 C 
HETATM   21  N   UNL     1      43.637 -11.201   8.208  1.00  0.00    -0.246 N 
HETATM   22  H   UNL     1      43.879 -11.816   8.990  1.00  0.00     0.192 HD
HETATM   23  O   UNL     1      43.776 -10.853   5.915  1.00  0.00    -0.272 OA
BRANCH  21  24
HETATM   24  N   UNL     1      43.213  -9.933   8.479  1.00  0.00    -0.166 NA
HETATM   25  C   UNL     1      43.208  -9.575   9.722  1.00  0.00     0.157 A 
HETATM   26  C   UNL     1      43.570 -10.398  10.963  1.00  0.00     0.277 A 
HETATM   27  C   UNL     1      42.814  -8.262  10.218  1.00  0.00     0.027 A 
HETATM   28  O   UNL     1      43.882 -11.571  10.961  1.00  0.00    -0.266 OA
HETATM   29  N   UNL     1      43.408  -9.544  12.033  1.00  0.00    -0.321 N 
HETATM   30  C   UNL     1      42.954  -8.300  11.604  1.00  0.00     0.048 A 
HETATM   31  H   UNL     1      43.572  -9.819  12.990  1.00  0.00     0.169 HD
HETATM   32  C   UNL     1      42.641  -7.206  12.382  1.00  0.00     0.030 A 
HETATM   33  C   UNL     1      42.177  -6.060  11.724  1.00  0.00     0.002 A 
HETATM   34  C   UNL     1      42.039  -6.029  10.320  1.00  0.00     0.001 A 
HETATM   35  C   UNL     1      42.361  -7.146   9.545  1.00  0.00     0.016 A 
ENDBRANCH  21  24
ENDBRANCH  19  20
ENDBRANCH   1  19
TORSDOF 6
ENDMDL
MODEL 6
REMARK VINA RESULT:      -9.4      1.707      5.321
REMARK  6 active torsions:
REMARK  status: ('A' for Active; 'I' for Inactive)
REMARK    1  A    between atoms: C_4  and  C_5 
REMARK    2  A    between atoms: N_7  and  C_8 
REMARK    3  A    between atoms: C_8  and  C_9 
REMARK    4  A    between atoms: C_9  and  C_10 
REMARK       I    between atoms: C_10  and  N_11 
REMARK    5  A    between atoms: N_11  and  N_12 
REMARK    6  A    between atoms: C_24  and  C_25 
ROOT
HETATM    1  C   UNL     1      40.728 -13.765   5.935  1.00  0.00     0.161 C 
ENDROOT
BRANCH   1   2
HETATM    2  N   UNL     1      42.005 -13.082   5.801  1.00  0.00    -0.268 N 
HETATM    3  N   UNL     1      42.291 -12.102   6.676  1.00  0.00    -0.172 NA
HETATM    4  C   UNL     1      43.542 -11.716   6.381  1.00  0.00     0.089 A 
HETATM    5  C   UNL     1      44.043 -12.491   5.304  1.00  0.00     0.066 A 
HETATM    6  C   UNL     1      43.040 -13.373   4.945  1.00  0.00     0.065 A 
BRANCH   4   7
HETATM    7  C   UNL     1      44.223 -10.658   7.140  1.00  0.00    -0.006 A 
HETATM    8  C   UNL     1      45.623 -10.645   7.243  1.00  0.00     0.014 A 
HETATM    9  C   UNL     1      46.282  -9.644   7.963  1.00  0.00     0.001 A 
HETATM   10  C   UNL     1      45.550  -8.638   8.588  1.00  0.00     0.000 A 
HETATM   11  C   UNL     1      44.160  -8.632   8.493  1.00  0.00     0.001 A 
HETATM   12  C   UNL     1      43.501  -9.636   7.774  1.00  0.00     0.014 A 
ENDBRANCH   4   7
BRANCH   6  13
HETATM   13  C   UNL     1      43.070 -14.450   3.961  1.00  0.00    -0.008 A 
HETATM   14  C   UNL     1      42.989 -15.794   4.345  1.00  0.00     0.014 A 
HETATM   15  C   UNL     1      43.029 -16.807   3.383  1.00  0.00     0.001 A 
HETATM   16  C   UNL     1      43.137 -16.484   2.031  1.00  0.00     0.000 A 
HETATM   17  C   UNL     1      43.198 -15.150   1.638  1.00  0.00     0.001 A 
HETATM   18  C   UNL     1      43.162 -14.137   2.599  1.00  0.00     0.014 A 
ENDBRANCH   6  13
ENDBRANCH   1   2
BRANCH   1  19
HETATM   19  C   UNL     1      39.544 -12.830   5.762  1.00  0.00     0.126 C 
BRANCH  19  20
HETATM   20  C   UNL     1      39.608 -12.101   4.441  1.00  0.00     0.239 C 
HETATM   21  N   UNL     1      39.658 -12.937   3.341  1.00  0.00    -0.246 N 
HETATM   22  H   UNL     1      39.501 -13.944   3.438  1.00  0.00     0.192 HD
HETATM   23  O   UNL     1      39.634 -10.871   4.405  1.00  0.00    -0.272 OA
BRANCH  21  24
HETATM   24  N   UNL     1      39.752 -12.406   2.088  1.00  0.00    -0.166 NA
HETATM   25  C   UNL     1      39.758 -13.242   1.101  1.00  0.00     0.157 A 
HETATM   26  C   UNL     1      39.723 -14.774   1.136  1.00  0.00     0.277 A 
HETATM   27  C   UNL     1      39.829 -12.880  -0.309  1.00  0.00     0.027 A 
HETATM   28  O   UNL     1      39.732 -15.453   2.142  1.00  0.00    -0.266 OA
HETATM   29  N   UNL     1      39.736 -15.175  -0.182  1.00  0.00    -0.321 N 
HETATM   30  C   UNL     1      39.811 -14.072  -1.029  1.00  0.00     0.048 A 
HETATM   31  H   UNL     1      39.725 -16.142  -0.466  1.00  0.00     0.169 HD
HETATM   32  C   UNL     1      39.883 -14.075  -2.406  1.00  0.00     0.030 A 
HETATM   33  C   UNL     1      39.977 -12.833  -3.047  1.00  0.00     0.002 A 
HETATM   34  C   UNL     1      39.993 -11.630  -2.311  1.00  0.00     0.001 A 
HETATM   35  C   UNL     1      39.918 -11.644  -0.916  1.00  0.00     0.016 A 
ENDBRANCH  21  24
ENDBRANCH  19  20
ENDBRANCH   1  19
TORSDOF 6
ENDMDL
MODEL 7
REMARK VINA RESULT:      -9.3      2.427      4.259
REMARK  6 active torsions:
REMARK  status: ('A' for Active; 'I' for Inactive)
REMARK    1  A    between atoms: C_4  and  C_5 
REMARK    2  A    between atoms: N_7  and  C_8 
REMARK    3  A    between atoms: C_8  and  C_9 
REMARK    4  A    between atoms: C_9  and  C_10 
REMARK       I    between atoms: C_10  and  N_11 
REMARK    5  A    between atoms: N_11  and  N_12 
REMARK    6  A    between atoms: C_24  and  C_25 
ROOT
HETATM    1  C   UNL     1      40.761 -14.357   2.052  1.00  0.00     0.161 C 
ENDROOT
BRANCH   1   2
HETATM    2  N   UNL     1      41.648 -15.150   2.889  1.00  0.00    -0.268 N 
HETATM    3  N   UNL     1      41.835 -16.441   2.563  1.00  0.00    -0.172 NA
HETATM    4  C   UNL     1      42.749 -16.897   3.433  1.00  0.00     0.089 A 
HETATM    5  C   UNL     1      43.144 -15.852   4.308  1.00  0.00     0.066 A 
HETATM    6  C   UNL     1      42.427 -14.729   3.939  1.00  0.00     0.065 A 
BRANCH   4   7
HETATM    7  C   UNL     1      43.233 -18.284   3.388  1.00  0.00    -0.006 A 
HETATM    8  C   UNL     1      43.103 -19.044   2.215  1.00  0.00     0.014 A 
HETATM    9  C   UNL     1      43.560 -20.365   2.160  1.00  0.00     0.001 A 
HETATM   10  C   UNL     1      44.154 -20.944   3.278  1.00  0.00     0.000 A 
HETATM   11  C   UNL     1      44.295 -20.203   4.449  1.00  0.00     0.001 A 
HETATM   12  C   UNL     1      43.837 -18.881   4.504  1.00  0.00     0.014 A 
ENDBRANCH   4   7
BRANCH   6  13
HETATM   13  C   UNL     1      42.524 -13.366   4.451  1.00  0.00    -0.008 A 
HETATM   14  C   UNL     1      43.454 -12.456   3.936  1.00  0.00     0.014 A 
HETATM   15  C   UNL     1      43.533 -11.159   4.451  1.00  0.00     0.001 A 
HETATM   16  C   UNL     1      42.675 -10.759   5.474  1.00  0.00     0.000 A 
HETATM   17  C   UNL     1      41.732 -11.651   5.979  1.00  0.00     0.001 A 
HETATM   18  C   UNL     1      41.656 -12.948   5.469  1.00  0.00     0.014 A 
ENDBRANCH   6  13
ENDBRANCH   1   2
BRANCH   1  19
HETATM   19  C   UNL     1      40.186 -15.150   0.892  1.00  0.00     0.126 C 
BRANCH  19  20
HETATM   20  C   UNL     1      40.075 -14.301  -0.353  1.00  0.00     0.239 C 
HETATM   21  N   UNL     1      40.869 -13.170  -0.332  1.00  0.00    -0.246 N 
HETATM   22  H   UNL     1      41.573 -13.035   0.399  1.00  0.00     0.192 HD
HETATM   23  O   UNL     1      39.314 -14.623  -1.264  1.00  0.00    -0.272 OA
BRANCH  21  24
HETATM   24  N   UNL     1      40.838 -12.299  -1.382  1.00  0.00    -0.166 NA
HETATM   25  C   UNL     1      41.173 -11.075  -1.131  1.00  0.00     0.157 A 
HETATM   26  C   UNL     1      41.561 -10.437   0.207  1.00  0.00     0.277 A 
HETATM   27  C   UNL     1      41.227  -9.999  -2.114  1.00  0.00     0.027 A 
HETATM   28  O   UNL     1      41.564 -11.004   1.280  1.00  0.00    -0.266 OA
HETATM   29  N   UNL     1      41.836  -9.117  -0.078  1.00  0.00    -0.321 N 
HETATM   30  C   UNL     1      41.629  -8.854  -1.430  1.00  0.00     0.048 A 
HETATM   31  H   UNL     1      42.116  -8.446   0.621  1.00  0.00     0.169 HD
HETATM   32  C   UNL     1      41.763  -7.646  -2.080  1.00  0.00     0.030 A 
HETATM   33  C   UNL     1      41.476  -7.618  -3.451  1.00  0.00     0.002 A 
HETATM   34  C   UNL     1      41.070  -8.782  -4.136  1.00  0.00     0.001 A 
HETATM   35  C   UNL     1      40.940 -10.000  -3.463  1.00  0.00     0.016 A 
ENDBRANCH  21  24
ENDBRANCH  19  20
ENDBRANCH   1  19
TORSDOF 6
ENDMDL
MODEL 8
REMARK VINA RESULT:      -9.2      3.716      8.338
REMARK  6 active torsions:
REMARK  status: ('A' for Active; 'I' for Inactive)
REMARK    1  A    between atoms: C_4  and  C_5 
REMARK    2  A    between atoms: N_7  and  C_8 
REMARK    3  A    between atoms: C_8  and  C_9 
REMARK    4  A    between atoms: C_9  and  C_10 
REMARK       I    between atoms: C_10  and  N_11 
REMARK    5  A    between atoms: N_11  and  N_12 
REMARK    6  A    between atoms: C_24  and  C_25 
ROOT
HETATM    1  C   UNL     1      43.260 -13.178   7.186  1.00  0.00     0.161 C 
ENDROOT
BRANCH   1   2
HETATM    2  N   UNL     1      42.851 -13.873   5.975  1.00  0.00    -0.268 N 
HETATM    3  N   UNL     1      43.439 -15.049   5.694  1.00  0.00    -0.172 NA
HETATM    4  C   UNL     1      42.820 -15.501   4.593  1.00  0.00     0.089 A 
HETATM    5  C   UNL     1      41.815 -14.582   4.194  1.00  0.00     0.066 A 
HETATM    6  C   UNL     1      41.844 -13.539   5.102  1.00  0.00     0.065 A 
BRANCH   4   7
HETATM    7  C   UNL     1      43.178 -16.787   3.978  1.00  0.00    -0.006 A 
HETATM    8  C   UNL     1      44.090 -17.647   4.609  1.00  0.00     0.014 A 
HETATM    9  C   UNL     1      44.440 -18.872   4.034  1.00  0.00     0.001 A 
HETATM   10  C   UNL     1      43.880 -19.256   2.818  1.00  0.00     0.000 A 
HETATM   11  C   UNL     1      42.970 -18.417   2.179  1.00  0.00     0.001 A 
HETATM   12  C   UNL     1      42.622 -17.190   2.754  1.00  0.00     0.014 A 
ENDBRANCH   4   7
BRANCH   6  13
HETATM   13  C   UNL     1      40.959 -12.384   5.205  1.00  0.00    -0.008 A 
HETATM   14  C   UNL     1      39.867 -12.376   6.082  1.00  0.00     0.014 A 
HETATM   15  C   UNL     1      39.028 -11.261   6.155  1.00  0.00     0.001 A 
HETATM   16  C   UNL     1      39.282 -10.141   5.364  1.00  0.00     0.000 A 
HETATM   17  C   UNL     1      40.377 -10.132   4.504  1.00  0.00     0.001 A 
HETATM   18  C   UNL     1      41.213 -11.248   4.427  1.00  0.00     0.014 A 
ENDBRANCH   6  13
ENDBRANCH   1   2
BRANCH   1  19
HETATM   19  C   UNL     1      43.807 -11.789   6.907  1.00  0.00     0.126 C 
BRANCH  19  20
HETATM   20  C   UNL     1      44.214 -11.093   8.185  1.00  0.00     0.239 C 
HETATM   21  N   UNL     1      43.157 -10.527   8.875  1.00  0.00    -0.246 N 
HETATM   22  H   UNL     1      42.189 -10.718   8.604  1.00  0.00     0.192 HD
HETATM   23  O   UNL     1      45.395 -11.045   8.523  1.00  0.00    -0.272 OA
BRANCH  21  24
HETATM   24  N   UNL     1      43.392  -9.839  10.030  1.00  0.00    -0.166 NA
HETATM   25  C   UNL     1      42.387  -9.208  10.544  1.00  0.00     0.157 A 
HETATM   26  C   UNL     1      40.956  -9.076  10.011  1.00  0.00     0.277 A 
HETATM   27  C   UNL     1      42.422  -8.435  11.780  1.00  0.00     0.027 A 
HETATM   28  O   UNL     1      40.556  -9.529   8.958  1.00  0.00    -0.266 OA
HETATM   29  N   UNL     1      40.284  -8.313  10.940  1.00  0.00    -0.321 N 
HETATM   30  C   UNL     1      41.139  -7.924  11.968  1.00  0.00     0.048 A 
HETATM   31  H   UNL     1      39.312  -8.057  10.847  1.00  0.00     0.169 HD
HETATM   32  C   UNL     1      40.841  -7.126  13.051  1.00  0.00     0.030 A 
HETATM   33  C   UNL     1      41.879  -6.850  13.951  1.00  0.00     0.002 A 
HETATM   34  C   UNL     1      43.174  -7.371  13.754  1.00  0.00     0.001 A 
HETATM   35  C   UNL     1      43.460  -8.180  12.651  1.00  0.00     0.016 A 
ENDBRANCH  21  24
ENDBRANCH  19  20
ENDBRANCH   1  19
TORSDOF 6
ENDMDL
MODEL 9
REMARK VINA RESULT:      -9.2      1.883      5.575
REMARK  6 active torsions:
REMARK  status: ('A' for Active; 'I' for Inactive)
REMARK    1  A    between atoms: C_4  and  C_5 
REMARK    2  A    between atoms: N_7  and  C_8 
REMARK    3  A    between atoms: C_8  and  C_9 
REMARK    4  A    between atoms: C_9  and  C_10 
REMARK       I    between atoms: C_10  and  N_11 
REMARK    5  A    between atoms: N_11  and  N_12 
REMARK    6  A    between atoms: C_24  and  C_25 
ROOT
HETATM    1  C   UNL     1      41.093 -16.209   3.964  1.00  0.00     0.161 C 
ENDROOT
BRANCH   1   2
HETATM    2  N   UNL     1      42.179 -15.621   4.732  1.00  0.00    -0.268 N 
HETATM    3  N   UNL     1      42.115 -14.307   5.012  1.00  0.00    -0.172 NA
HETATM    4  C   UNL     1      43.178 -14.058   5.791  1.00  0.00     0.089 A 
HETATM    5  C   UNL     1      43.908 -15.255   6.006  1.00  0.00     0.066 A 
HETATM    6  C   UNL     1      43.246 -16.256   5.321  1.00  0.00     0.065 A 
BRANCH   4   7
HETATM    7  C   UNL     1      43.448 -12.714   6.322  1.00  0.00    -0.006 A 
HETATM    8  C   UNL     1      44.719 -12.389   6.820  1.00  0.00     0.014 A 
HETATM    9  C   UNL     1      44.988 -11.115   7.328  1.00  0.00     0.001 A 
HETATM   10  C   UNL     1      43.989 -10.145   7.343  1.00  0.00     0.000 A 
HETATM   11  C   UNL     1      42.722 -10.449   6.849  1.00  0.00     0.001 A 
HETATM   12  C   UNL     1      42.453 -11.725   6.342  1.00  0.00     0.014 A 
ENDBRANCH   4   7
BRANCH   6  13
HETATM   13  C   UNL     1      43.522 -17.689   5.289  1.00  0.00    -0.008 A 
HETATM   14  C   UNL     1      43.255 -18.510   6.391  1.00  0.00     0.014 A 
HETATM   15  C   UNL     1      43.538 -19.877   6.339  1.00  0.00     0.001 A 
HETATM   16  C   UNL     1      44.077 -20.436   5.181  1.00  0.00     0.000 A 
HETATM   17  C   UNL     1      44.328 -19.632   4.073  1.00  0.00     0.001 A 
HETATM   18  C   UNL     1      44.050 -18.264   4.126  1.00  0.00     0.014 A 
ENDBRANCH   6  13
ENDBRANCH   1   2
BRANCH   1  19
HETATM   19  C   UNL     1      41.462 -16.438   2.509  1.00  0.00     0.126 C 
BRANCH  19  20
HETATM   20  C   UNL     1      41.935 -15.161   1.855  1.00  0.00     0.239 C 
HETATM   21  N   UNL     1      40.939 -14.218   1.681  1.00  0.00    -0.246 N 
HETATM   22  H   UNL     1      40.018 -14.341   2.111  1.00  0.00     0.192 HD
HETATM   23  O   UNL     1      43.108 -15.033   1.507  1.00  0.00    -0.272 OA
BRANCH  21  24
HETATM   24  N   UNL     1      41.225 -13.032   1.071  1.00  0.00    -0.166 NA
HETATM   25  C   UNL     1      40.707 -12.840  -0.098  1.00  0.00     0.157 A 
HETATM   26  C   UNL     1      39.841 -13.787  -0.936  1.00  0.00     0.277 A 
HETATM   27  C   UNL     1      40.872 -11.637  -0.905  1.00  0.00     0.027 A 
HETATM   28  O   UNL     1      39.542 -14.922  -0.627  1.00  0.00    -0.266 OA
HETATM   29  N   UNL     1      39.544 -13.094  -2.090  1.00  0.00    -0.321 N 
HETATM   30  C   UNL     1      40.156 -11.843  -2.082  1.00  0.00     0.048 A 
HETATM   31  H   UNL     1      38.986 -13.478  -2.837  1.00  0.00     0.169 HD
HETATM   32  C   UNL     1      40.124 -10.887  -3.074  1.00  0.00     0.030 A 
HETATM   33  C   UNL     1      40.840  -9.704  -2.850  1.00  0.00     0.002 A 
HETATM   34  C   UNL     1      41.562  -9.502  -1.655  1.00  0.00     0.001 A 
HETATM   35  C   UNL     1      41.584 -10.481  -0.659  1.00  0.00     0.016 A 
ENDBRANCH  21  24
ENDBRANCH  19  20
ENDBRANCH   1  19
TORSDOF 6
ENDMDL
MODEL 10
REMARK VINA RESULT:      -8.9      3.003      7.209
REMARK  6 active torsions:
REMARK  status: ('A' for Active; 'I' for Inactive)
REMARK    1  A    between atoms: C_4  and  C_5 
REMARK    2  A    between atoms: N_7  and  C_8 
REMARK    3  A    between atoms: C_8  and  C_9 
REMARK    4  A    between atoms: C_9  and  C_10 
REMARK       I    between atoms: C_10  and  N_11 
REMARK    5  A    between atoms: N_11  and  N_12 
REMARK    6  A    between atoms: C_24  and  C_25 
ROOT
HETATM    1  C   UNL     1      41.856 -11.769   2.928  1.00  0.00     0.161 C 
ENDROOT
BRANCH   1   2
HETATM    2  N   UNL     1      40.728 -11.634   2.019  1.00  0.00    -0.268 N 
HETATM    3  N   UNL     1      40.681 -12.444   0.948  1.00  0.00    -0.172 NA
HETATM    4  C   UNL     1      39.514 -12.169   0.345  1.00  0.00     0.089 A 
HETATM    5  C   UNL     1      38.820 -11.170   1.075  1.00  0.00     0.066 A 
HETATM    6  C   UNL     1      39.615 -10.840   2.157  1.00  0.00     0.065 A 
BRANCH   4   7
HETATM    7  C   UNL     1      39.089 -12.873  -0.873  1.00  0.00    -0.006 A 
HETATM    8  C   UNL     1      37.878 -12.542  -1.498  1.00  0.00     0.014 A 
HETATM    9  C   UNL     1      37.462 -13.205  -2.658  1.00  0.00     0.001 A 
HETATM   10  C   UNL     1      38.255 -14.208  -3.208  1.00  0.00     0.000 A 
HETATM   11  C   UNL     1      39.463 -14.548  -2.603  1.00  0.00     0.001 A 
HETATM   12  C   UNL     1      39.877 -13.885  -1.442  1.00  0.00     0.014 A 
ENDBRANCH   4   7
BRANCH   6  13
HETATM   13  C   UNL     1      39.329  -9.940   3.269  1.00  0.00    -0.008 A 
HETATM   14  C   UNL     1      38.723 -10.398   4.444  1.00  0.00     0.014 A 
HETATM   15  C   UNL     1      38.450  -9.513   5.491  1.00  0.00     0.001 A 
HETATM   16  C   UNL     1      38.794  -8.167   5.376  1.00  0.00     0.000 A 
HETATM   17  C   UNL     1      39.416  -7.705   4.219  1.00  0.00     0.001 A 
HETATM   18  C   UNL     1      39.684  -8.588   3.171  1.00  0.00     0.014 A 
ENDBRANCH   6  13
ENDBRANCH   1   2
BRANCH   1  19
HETATM   19  C   UNL     1      41.566 -12.711   4.084  1.00  0.00     0.126 C 
BRANCH  19  20
HETATM   20  C   UNL     1      41.539 -14.150   3.626  1.00  0.00     0.239 C 
HETATM   21  N   UNL     1      42.788 -14.674   3.350  1.00  0.00    -0.246 N 
HETATM   22  H   UNL     1      43.640 -14.162   3.597  1.00  0.00     0.192 HD
HETATM   23  O   UNL     1      40.471 -14.749   3.505  1.00  0.00    -0.272 OA
BRANCH  21  24
HETATM   24  N   UNL     1      42.902 -15.955   2.895  1.00  0.00    -0.166 NA
HETATM   25  C   UNL     1      43.307 -16.840   3.747  1.00  0.00     0.157 A 
HETATM   26  C   UNL     1      43.733 -16.649   5.207  1.00  0.00     0.277 A 
HETATM   27  C   UNL     1      43.474 -18.262   3.469  1.00  0.00     0.027 A 
HETATM   28  O   UNL     1      43.798 -15.583   5.785  1.00  0.00    -0.266 OA
HETATM   29  N   UNL     1      44.062 -17.906   5.665  1.00  0.00    -0.321 N 
HETATM   30  C   UNL     1      43.924 -18.850   4.649  1.00  0.00     0.048 A 
HETATM   31  H   UNL     1      44.386 -18.086   6.603  1.00  0.00     0.169 HD
HETATM   32  C   UNL     1      44.197 -20.199   4.716  1.00  0.00     0.030 A 
HETATM   33  C   UNL     1      44.004 -20.951   3.549  1.00  0.00     0.002 A 
HETATM   34  C   UNL     1      43.547 -20.349   2.359  1.00  0.00     0.001 A 
HETATM   35  C   UNL     1      43.274 -18.980   2.309  1.00  0.00     0.016 A 
ENDBRANCH  21  24
ENDBRANCH  19  20
ENDBRANCH   1  19
TORSDOF 6
ENDMDL
