MODEL 1
REMARK VINA RESULT:      -7.4      0.000      0.000
REMARK  6 active torsions:
REMARK  status: ('A' for Active; 'I' for Inactive)
REMARK    1  A    between atoms: C_2  and  N_3 
REMARK    2  A    between atoms: C_2  and  C_11 
REMARK       I    between atoms: N_3  and  C_4 
REMARK    3  A    between atoms: C_4  and  C_5 
REMARK    4  A    between atoms: C_14  and  O_15 
REMARK    5  A    between atoms: O_15  and  C_16 
REMARK    6  A    between atoms: C_16  and  C_17 
ROOT
HETATM    1  C   UNL     1      42.176 -14.135   3.374  1.00  0.00    -0.036 A 
HETATM    2  C   UNL     1      42.143 -14.027   4.773  1.00  0.00     0.012 A 
HETATM    3  C   UNL     1      42.810 -12.986   5.432  1.00  0.00     0.037 A 
HETATM    4  C   UNL     1      43.520 -12.037   4.701  1.00  0.00     0.069 A 
HETATM    5  C   UNL     1      43.518 -12.110   3.307  1.00  0.00     0.037 A 
HETATM    6  C   UNL     1      42.852 -13.144   2.647  1.00  0.00     0.012 A 
ENDROOT
BRANCH   1   7
HETATM    7  C   UNL     1      41.457 -15.285   2.685  1.00  0.00     0.113 C 
HETATM    8  C   UNL     1      39.931 -15.152   2.778  1.00  0.00     0.037 C 
BRANCH   7   9
HETATM    9  N   UNL     1      41.927 -16.547   3.233  1.00  0.00    -0.352 N 
HETATM   10  C   UNL     1      42.966 -17.244   2.665  1.00  0.00     0.225 C 
HETATM   11  O   UNL     1      43.558 -16.887   1.656  1.00  0.00    -0.273 OA
HETATM   12  H   UNL     1      41.485 -16.888   4.075  1.00  0.00     0.163 HD
BRANCH  10  13
HETATM   13  C   UNL     1      43.299 -18.515   3.350  1.00  0.00     0.119 A 
HETATM   14  C   UNL     1      44.023 -18.550   4.670  1.00  0.00     0.126 A 
HETATM   15 CL   UNL     1      44.565 -17.094   5.481  1.00  0.00    -0.101 Cl
HETATM   16 CL   UNL     1      43.565 -19.829   5.803  1.00  0.00    -0.101 Cl
HETATM   17  C   UNL     1      44.737 -18.974   3.417  1.00  0.00     0.060 A 
ENDBRANCH  10  13
ENDBRANCH   7   9
ENDBRANCH   1   7
BRANCH   4  18
HETATM   18  O   UNL     1      44.237 -10.995   5.216  1.00  0.00    -0.347 OA
BRANCH  18  19
HETATM   19  C   UNL     1      45.391 -11.325   5.989  1.00  0.00     0.215 C 
BRANCH  19  20
HETATM   20  C   UNL     1      45.215 -10.765   7.373  1.00  0.00    -0.017 A 
HETATM   21  C   UNL     1      44.278 -11.294   8.255  1.00  0.00     0.125 A 
HETATM   22  N   UNL     1      44.099 -10.860   9.523  1.00  0.00    -0.272 NA
HETATM   23  C   UNL     1      44.888  -9.846   9.935  1.00  0.00     0.116 A 
HETATM   24  C   UNL     1      45.852  -9.248   9.143  1.00  0.00     0.020 A 
HETATM   25  C   UNL     1      46.018  -9.720   7.843  1.00  0.00     0.012 A 
ENDBRANCH  19  20
ENDBRANCH  18  19
ENDBRANCH   4  18
TORSDOF 6
ENDMDL
MODEL 2
REMARK VINA RESULT:      -7.3      3.470      8.665
REMARK  6 active torsions:
REMARK  status: ('A' for Active; 'I' for Inactive)
REMARK    1  A    between atoms: C_2  and  N_3 
REMARK    2  A    between atoms: C_2  and  C_11 
REMARK       I    between atoms: N_3  and  C_4 
REMARK    3  A    between atoms: C_4  and  C_5 
REMARK    4  A    between atoms: C_14  and  O_15 
REMARK    5  A    between atoms: O_15  and  C_16 
REMARK    6  A    between atoms: C_16  and  C_17 
ROOT
HETATM    1  C   UNL     1      44.281 -11.499   6.410  1.00  0.00    -0.036 A 
HETATM    2  C   UNL     1      43.850 -11.372   5.080  1.00  0.00     0.012 A 
HETATM    3  C   UNL     1      43.185 -12.421   4.434  1.00  0.00     0.037 A 
HETATM    4  C   UNL     1      42.940 -13.615   5.109  1.00  0.00     0.069 A 
HETATM    5  C   UNL     1      43.323 -13.733   6.445  1.00  0.00     0.037 A 
HETATM    6  C   UNL     1      43.984 -12.688   7.093  1.00  0.00     0.012 A 
ENDROOT
BRANCH   1   7
HETATM    7  C   UNL     1      45.017 -10.350   7.082  1.00  0.00     0.113 C 
HETATM    8  C   UNL     1      46.435 -10.744   7.515  1.00  0.00     0.037 C 
BRANCH   7   9
HETATM    9  N   UNL     1      44.225  -9.855   8.198  1.00  0.00    -0.352 N 
HETATM   10  C   UNL     1      44.425  -8.607   8.734  1.00  0.00     0.225 C 
HETATM   11  O   UNL     1      45.284  -7.827   8.348  1.00  0.00    -0.273 OA
HETATM   12  H   UNL     1      43.490 -10.451   8.552  1.00  0.00     0.163 HD
BRANCH  10  13
HETATM   13  C   UNL     1      43.536  -8.279   9.873  1.00  0.00     0.119 A 
HETATM   14  C   UNL     1      43.451  -9.145  11.101  1.00  0.00     0.126 A 
HETATM   15 CL   UNL     1      44.366 -10.631  11.264  1.00  0.00    -0.101 Cl
HETATM   16 CL   UNL     1      43.208  -8.324  12.649  1.00  0.00    -0.101 Cl
HETATM   17  C   UNL     1      42.306  -9.118  10.128  1.00  0.00     0.060 A 
ENDBRANCH  10  13
ENDBRANCH   7   9
ENDBRANCH   1   7
BRANCH   4  18
HETATM   18  O   UNL     1      42.333 -14.723   4.590  1.00  0.00    -0.347 OA
BRANCH  18  19
HETATM   19  C   UNL     1      42.771 -15.156   3.302  1.00  0.00     0.215 C 
BRANCH  19  20
HETATM   20  C   UNL     1      43.227 -16.585   3.408  1.00  0.00    -0.017 A 
HETATM   21  C   UNL     1      43.817 -17.073   4.569  1.00  0.00     0.125 A 
HETATM   22  N   UNL     1      44.213 -18.355   4.739  1.00  0.00    -0.272 NA
HETATM   23  C   UNL     1      44.017 -19.194   3.701  1.00  0.00     0.116 A 
HETATM   24  C   UNL     1      43.438 -18.815   2.503  1.00  0.00     0.020 A 
HETATM   25  C   UNL     1      43.035 -17.490   2.359  1.00  0.00     0.012 A 
ENDBRANCH  19  20
ENDBRANCH  18  19
ENDBRANCH   4  18
TORSDOF 6
ENDMDL
MODEL 3
REMARK VINA RESULT:      -7.3      5.396      8.024
REMARK  6 active torsions:
REMARK  status: ('A' for Active; 'I' for Inactive)
REMARK    1  A    between atoms: C_2  and  N_3 
REMARK    2  A    between atoms: C_2  and  C_11 
REMARK       I    between atoms: N_3  and  C_4 
REMARK    3  A    between atoms: C_4  and  C_5 
REMARK    4  A    between atoms: C_14  and  O_15 
REMARK    5  A    between atoms: O_15  and  C_16 
REMARK    6  A    between atoms: C_16  and  C_17 
ROOT
HETATM    1  C   UNL     1      40.367 -13.460   2.718  1.00  0.00    -0.036 A 
HETATM    2  C   UNL     1      40.342 -14.748   2.159  1.00  0.00     0.012 A 
HETATM    3  C   UNL     1      40.962 -15.826   2.804  1.00  0.00     0.037 A 
HETATM    4  C   UNL     1      41.616 -15.632   4.018  1.00  0.00     0.069 A 
HETATM    5  C   UNL     1      41.606 -14.365   4.603  1.00  0.00     0.037 A 
HETATM    6  C   UNL     1      40.986 -13.289   3.965  1.00  0.00     0.012 A 
ENDROOT
BRANCH   1   7
HETATM    7  C   UNL     1      39.700 -12.304   1.988  1.00  0.00     0.113 C 
HETATM    8  C   UNL     1      38.757 -11.509   2.901  1.00  0.00     0.037 C 
BRANCH   7   9
HETATM    9  N   UNL     1      39.018 -12.806   0.807  1.00  0.00    -0.352 N 
HETATM   10  C   UNL     1      39.236 -12.275  -0.441  1.00  0.00     0.225 C 
HETATM   11  O   UNL     1      39.988 -11.336  -0.661  1.00  0.00    -0.273 OA
HETATM   12  H   UNL     1      38.393 -13.592   0.924  1.00  0.00     0.163 HD
BRANCH  10  13
HETATM   13  C   UNL     1      38.444 -12.904  -1.523  1.00  0.00     0.119 A 
HETATM   14  C   UNL     1      39.088 -13.517  -2.738  1.00  0.00     0.126 A 
HETATM   15 CL   UNL     1      40.823 -13.500  -2.987  1.00  0.00    -0.101 Cl
HETATM   16 CL   UNL     1      38.318 -14.959  -3.414  1.00  0.00    -0.101 Cl
HETATM   17  C   UNL     1      38.338 -12.221  -2.867  1.00  0.00     0.060 A 
ENDBRANCH  10  13
ENDBRANCH   7   9
ENDBRANCH   1   7
BRANCH   4  18
HETATM   18  O   UNL     1      42.285 -16.584   4.734  1.00  0.00    -0.347 OA
BRANCH  18  19
HETATM   19  C   UNL     1      43.640 -16.836   4.365  1.00  0.00     0.215 C 
BRANCH  19  20
HETATM   20  C   UNL     1      43.771 -18.284   3.983  1.00  0.00    -0.017 A 
HETATM   21  C   UNL     1      43.973 -19.271   4.943  1.00  0.00     0.125 A 
HETATM   22  N   UNL     1      44.062 -20.592   4.668  1.00  0.00    -0.272 NA
HETATM   23  C   UNL     1      43.947 -20.951   3.372  1.00  0.00     0.116 A 
HETATM   24  C   UNL     1      43.743 -20.054   2.339  1.00  0.00     0.020 A 
HETATM   25  C   UNL     1      43.650 -18.701   2.653  1.00  0.00     0.012 A 
ENDBRANCH  19  20
ENDBRANCH  18  19
ENDBRANCH   4  18
TORSDOF 6
ENDMDL
MODEL 4
REMARK VINA RESULT:      -7.3      3.307      4.437
REMARK  6 active torsions:
REMARK  status: ('A' for Active; 'I' for Inactive)
REMARK    1  A    between atoms: C_2  and  N_3 
REMARK    2  A    between atoms: C_2  and  C_11 
REMARK       I    between atoms: N_3  and  C_4 
REMARK    3  A    between atoms: C_4  and  C_5 
REMARK    4  A    between atoms: C_14  and  O_15 
REMARK    5  A    between atoms: O_15  and  C_16 
REMARK    6  A    between atoms: C_16  and  C_17 
ROOT
HETATM    1  C   UNL     1      42.768 -14.217   3.062  1.00  0.00    -0.036 A 
HETATM    2  C   UNL     1      42.818 -14.355   4.458  1.00  0.00     0.012 A 
HETATM    3  C   UNL     1      43.290 -13.315   5.270  1.00  0.00     0.037 A 
HETATM    4  C   UNL     1      43.720 -12.121   4.696  1.00  0.00     0.069 A 
HETATM    5  C   UNL     1      43.631 -11.958   3.313  1.00  0.00     0.037 A 
HETATM    6  C   UNL     1      43.157 -12.991   2.502  1.00  0.00     0.012 A 
ENDROOT
BRANCH   1   7
HETATM    7  C   UNL     1      42.267 -15.368   2.203  1.00  0.00     0.113 C 
HETATM    8  C   UNL     1      43.310 -16.484   2.064  1.00  0.00     0.037 C 
BRANCH   7   9
HETATM    9  N   UNL     1      41.841 -14.857   0.910  1.00  0.00    -0.352 N 
HETATM   10  C   UNL     1      40.519 -14.831   0.538  1.00  0.00     0.225 C 
HETATM   11  O   UNL     1      39.605 -15.249   1.235  1.00  0.00    -0.273 OA
HETATM   12  H   UNL     1      42.551 -14.485   0.296  1.00  0.00     0.163 HD
BRANCH  10  13
HETATM   13  C   UNL     1      40.274 -14.289  -0.819  1.00  0.00     0.119 A 
HETATM   14  C   UNL     1      40.463 -12.832  -1.148  1.00  0.00     0.126 A 
HETATM   15 CL   UNL     1      40.948 -11.655   0.055  1.00  0.00    -0.101 Cl
HETATM   16 CL   UNL     1      41.076 -12.447  -2.762  1.00  0.00    -0.101 Cl
HETATM   17  C   UNL     1      39.075 -13.403  -1.066  1.00  0.00     0.060 A 
ENDBRANCH  10  13
ENDBRANCH   7   9
ENDBRANCH   1   7
BRANCH   4  18
HETATM   18  O   UNL     1      44.230 -11.045   5.365  1.00  0.00    -0.347 OA
BRANCH  18  19
HETATM   19  C   UNL     1      45.426 -11.258   6.115  1.00  0.00     0.215 C 
BRANCH  19  20
HETATM   20  C   UNL     1      45.213 -10.745   7.512  1.00  0.00    -0.017 A 
HETATM   21  C   UNL     1      44.248 -11.298   8.347  1.00  0.00     0.125 A 
HETATM   22  N   UNL     1      44.033 -10.907   9.624  1.00  0.00    -0.272 NA
HETATM   23  C   UNL     1      44.815  -9.912  10.094  1.00  0.00     0.116 A 
HETATM   24  C   UNL     1      45.804  -9.293   9.350  1.00  0.00     0.020 A 
HETATM   25  C   UNL     1      46.006  -9.721   8.041  1.00  0.00     0.012 A 
ENDBRANCH  19  20
ENDBRANCH  18  19
ENDBRANCH   4  18
TORSDOF 6
ENDMDL
MODEL 5
REMARK VINA RESULT:      -7.2      3.628      8.474
REMARK  6 active torsions:
REMARK  status: ('A' for Active; 'I' for Inactive)
REMARK    1  A    between atoms: C_2  and  N_3 
REMARK    2  A    between atoms: C_2  and  C_11 
REMARK       I    between atoms: N_3  and  C_4 
REMARK    3  A    between atoms: C_4  and  C_5 
REMARK    4  A    between atoms: C_14  and  O_15 
REMARK    5  A    between atoms: O_15  and  C_16 
REMARK    6  A    between atoms: C_16  and  C_17 
ROOT
HETATM    1  C   UNL     1      43.554 -12.442   6.081  1.00  0.00    -0.036 A 
HETATM    2  C   UNL     1      43.892 -13.591   6.814  1.00  0.00     0.012 A 
HETATM    3  C   UNL     1      43.609 -14.871   6.320  1.00  0.00     0.037 A 
HETATM    4  C   UNL     1      42.982 -15.021   5.086  1.00  0.00     0.069 A 
HETATM    5  C   UNL     1      42.684 -13.887   4.330  1.00  0.00     0.037 A 
HETATM    6  C   UNL     1      42.968 -12.610   4.818  1.00  0.00     0.012 A 
ENDROOT
BRANCH   1   7
HETATM    7  C   UNL     1      43.858 -11.064   6.648  1.00  0.00     0.113 C 
HETATM    8  C   UNL     1      45.211 -11.021   7.371  1.00  0.00     0.037 C 
BRANCH   7   9
HETATM    9  N   UNL     1      42.766 -10.644   7.512  1.00  0.00    -0.352 N 
HETATM   10  C   UNL     1      41.918  -9.621   7.167  1.00  0.00     0.225 C 
HETATM   11  O   UNL     1      42.019  -8.968   6.137  1.00  0.00    -0.273 OA
HETATM   12  H   UNL     1      42.624 -11.156   8.372  1.00  0.00     0.163 HD
BRANCH  10  13
HETATM   13  C   UNL     1      40.874  -9.323   8.174  1.00  0.00     0.119 A 
HETATM   14  C   UNL     1      39.501  -9.939   8.114  1.00  0.00     0.126 A 
HETATM   15 CL   UNL     1      39.017 -11.025   6.827  1.00  0.00    -0.101 Cl
HETATM   16 CL   UNL     1      38.726 -10.325   9.657  1.00  0.00    -0.101 Cl
HETATM   17  C   UNL     1      39.679  -8.483   7.787  1.00  0.00     0.060 A 
ENDBRANCH  10  13
ENDBRANCH   7   9
ENDBRANCH   1   7
BRANCH   4  18
HETATM   18  O   UNL     1      42.622 -16.204   4.505  1.00  0.00    -0.347 OA
BRANCH  18  19
HETATM   19  C   UNL     1      43.295 -16.562   3.298  1.00  0.00     0.215 C 
BRANCH  19  20
HETATM   20  C   UNL     1      43.508 -18.050   3.293  1.00  0.00    -0.017 A 
HETATM   21  C   UNL     1      44.037 -18.710   4.397  1.00  0.00     0.125 A 
HETATM   22  N   UNL     1      44.217 -20.049   4.468  1.00  0.00    -0.272 NA
HETATM   23  C   UNL     1      43.856 -20.768   3.385  1.00  0.00     0.116 A 
HETATM   24  C   UNL     1      43.319 -20.215   2.236  1.00  0.00     0.020 A 
HETATM   25  C   UNL     1      43.140 -18.835   2.195  1.00  0.00     0.012 A 
ENDBRANCH  19  20
ENDBRANCH  18  19
ENDBRANCH   4  18
TORSDOF 6
ENDMDL
MODEL 6
REMARK VINA RESULT:      -7.1      1.948      2.711
REMARK  6 active torsions:
REMARK  status: ('A' for Active; 'I' for Inactive)
REMARK    1  A    between atoms: C_2  and  N_3 
REMARK    2  A    between atoms: C_2  and  C_11 
REMARK       I    between atoms: N_3  and  C_4 
REMARK    3  A    between atoms: C_4  and  C_5 
REMARK    4  A    between atoms: C_14  and  O_15 
REMARK    5  A    between atoms: O_15  and  C_16 
REMARK    6  A    between atoms: C_16  and  C_17 
ROOT
HETATM    1  C   UNL     1      41.753 -13.829   5.763  1.00  0.00    -0.036 A 
HETATM    2  C   UNL     1      41.493 -12.508   5.365  1.00  0.00     0.012 A 
HETATM    3  C   UNL     1      42.395 -11.476   5.655  1.00  0.00     0.037 A 
HETATM    4  C   UNL     1      43.572 -11.750   6.348  1.00  0.00     0.069 A 
HETATM    5  C   UNL     1      43.860 -13.068   6.706  1.00  0.00     0.037 A 
HETATM    6  C   UNL     1      42.965 -14.098   6.415  1.00  0.00     0.012 A 
ENDROOT
BRANCH   1   7
HETATM    7  C   UNL     1      40.748 -14.927   5.450  1.00  0.00     0.113 C 
HETATM    8  C   UNL     1      40.284 -15.664   6.713  1.00  0.00     0.037 C 
BRANCH   7   9
HETATM    9  N   UNL     1      41.316 -15.836   4.467  1.00  0.00    -0.352 N 
HETATM   10  C   UNL     1      41.225 -15.597   3.118  1.00  0.00     0.225 C 
HETATM   11  O   UNL     1      40.650 -14.634   2.632  1.00  0.00    -0.273 OA
HETATM   12  H   UNL     1      41.816 -16.644   4.809  1.00  0.00     0.163 HD
BRANCH  10  13
HETATM   13  C   UNL     1      41.849 -16.638   2.267  1.00  0.00     0.119 A 
HETATM   14  C   UNL     1      43.061 -17.415   2.708  1.00  0.00     0.126 A 
HETATM   15 CL   UNL     1      43.854 -17.124   4.243  1.00  0.00    -0.101 Cl
HETATM   16 CL   UNL     1      43.155 -19.109   2.205  1.00  0.00    -0.101 Cl
HETATM   17  C   UNL     1      43.194 -16.376   1.629  1.00  0.00     0.060 A 
ENDBRANCH  10  13
ENDBRANCH   7   9
ENDBRANCH   1   7
BRANCH   4  18
HETATM   18  O   UNL     1      44.517 -10.838   6.721  1.00  0.00    -0.347 OA
BRANCH  18  19
HETATM   19  C   UNL     1      45.115 -11.015   8.005  1.00  0.00     0.215 C 
BRANCH  19  20
HETATM   20  C   UNL     1      44.546  -9.988   8.943  1.00  0.00    -0.017 A 
HETATM   21  C   UNL     1      43.850  -8.881   8.469  1.00  0.00     0.125 A 
HETATM   22  N   UNL     1      43.283  -7.943   9.262  1.00  0.00    -0.272 NA
HETATM   23  C   UNL     1      43.418  -8.112  10.594  1.00  0.00     0.116 A 
HETATM   24  C   UNL     1      44.086  -9.176  11.172  1.00  0.00     0.020 A 
HETATM   25  C   UNL     1      44.655 -10.129  10.330  1.00  0.00     0.012 A 
ENDBRANCH  19  20
ENDBRANCH  18  19
ENDBRANCH   4  18
TORSDOF 6
ENDMDL
MODEL 7
REMARK VINA RESULT:      -7.1      3.232      7.905
REMARK  6 active torsions:
REMARK  status: ('A' for Active; 'I' for Inactive)
REMARK    1  A    between atoms: C_2  and  N_3 
REMARK    2  A    between atoms: C_2  and  C_11 
REMARK       I    between atoms: N_3  and  C_4 
REMARK    3  A    between atoms: C_4  and  C_5 
REMARK    4  A    between atoms: C_14  and  O_15 
REMARK    5  A    between atoms: O_15  and  C_16 
REMARK    6  A    between atoms: C_16  and  C_17 
ROOT
HETATM    1  C   UNL     1      41.769 -12.934   5.176  1.00  0.00    -0.036 A 
HETATM    2  C   UNL     1      41.978 -14.132   5.878  1.00  0.00     0.012 A 
HETATM    3  C   UNL     1      42.102 -15.352   5.201  1.00  0.00     0.037 A 
HETATM    4  C   UNL     1      42.020 -15.392   3.811  1.00  0.00     0.069 A 
HETATM    5  C   UNL     1      41.860 -14.200   3.103  1.00  0.00     0.037 A 
HETATM    6  C   UNL     1      41.739 -12.982   3.775  1.00  0.00     0.012 A 
ENDROOT
BRANCH   1   7
HETATM    7  C   UNL     1      41.621 -11.625   5.938  1.00  0.00     0.113 C 
HETATM    8  C   UNL     1      41.585 -10.411   5.000  1.00  0.00     0.037 C 
BRANCH   7   9
HETATM    9  N   UNL     1      42.682 -11.518   6.926  1.00  0.00    -0.352 N 
HETATM   10  C   UNL     1      43.979 -11.234   6.574  1.00  0.00     0.225 C 
HETATM   11  O   UNL     1      44.354 -11.075   5.421  1.00  0.00    -0.273 OA
HETATM   12  H   UNL     1      42.430 -11.627   7.899  1.00  0.00     0.163 HD
BRANCH  10  13
HETATM   13  C   UNL     1      44.925 -11.177   7.712  1.00  0.00     0.119 A 
HETATM   14  C   UNL     1      45.086  -9.945   8.562  1.00  0.00     0.126 A 
HETATM   15 CL   UNL     1      44.197  -8.468   8.249  1.00  0.00    -0.101 Cl
HETATM   16 CL   UNL     1      45.406 -10.193  10.284  1.00  0.00    -0.101 Cl
HETATM   17  C   UNL     1      46.176 -10.336   7.604  1.00  0.00     0.060 A 
ENDBRANCH  10  13
ENDBRANCH   7   9
ENDBRANCH   1   7
BRANCH   4  18
HETATM   18  O   UNL     1      42.092 -16.512   3.032  1.00  0.00    -0.347 OA
BRANCH  18  19
HETATM   19  C   UNL     1      43.396 -16.948   2.648  1.00  0.00     0.215 C 
BRANCH  19  20
HETATM   20  C   UNL     1      43.579 -18.369   3.104  1.00  0.00    -0.017 A 
HETATM   21  C   UNL     1      43.393 -19.438   2.233  1.00  0.00     0.125 A 
HETATM   22  N   UNL     1      43.578 -20.735   2.572  1.00  0.00    -0.272 NA
HETATM   23  C   UNL     1      43.963 -20.981   3.841  1.00  0.00     0.116 A 
HETATM   24  C   UNL     1      44.178 -19.995   4.787  1.00  0.00     0.020 A 
HETATM   25  C   UNL     1      43.985 -18.669   4.408  1.00  0.00     0.012 A 
ENDBRANCH  19  20
ENDBRANCH  18  19
ENDBRANCH   4  18
TORSDOF 6
ENDMDL
MODEL 8
REMARK VINA RESULT:      -7.0      2.936      8.075
REMARK  6 active torsions:
REMARK  status: ('A' for Active; 'I' for Inactive)
REMARK    1  A    between atoms: C_2  and  N_3 
REMARK    2  A    between atoms: C_2  and  C_11 
REMARK       I    between atoms: N_3  and  C_4 
REMARK    3  A    between atoms: C_4  and  C_5 
REMARK    4  A    between atoms: C_14  and  O_15 
REMARK    5  A    between atoms: O_15  and  C_16 
REMARK    6  A    between atoms: C_16  and  C_17 
ROOT
HETATM    1  C   UNL     1      42.181 -12.344   4.765  1.00  0.00    -0.036 A 
HETATM    2  C   UNL     1      42.416 -12.606   3.406  1.00  0.00     0.012 A 
HETATM    3  C   UNL     1      42.737 -13.896   2.964  1.00  0.00     0.037 A 
HETATM    4  C   UNL     1      42.829 -14.945   3.876  1.00  0.00     0.069 A 
HETATM    5  C   UNL     1      42.550 -14.703   5.222  1.00  0.00     0.037 A 
HETATM    6  C   UNL     1      42.227 -13.420   5.665  1.00  0.00     0.012 A 
ENDROOT
BRANCH   1   7
HETATM    7  C   UNL     1      41.850 -10.931   5.219  1.00  0.00     0.113 C 
HETATM    8  C   UNL     1      41.626  -9.981   4.036  1.00  0.00     0.037 C 
BRANCH   7   9
HETATM    9  N   UNL     1      42.894 -10.453   6.111  1.00  0.00    -0.352 N 
HETATM   10  C   UNL     1      42.607  -9.775   7.270  1.00  0.00     0.225 C 
HETATM   11  O   UNL     1      41.473  -9.495   7.634  1.00  0.00    -0.273 OA
HETATM   12  H   UNL     1      43.852 -10.666   5.870  1.00  0.00     0.163 HD
BRANCH  10  13
HETATM   13  C   UNL     1      43.796  -9.353   8.046  1.00  0.00     0.119 A 
HETATM   14  C   UNL     1      45.077 -10.144   8.046  1.00  0.00     0.126 A 
HETATM   15 CL   UNL     1      45.249 -11.647   7.163  1.00  0.00    -0.101 Cl
HETATM   16 CL   UNL     1      46.588  -9.227   8.130  1.00  0.00    -0.101 Cl
HETATM   17  C   UNL     1      44.206 -10.135   9.272  1.00  0.00     0.060 A 
ENDBRANCH  10  13
ENDBRANCH   7   9
ENDBRANCH   1   7
BRANCH   4  18
HETATM   18  O   UNL     1      43.162 -16.237   3.586  1.00  0.00    -0.347 OA
BRANCH  18  19
HETATM   19  C   UNL     1      43.850 -16.970   4.599  1.00  0.00     0.215 C 
BRANCH  19  20
HETATM   20  C   UNL     1      43.876 -18.421   4.206  1.00  0.00    -0.017 A 
HETATM   21  C   UNL     1      44.031 -19.425   5.156  1.00  0.00     0.125 A 
HETATM   22  N   UNL     1      44.026 -20.748   4.871  1.00  0.00    -0.272 NA
HETATM   23  C   UNL     1      43.861 -21.089   3.575  1.00  0.00     0.116 A 
HETATM   24  C   UNL     1      43.696 -20.173   2.552  1.00  0.00     0.020 A 
HETATM   25  C   UNL     1      43.701 -18.819   2.877  1.00  0.00     0.012 A 
ENDBRANCH  19  20
ENDBRANCH  18  19
ENDBRANCH   4  18
TORSDOF 6
ENDMDL
MODEL 9
REMARK VINA RESULT:      -6.6      8.598     13.327
REMARK  6 active torsions:
REMARK  status: ('A' for Active; 'I' for Inactive)
REMARK    1  A    between atoms: C_2  and  N_3 
REMARK    2  A    between atoms: C_2  and  C_11 
REMARK       I    between atoms: N_3  and  C_4 
REMARK    3  A    between atoms: C_4  and  C_5 
REMARK    4  A    between atoms: C_14  and  O_15 
REMARK    5  A    between atoms: O_15  and  C_16 
REMARK    6  A    between atoms: C_16  and  C_17 
ROOT
HETATM    1  C   UNL     1      41.778  -7.585  14.926  1.00  0.00    -0.036 A 
HETATM    2  C   UNL     1      41.226  -8.800  14.489  1.00  0.00     0.012 A 
HETATM    3  C   UNL     1      41.772  -9.490  13.399  1.00  0.00     0.037 A 
HETATM    4  C   UNL     1      42.879  -8.975  12.729  1.00  0.00     0.069 A 
HETATM    5  C   UNL     1      43.463  -7.793  13.186  1.00  0.00     0.037 A 
HETATM    6  C   UNL     1      42.923  -7.104  14.274  1.00  0.00     0.012 A 
ENDROOT
BRANCH   1   7
HETATM    7  C   UNL     1      41.155  -6.848  16.102  1.00  0.00     0.113 C 
HETATM    8  C   UNL     1      41.338  -5.328  15.995  1.00  0.00     0.037 C 
BRANCH   7   9
HETATM    9  N   UNL     1      41.695  -7.375  17.344  1.00  0.00    -0.352 N 
HETATM   10  C   UNL     1      40.883  -7.789  18.372  1.00  0.00     0.225 C 
HETATM   11  O   UNL     1      39.662  -7.728  18.345  1.00  0.00    -0.273 OA
HETATM   12  H   UNL     1      42.698  -7.462  17.421  1.00  0.00     0.163 HD
BRANCH  10  13
HETATM   13  C   UNL     1      41.608  -8.284  19.566  1.00  0.00     0.119 A 
HETATM   14  C   UNL     1      40.924  -8.494  20.891  1.00  0.00     0.126 A 
HETATM   15 CL   UNL     1      39.227  -8.132  21.137  1.00  0.00    -0.101 Cl
HETATM   16 CL   UNL     1      41.477  -9.857  21.873  1.00  0.00    -0.101 Cl
HETATM   17  C   UNL     1      41.879  -7.346  20.719  1.00  0.00     0.060 A 
ENDBRANCH  10  13
ENDBRANCH   7   9
ENDBRANCH   1   7
BRANCH   4  18
HETATM   18  O   UNL     1      43.488  -9.527  11.639  1.00  0.00    -0.347 OA
BRANCH  18  19
HETATM   19  C   UNL     1      43.480  -8.758  10.436  1.00  0.00     0.215 C 
BRANCH  19  20
HETATM   20  C   UNL     1      44.378  -9.428   9.433  1.00  0.00    -0.017 A 
HETATM   21  C   UNL     1      44.128 -10.723   8.990  1.00  0.00     0.125 A 
HETATM   22  N   UNL     1      44.875 -11.366   8.063  1.00  0.00    -0.272 NA
HETATM   23  C   UNL     1      45.926 -10.689   7.555  1.00  0.00     0.116 A 
HETATM   24  C   UNL     1      46.263  -9.399   7.923  1.00  0.00     0.020 A 
HETATM   25  C   UNL     1      45.473  -8.761   8.875  1.00  0.00     0.012 A 
ENDBRANCH  19  20
ENDBRANCH  18  19
ENDBRANCH   4  18
TORSDOF 6
ENDMDL
MODEL 10
REMARK VINA RESULT:      -6.6     16.639     18.639
REMARK  6 active torsions:
REMARK  status: ('A' for Active; 'I' for Inactive)
REMARK    1  A    between atoms: C_2  and  N_3 
REMARK    2  A    between atoms: C_2  and  C_11 
REMARK       I    between atoms: N_3  and  C_4 
REMARK    3  A    between atoms: C_4  and  C_5 
REMARK    4  A    between atoms: C_14  and  O_15 
REMARK    5  A    between atoms: O_15  and  C_16 
REMARK    6  A    between atoms: C_16  and  C_17 
ROOT
HETATM    1  C   UNL     1      48.876 -29.589  -0.291  1.00  0.00    -0.036 A 
HETATM    2  C   UNL     1      48.630 -29.106  -1.586  1.00  0.00     0.012 A 
HETATM    3  C   UNL     1      47.382 -28.570  -1.931  1.00  0.00     0.037 A 
HETATM    4  C   UNL     1      46.361 -28.510  -0.985  1.00  0.00     0.069 A 
HETATM    5  C   UNL     1      46.613 -28.945   0.317  1.00  0.00     0.037 A 
HETATM    6  C   UNL     1      47.856 -29.477   0.664  1.00  0.00     0.012 A 
ENDROOT
BRANCH   1   7
HETATM    7  C   UNL     1      50.235 -30.181   0.051  1.00  0.00     0.113 C 
HETATM    8  C   UNL     1      50.792 -31.048  -1.085  1.00  0.00     0.037 C 
BRANCH   7   9
HETATM    9  N   UNL     1      50.140 -30.918   1.301  1.00  0.00    -0.352 N 
HETATM   10  C   UNL     1      50.790 -30.507   2.439  1.00  0.00     0.225 C 
HETATM   11  O   UNL     1      51.512 -29.521   2.495  1.00  0.00    -0.273 OA
HETATM   12  H   UNL     1      49.547 -31.736   1.321  1.00  0.00     0.163 HD
BRANCH  10  13
HETATM   13  C   UNL     1      50.590 -31.388   3.613  1.00  0.00     0.119 A 
HETATM   14  C   UNL     1      49.438 -31.207   4.565  1.00  0.00     0.126 A 
HETATM   15 CL   UNL     1      48.265 -29.917   4.384  1.00  0.00    -0.101 Cl
HETATM   16 CL   UNL     1      48.732 -32.673   5.260  1.00  0.00    -0.101 Cl
HETATM   17  C   UNL     1      50.830 -30.847   5.004  1.00  0.00     0.060 A 
ENDBRANCH  10  13
ENDBRANCH   7   9
ENDBRANCH   1   7
BRANCH   4  18
HETATM   18  O   UNL     1      45.095 -28.044  -1.196  1.00  0.00    -0.347 OA
BRANCH  18  19
HETATM   19  C   UNL     1      44.041 -29.006  -1.176  1.00  0.00     0.215 C 
BRANCH  19  20
HETATM   20  C   UNL     1      44.122 -29.830  -2.431  1.00  0.00    -0.017 A 
HETATM   21  C   UNL     1      44.227 -31.216  -2.381  1.00  0.00     0.125 A 
HETATM   22  N   UNL     1      44.266 -32.015  -3.472  1.00  0.00    -0.272 NA
HETATM   23  C   UNL     1      44.200 -31.405  -4.674  1.00  0.00     0.116 A 
HETATM   24  C   UNL     1      44.092 -30.036  -4.838  1.00  0.00     0.020 A 
HETATM   25  C   UNL     1      44.049 -29.239  -3.697  1.00  0.00     0.012 A 
ENDBRANCH  19  20
ENDBRANCH  18  19
ENDBRANCH   4  18
TORSDOF 6
ENDMDL
