MODEL 1
REMARK VINA RESULT:      -8.4      0.000      0.000
REMARK  6 active torsions:
REMARK  status: ('A' for Active; 'I' for Inactive)
REMARK    1  A    between atoms: C_7  and  C_8 
REMARK    2  A    between atoms: C_8  and  C_9 
REMARK       I    between atoms: C_9  and  N_10 
REMARK    3  A    between atoms: N_10  and  C_11 
REMARK    4  A    between atoms: C_11  and  C_12 
REMARK    5  A    between atoms: C_19  and  C_20 
REMARK    6  A    between atoms: C_23  and  O_24 
ROOT
HETATM    1  C   UNL     1      42.846 -12.596   5.833  1.00  0.00     0.151 C 
HETATM    2  O   UNL     1      41.392 -12.657   5.928  1.00  0.00    -0.343 OA
HETATM    3  C   UNL     1      40.965 -12.807   4.639  1.00  0.00     0.075 A 
HETATM    4  C   UNL     1      41.979 -13.012   3.729  1.00  0.00    -0.021 A 
HETATM    5  C   UNL     1      43.281 -13.046   4.427  1.00  0.00     0.075 C 
HETATM    6  C   UNL     1      39.642 -12.796   4.254  1.00  0.00     0.038 A 
HETATM    7  C   UNL     1      39.347 -12.997   2.900  1.00  0.00     0.016 A 
HETATM    8  C   UNL     1      40.365 -13.208   1.936  1.00  0.00    -0.005 A 
HETATM    9  C   UNL     1      41.703 -13.215   2.385  1.00  0.00     0.024 A 
ENDROOT
BRANCH   1  10
HETATM   10  C   UNL     1      43.434 -13.472   6.948  1.00  0.00     0.155 C 
BRANCH  10  11
HETATM   11  N   UNL     1      43.870 -14.793   6.528  1.00  0.00    -0.359 N 
HETATM   12  C   UNL     1      43.055 -15.900   6.627  1.00  0.00     0.219 C 
HETATM   13  O   UNL     1      41.932 -15.862   7.115  1.00  0.00    -0.274 OA
HETATM   14  H   UNL     1      44.738 -14.865   6.009  1.00  0.00     0.162 HD
BRANCH  12  15
HETATM   15  C   UNL     1      43.692 -17.154   6.066  1.00  0.00     0.128 C 
BRANCH  15  16
HETATM   16  C   UNL     1      43.680 -17.185   4.535  1.00  0.00     0.094 C 
HETATM   17  N   UNL     1      43.873 -18.555   4.064  1.00  0.00    -0.362 N 
HETATM   18  C   UNL     1      43.461 -19.013   2.856  1.00  0.00     0.168 C 
HETATM   19  H   UNL     1      44.579 -19.132   4.506  1.00  0.00     0.162 HD
HETATM   20  N   UNL     1      42.633 -18.221   2.132  1.00  0.00    -0.363 N 
HETATM   21  S   UNL     1      43.921 -20.509   2.305  1.00  0.00    -0.041 SA
HETATM   22  C   UNL     1      42.340 -16.836   2.450  1.00  0.00     0.081 C 
HETATM   23  H   UNL     1      42.362 -18.582   1.225  1.00  0.00     0.162 HD
HETATM   24  C   UNL     1      43.291 -15.902   1.704  1.00  0.00     0.032 C 
HETATM   25  C   UNL     1      42.371 -16.627   3.963  1.00  0.00     0.050 C 
ENDBRANCH  15  16
ENDBRANCH  12  15
ENDBRANCH  10  11
ENDBRANCH   1  10
BRANCH   8  26
HETATM   26  C   UNL     1      40.058 -13.440   0.510  1.00  0.00     0.089 A 
HETATM   27  N   UNL     1      39.948 -12.332  -0.265  1.00  0.00    -0.147 NA
HETATM   28  N   UNL     1      39.666 -12.436  -1.606  1.00  0.00    -0.124 NA
HETATM   29  C   UNL     1      39.494 -13.652  -2.156  1.00  0.00     0.185 A 
HETATM   30  C   UNL     1      39.591 -14.809  -1.411  1.00  0.00     0.062 A 
HETATM   31  C   UNL     1      39.876 -14.701  -0.051  1.00  0.00     0.038 A 
BRANCH  29  32
HETATM   32  O   UNL     1      39.211 -13.791  -3.498  1.00  0.00    -0.338 OA
HETATM   33  C   UNL     1      37.990 -14.487  -3.737  1.00  0.00     0.211 C 
ENDBRANCH  29  32
ENDBRANCH   8  26
TORSDOF 6
ENDMDL
MODEL 2
REMARK VINA RESULT:      -8.1      5.488      9.824
REMARK  6 active torsions:
REMARK  status: ('A' for Active; 'I' for Inactive)
REMARK    1  A    between atoms: C_7  and  C_8 
REMARK    2  A    between atoms: C_8  and  C_9 
REMARK       I    between atoms: C_9  and  N_10 
REMARK    3  A    between atoms: N_10  and  C_11 
REMARK    4  A    between atoms: C_11  and  C_12 
REMARK    5  A    between atoms: C_19  and  C_20 
REMARK    6  A    between atoms: C_23  and  O_24 
ROOT
HETATM    1  C   UNL     1      43.778 -10.662   6.378  1.00  0.00     0.151 C 
HETATM    2  O   UNL     1      44.956 -10.881   7.207  1.00  0.00    -0.343 OA
HETATM    3  C   UNL     1      44.608 -10.411   8.441  1.00  0.00     0.075 A 
HETATM    4  C   UNL     1      43.280 -10.055   8.554  1.00  0.00    -0.021 A 
HETATM    5  C   UNL     1      42.578 -10.322   7.281  1.00  0.00     0.075 C 
HETATM    6  C   UNL     1      45.472 -10.321   9.510  1.00  0.00     0.038 A 
HETATM    7  C   UNL     1      44.967  -9.850  10.728  1.00  0.00     0.016 A 
HETATM    8  C   UNL     1      43.609  -9.473  10.881  1.00  0.00    -0.005 A 
HETATM    9  C   UNL     1      42.766  -9.591   9.755  1.00  0.00     0.024 A 
ENDROOT
BRANCH   1  10
HETATM   10  C   UNL     1      43.547 -11.923   5.532  1.00  0.00     0.155 C 
BRANCH  10  11
HETATM   11  N   UNL     1      43.604 -13.175   6.266  1.00  0.00    -0.359 N 
HETATM   12  C   UNL     1      42.482 -13.941   6.498  1.00  0.00     0.219 C 
HETATM   13  O   UNL     1      41.358 -13.605   6.145  1.00  0.00    -0.274 OA
HETATM   14  H   UNL     1      44.517 -13.562   6.477  1.00  0.00     0.162 HD
BRANCH  12  15
HETATM   15  C   UNL     1      42.790 -15.235   7.221  1.00  0.00     0.128 C 
BRANCH  15  16
HETATM   16  C   UNL     1      42.872 -16.434   6.272  1.00  0.00     0.094 C 
HETATM   17  N   UNL     1      42.199 -16.120   5.013  1.00  0.00    -0.362 N 
HETATM   18  C   UNL     1      42.471 -16.724   3.830  1.00  0.00     0.168 C 
HETATM   19  H   UNL     1      41.303 -15.646   5.040  1.00  0.00     0.162 HD
HETATM   20  N   UNL     1      43.575 -17.505   3.761  1.00  0.00    -0.363 N 
HETATM   21  S   UNL     1      41.507 -16.476   2.502  1.00  0.00    -0.041 SA
HETATM   22  C   UNL     1      44.355 -17.923   4.912  1.00  0.00     0.081 C 
HETATM   23  H   UNL     1      43.738 -17.960   2.870  1.00  0.00     0.162 HD
HETATM   24  C   UNL     1      43.872 -19.279   5.423  1.00  0.00     0.032 C 
HETATM   25  C   UNL     1      44.323 -16.840   5.989  1.00  0.00     0.050 C 
ENDBRANCH  15  16
ENDBRANCH  12  15
ENDBRANCH  10  11
ENDBRANCH   1  10
BRANCH   8  26
HETATM   26  C   UNL     1      43.067  -8.995  12.169  1.00  0.00     0.089 A 
HETATM   27  N   UNL     1      42.085  -9.751  12.721  1.00  0.00    -0.147 NA
HETATM   28  N   UNL     1      41.513  -9.397  13.919  1.00  0.00    -0.124 NA
HETATM   29  C   UNL     1      41.931  -8.285  14.552  1.00  0.00     0.185 A 
HETATM   30  C   UNL     1      42.922  -7.480  14.030  1.00  0.00     0.062 A 
HETATM   31  C   UNL     1      43.500  -7.841  12.814  1.00  0.00     0.038 A 
BRANCH  29  32
HETATM   32  O   UNL     1      41.379  -7.902  15.755  1.00  0.00    -0.338 OA
HETATM   33  C   UNL     1      42.059  -6.800  16.350  1.00  0.00     0.211 C 
ENDBRANCH  29  32
ENDBRANCH   8  26
TORSDOF 6
ENDMDL
MODEL 3
REMARK VINA RESULT:      -7.9      5.748      8.998
REMARK  6 active torsions:
REMARK  status: ('A' for Active; 'I' for Inactive)
REMARK    1  A    between atoms: C_7  and  C_8 
REMARK    2  A    between atoms: C_8  and  C_9 
REMARK       I    between atoms: C_9  and  N_10 
REMARK    3  A    between atoms: N_10  and  C_11 
REMARK    4  A    between atoms: C_11  and  C_12 
REMARK    5  A    between atoms: C_19  and  C_20 
REMARK    6  A    between atoms: C_23  and  O_24 
ROOT
HETATM    1  C   UNL     1      43.521 -10.838   6.702  1.00  0.00     0.151 C 
HETATM    2  O   UNL     1      42.805 -10.813   5.432  1.00  0.00    -0.343 OA
HETATM    3  C   UNL     1      42.909 -12.086   4.948  1.00  0.00     0.075 A 
HETATM    4  C   UNL     1      43.473 -12.981   5.832  1.00  0.00    -0.021 A 
HETATM    5  C   UNL     1      43.786 -12.299   7.105  1.00  0.00     0.075 C 
HETATM    6  C   UNL     1      42.466 -12.482   3.706  1.00  0.00     0.038 A 
HETATM    7  C   UNL     1      42.606 -13.831   3.354  1.00  0.00     0.016 A 
HETATM    8  C   UNL     1      43.184 -14.778   4.237  1.00  0.00    -0.005 A 
HETATM    9  C   UNL     1      43.616 -14.319   5.499  1.00  0.00     0.024 A 
ENDROOT
BRANCH   1  10
HETATM   10  C   UNL     1      42.681 -10.077   7.738  1.00  0.00     0.155 C 
BRANCH  10  11
HETATM   11  N   UNL     1      43.179 -10.141   9.101  1.00  0.00    -0.359 N 
HETATM   12  C   UNL     1      43.867  -9.097   9.680  1.00  0.00     0.219 C 
HETATM   13  O   UNL     1      44.147  -8.066   9.080  1.00  0.00    -0.274 OA
HETATM   14  H   UNL     1      42.877 -10.914   9.683  1.00  0.00     0.162 HD
BRANCH  12  15
HETATM   15  C   UNL     1      44.229  -9.357  11.127  1.00  0.00     0.128 C 
BRANCH  15  16
HETATM   16  C   UNL     1      43.215  -8.755  12.104  1.00  0.00     0.094 C 
HETATM   17  N   UNL     1      42.348  -7.810  11.403  1.00  0.00    -0.362 N 
HETATM   18  C   UNL     1      41.101  -7.470  11.812  1.00  0.00     0.168 C 
HETATM   19  H   UNL     1      42.762  -7.158  10.747  1.00  0.00     0.162 HD
HETATM   20  N   UNL     1      40.540  -8.205  12.802  1.00  0.00    -0.363 N 
HETATM   21  S   UNL     1      40.276  -6.222  11.093  1.00  0.00    -0.041 SA
HETATM   22  C   UNL     1      41.258  -9.178  13.605  1.00  0.00     0.081 C 
HETATM   23  H   UNL     1      39.617  -7.911  13.100  1.00  0.00     0.162 HD
HETATM   24  C   UNL     1      41.788  -8.531  14.884  1.00  0.00     0.032 C 
HETATM   25  C   UNL     1      42.358  -9.836  12.775  1.00  0.00     0.050 C 
ENDBRANCH  15  16
ENDBRANCH  12  15
ENDBRANCH  10  11
ENDBRANCH   1  10
BRANCH   8  26
HETATM   26  C   UNL     1      43.316 -16.205   3.879  1.00  0.00     0.089 A 
HETATM   27  N   UNL     1      43.972 -16.987   4.772  1.00  0.00    -0.147 NA
HETATM   28  N   UNL     1      44.149 -18.329   4.537  1.00  0.00    -0.124 NA
HETATM   29  C   UNL     1      43.668 -18.874   3.405  1.00  0.00     0.185 A 
HETATM   30  C   UNL     1      42.999 -18.121   2.462  1.00  0.00     0.062 A 
HETATM   31  C   UNL     1      42.821 -16.760   2.702  1.00  0.00     0.038 A 
BRANCH  29  32
HETATM   32  O   UNL     1      43.828 -20.217   3.139  1.00  0.00    -0.338 OA
HETATM   33  C   UNL     1      43.690 -20.527   1.754  1.00  0.00     0.211 C 
ENDBRANCH  29  32
ENDBRANCH   8  26
TORSDOF 6
ENDMDL
MODEL 4
REMARK VINA RESULT:      -7.9      3.228      6.947
REMARK  6 active torsions:
REMARK  status: ('A' for Active; 'I' for Inactive)
REMARK    1  A    between atoms: C_7  and  C_8 
REMARK    2  A    between atoms: C_8  and  C_9 
REMARK       I    between atoms: C_9  and  N_10 
REMARK    3  A    between atoms: N_10  and  C_11 
REMARK    4  A    between atoms: C_11  and  C_12 
REMARK    5  A    between atoms: C_19  and  C_20 
REMARK    6  A    between atoms: C_23  and  O_24 
ROOT
HETATM    1  C   UNL     1      39.905 -10.541   4.699  1.00  0.00     0.151 C 
HETATM    2  O   UNL     1      41.064 -10.345   3.837  1.00  0.00    -0.343 OA
HETATM    3  C   UNL     1      41.607 -11.590   3.695  1.00  0.00     0.075 A 
HETATM    4  C   UNL     1      40.844 -12.604   4.234  1.00  0.00    -0.021 A 
HETATM    5  C   UNL     1      39.598 -12.046   4.803  1.00  0.00     0.075 C 
HETATM    6  C   UNL     1      42.793 -11.850   3.044  1.00  0.00     0.038 A 
HETATM    7  C   UNL     1      43.213 -13.183   2.944  1.00  0.00     0.016 A 
HETATM    8  C   UNL     1      42.454 -14.249   3.490  1.00  0.00    -0.005 A 
HETATM    9  C   UNL     1      41.245 -13.927   4.141  1.00  0.00     0.024 A 
ENDROOT
BRANCH   1  10
HETATM   10  C   UNL     1      38.735  -9.734   4.116  1.00  0.00     0.155 C 
BRANCH  10  11
HETATM   11  N   UNL     1      38.050 -10.363   3.000  1.00  0.00    -0.359 N 
HETATM   12  C   UNL     1      38.382 -10.094   1.690  1.00  0.00     0.219 C 
HETATM   13  O   UNL     1      39.240  -9.280   1.371  1.00  0.00    -0.274 OA
HETATM   14  H   UNL     1      37.418 -11.129   3.200  1.00  0.00     0.162 HD
BRANCH  12  15
HETATM   15  C   UNL     1      37.585 -10.913   0.697  1.00  0.00     0.128 C 
BRANCH  15  16
HETATM   16  C   UNL     1      38.450 -11.925  -0.061  1.00  0.00     0.094 C 
HETATM   17  N   UNL     1      39.132 -11.263  -1.171  1.00  0.00    -0.362 N 
HETATM   18  C   UNL     1      40.284 -11.705  -1.732  1.00  0.00     0.168 C 
HETATM   19  H   UNL     1      38.611 -10.614  -1.750  1.00  0.00     0.162 HD
HETATM   20  N   UNL     1      40.959 -12.689  -1.091  1.00  0.00    -0.363 N 
HETATM   21  S   UNL     1      40.867 -11.032  -3.132  1.00  0.00    -0.041 SA
HETATM   22  C   UNL     1      40.428 -13.456   0.021  1.00  0.00     0.081 C 
HETATM   23  H   UNL     1      41.804 -13.013  -1.548  1.00  0.00     0.162 HD
HETATM   24  C   UNL     1      39.764 -14.737  -0.480  1.00  0.00     0.032 C 
HETATM   25  C   UNL     1      39.486 -12.588   0.854  1.00  0.00     0.050 C 
ENDBRANCH  15  16
ENDBRANCH  12  15
ENDBRANCH  10  11
ENDBRANCH   1  10
BRANCH   8  26
HETATM   26  C   UNL     1      42.883 -15.658   3.370  1.00  0.00     0.089 A 
HETATM   27  N   UNL     1      43.416 -16.217   4.485  1.00  0.00    -0.147 NA
HETATM   28  N   UNL     1      43.846 -17.522   4.482  1.00  0.00    -0.124 NA
HETATM   29  C   UNL     1      43.739 -18.254   3.358  1.00  0.00     0.185 A 
HETATM   30  C   UNL     1      43.209 -17.731   2.196  1.00  0.00     0.062 A 
HETATM   31  C   UNL     1      42.775 -16.406   2.201  1.00  0.00     0.038 A 
BRANCH  29  32
HETATM   32  O   UNL     1      44.159 -19.566   3.321  1.00  0.00    -0.338 OA
HETATM   33  C   UNL     1      43.624 -20.288   2.215  1.00  0.00     0.211 C 
ENDBRANCH  29  32
ENDBRANCH   8  26
TORSDOF 6
ENDMDL
MODEL 5
REMARK VINA RESULT:      -7.9      5.227      8.489
REMARK  6 active torsions:
REMARK  status: ('A' for Active; 'I' for Inactive)
REMARK    1  A    between atoms: C_7  and  C_8 
REMARK    2  A    between atoms: C_8  and  C_9 
REMARK       I    between atoms: C_9  and  N_10 
REMARK    3  A    between atoms: N_10  and  C_11 
REMARK    4  A    between atoms: C_11  and  C_12 
REMARK    5  A    between atoms: C_19  and  C_20 
REMARK    6  A    between atoms: C_23  and  O_24 
ROOT
HETATM    1  C   UNL     1      41.614 -10.595   5.420  1.00  0.00     0.151 C 
HETATM    2  O   UNL     1      40.774 -11.530   6.158  1.00  0.00    -0.343 OA
HETATM    3  C   UNL     1      41.147 -12.764   5.707  1.00  0.00     0.075 A 
HETATM    4  C   UNL     1      42.247 -12.753   4.875  1.00  0.00    -0.021 A 
HETATM    5  C   UNL     1      42.749 -11.370   4.727  1.00  0.00     0.075 C 
HETATM    6  C   UNL     1      40.524 -13.941   6.061  1.00  0.00     0.038 A 
HETATM    7  C   UNL     1      41.036 -15.139   5.548  1.00  0.00     0.016 A 
HETATM    8  C   UNL     1      42.164 -15.164   4.688  1.00  0.00    -0.005 A 
HETATM    9  C   UNL     1      42.767 -13.931   4.362  1.00  0.00     0.024 A 
ENDROOT
BRANCH   1  10
HETATM   10  C   UNL     1      42.132  -9.538   6.406  1.00  0.00     0.155 C 
BRANCH  10  11
HETATM   11  N   UNL     1      42.392 -10.025   7.750  1.00  0.00    -0.359 N 
HETATM   12  C   UNL     1      43.502  -9.636   8.468  1.00  0.00     0.219 C 
HETATM   13  O   UNL     1      44.366  -8.895   8.016  1.00  0.00    -0.274 OA
HETATM   14  H   UNL     1      41.658 -10.542   8.219  1.00  0.00     0.162 HD
BRANCH  12  15
HETATM   15  C   UNL     1      43.531 -10.214   9.868  1.00  0.00     0.128 C 
BRANCH  15  16
HETATM   16  C   UNL     1      42.758  -9.357  10.874  1.00  0.00     0.094 C 
HETATM   17  N   UNL     1      41.621 -10.111  11.400  1.00  0.00    -0.362 N 
HETATM   18  C   UNL     1      41.030  -9.867  12.596  1.00  0.00     0.168 C 
HETATM   19  H   UNL     1      41.052 -10.652  10.759  1.00  0.00     0.162 HD
HETATM   20  N   UNL     1      41.661  -9.024  13.449  1.00  0.00    -0.363 N 
HETATM   21  S   UNL     1      39.608 -10.611  13.014  1.00  0.00    -0.041 SA
HETATM   22  C   UNL     1      42.795  -8.193  13.090  1.00  0.00     0.081 C 
HETATM   23  H   UNL     1      41.182  -8.846  14.324  1.00  0.00     0.162 HD
HETATM   24  C   UNL     1      42.326  -6.809  12.645  1.00  0.00     0.032 C 
HETATM   25  C   UNL     1      43.648  -8.896  12.035  1.00  0.00     0.050 C 
ENDBRANCH  15  16
ENDBRANCH  12  15
ENDBRANCH  10  11
ENDBRANCH   1  10
BRANCH   8  26
HETATM   26  C   UNL     1      42.719 -16.427   4.161  1.00  0.00     0.089 A 
HETATM   27  N   UNL     1      42.261 -16.820   2.946  1.00  0.00    -0.147 NA
HETATM   28  N   UNL     1      42.714 -17.979   2.363  1.00  0.00    -0.124 NA
HETATM   29  C   UNL     1      43.622 -18.735   3.007  1.00  0.00     0.185 A 
HETATM   30  C   UNL     1      44.116 -18.382   4.246  1.00  0.00     0.062 A 
HETATM   31  C   UNL     1      43.654 -17.207   4.835  1.00  0.00     0.038 A 
BRANCH  29  32
HETATM   32  O   UNL     1      44.098 -19.903   2.451  1.00  0.00    -0.338 OA
HETATM   33  C   UNL     1      43.918 -21.034   3.300  1.00  0.00     0.211 C 
ENDBRANCH  29  32
ENDBRANCH   8  26
TORSDOF 6
ENDMDL
MODEL 6
REMARK VINA RESULT:      -7.8      3.781      7.246
REMARK  6 active torsions:
REMARK  status: ('A' for Active; 'I' for Inactive)
REMARK    1  A    between atoms: C_7  and  C_8 
REMARK    2  A    between atoms: C_8  and  C_9 
REMARK       I    between atoms: C_9  and  N_10 
REMARK    3  A    between atoms: N_10  and  C_11 
REMARK    4  A    between atoms: C_11  and  C_12 
REMARK    5  A    between atoms: C_19  and  C_20 
REMARK    6  A    between atoms: C_23  and  O_24 
ROOT
HETATM    1  C   UNL     1      41.721 -10.983   1.666  1.00  0.00     0.151 C 
HETATM    2  O   UNL     1      40.820 -11.957   1.061  1.00  0.00    -0.343 OA
HETATM    3  C   UNL     1      41.311 -13.172   1.446  1.00  0.00     0.075 A 
HETATM    4  C   UNL     1      42.335 -13.101   2.365  1.00  0.00    -0.021 A 
HETATM    5  C   UNL     1      42.602 -11.689   2.713  1.00  0.00     0.075 C 
HETATM    6  C   UNL     1      40.823 -14.382   1.002  1.00  0.00     0.038 A 
HETATM    7  C   UNL     1      41.402 -15.552   1.508  1.00  0.00     0.016 A 
HETATM    8  C   UNL     1      42.459 -15.517   2.453  1.00  0.00    -0.005 A 
HETATM    9  C   UNL     1      42.916 -14.251   2.878  1.00  0.00     0.024 A 
ENDROOT
BRANCH   1  10
HETATM   10  C   UNL     1      40.870  -9.855   2.268  1.00  0.00     0.155 C 
BRANCH  10  11
HETATM   11  N   UNL     1      40.941  -9.735   3.714  1.00  0.00    -0.359 N 
HETATM   12  C   UNL     1      40.137 -10.477   4.552  1.00  0.00     0.219 C 
HETATM   13  O   UNL     1      39.280 -11.252   4.144  1.00  0.00    -0.274 OA
HETATM   14  H   UNL     1      41.707  -9.204   4.111  1.00  0.00     0.162 HD
BRANCH  12  15
HETATM   15  C   UNL     1      40.432 -10.239   6.018  1.00  0.00     0.128 C 
BRANCH  15  16
HETATM   16  C   UNL     1      41.909 -10.453   6.363  1.00  0.00     0.094 C 
HETATM   17  N   UNL     1      42.169 -10.008   7.731  1.00  0.00    -0.362 N 
HETATM   18  C   UNL     1      43.190 -10.462   8.500  1.00  0.00     0.168 C 
HETATM   19  H   UNL     1      41.770  -9.131   8.047  1.00  0.00     0.162 HD
HETATM   20  N   UNL     1      43.876 -11.545   8.061  1.00  0.00    -0.363 N 
HETATM   21  S   UNL     1      43.554  -9.741   9.949  1.00  0.00    -0.041 SA
HETATM   22  C   UNL     1      43.748 -12.110   6.731  1.00  0.00     0.081 C 
HETATM   23  H   UNL     1      44.646 -11.845   8.648  1.00  0.00     0.162 HD
HETATM   24  C   UNL     1      44.799 -11.519   5.794  1.00  0.00     0.032 C 
HETATM   25  C   UNL     1      42.322 -11.922   6.215  1.00  0.00     0.050 C 
ENDBRANCH  15  16
ENDBRANCH  12  15
ENDBRANCH  10  11
ENDBRANCH   1  10
BRANCH   8  26
HETATM   26  C   UNL     1      43.058 -16.749   3.005  1.00  0.00     0.089 A 
HETATM   27  N   UNL     1      43.504 -16.674   4.284  1.00  0.00    -0.147 NA
HETATM   28  N   UNL     1      44.077 -17.763   4.895  1.00  0.00    -0.124 NA
HETATM   29  C   UNL     1      44.201 -18.918   4.214  1.00  0.00     0.185 A 
HETATM   30  C   UNL     1      43.769 -19.043   2.910  1.00  0.00     0.062 A 
HETATM   31  C   UNL     1      43.189 -17.937   2.292  1.00  0.00     0.038 A 
BRANCH  29  32
HETATM   32  O   UNL     1      44.771 -20.029   4.797  1.00  0.00    -0.338 OA
HETATM   33  C   UNL     1      43.870 -20.728   5.652  1.00  0.00     0.211 C 
ENDBRANCH  29  32
ENDBRANCH   8  26
TORSDOF 6
ENDMDL
MODEL 7
REMARK VINA RESULT:      -7.7      4.254      7.154
REMARK  6 active torsions:
REMARK  status: ('A' for Active; 'I' for Inactive)
REMARK    1  A    between atoms: C_7  and  C_8 
REMARK    2  A    between atoms: C_8  and  C_9 
REMARK       I    between atoms: C_9  and  N_10 
REMARK    3  A    between atoms: N_10  and  C_11 
REMARK    4  A    between atoms: C_11  and  C_12 
REMARK    5  A    between atoms: C_19  and  C_20 
REMARK    6  A    between atoms: C_23  and  O_24 
ROOT
HETATM    1  C   UNL     1      38.987 -11.182   4.735  1.00  0.00     0.151 C 
HETATM    2  O   UNL     1      39.181 -11.942   5.964  1.00  0.00    -0.343 OA
HETATM    3  C   UNL     1      39.839 -13.074   5.574  1.00  0.00     0.075 A 
HETATM    4  C   UNL     1      40.240 -13.067   4.255  1.00  0.00    -0.021 A 
HETATM    5  C   UNL     1      39.863 -11.785   3.622  1.00  0.00     0.075 C 
HETATM    6  C   UNL     1      40.126 -14.131   6.408  1.00  0.00     0.038 A 
HETATM    7  C   UNL     1      40.839 -15.215   5.880  1.00  0.00     0.016 A 
HETATM    8  C   UNL     1      41.265 -15.243   4.527  1.00  0.00    -0.005 A 
HETATM    9  C   UNL     1      40.949 -14.131   3.718  1.00  0.00     0.024 A 
ENDROOT
BRANCH   1  10
HETATM   10  C   UNL     1      39.321  -9.712   5.026  1.00  0.00     0.155 C 
BRANCH  10  11
HETATM   11  N   UNL     1      39.873  -9.455   6.345  1.00  0.00    -0.359 N 
HETATM   12  C   UNL     1      41.172  -9.031   6.526  1.00  0.00     0.219 C 
HETATM   13  O   UNL     1      41.963  -8.884   5.603  1.00  0.00    -0.274 OA
HETATM   14  H   UNL     1      39.237  -9.443   7.133  1.00  0.00     0.162 HD
BRANCH  12  15
HETATM   15  C   UNL     1      41.508  -8.761   7.978  1.00  0.00     0.128 C 
BRANCH  15  16
HETATM   16  C   UNL     1      42.708  -9.579   8.466  1.00  0.00     0.094 C 
HETATM   17  N   UNL     1      42.847 -10.789   7.658  1.00  0.00    -0.362 N 
HETATM   18  C   UNL     1      44.010 -11.468   7.494  1.00  0.00     0.168 C 
HETATM   19  H   UNL     1      42.018 -11.325   7.429  1.00  0.00     0.162 HD
HETATM   20  N   UNL     1      45.150 -10.875   7.922  1.00  0.00    -0.363 N 
HETATM   21  S   UNL     1      44.035 -12.953   6.755  1.00  0.00    -0.041 SA
HETATM   22  C   UNL     1      45.193  -9.678   8.742  1.00  0.00     0.081 C 
HETATM   23  H   UNL     1      45.998 -11.418   7.806  1.00  0.00     0.162 HD
HETATM   24  C   UNL     1      45.259 -10.045  10.223  1.00  0.00     0.032 C 
HETATM   25  C   UNL     1      44.010  -8.771   8.408  1.00  0.00     0.050 C 
ENDBRANCH  15  16
ENDBRANCH  12  15
ENDBRANCH  10  11
ENDBRANCH   1  10
BRANCH   8  26
HETATM   26  C   UNL     1      42.034 -16.374   3.971  1.00  0.00     0.089 A 
HETATM   27  N   UNL     1      42.814 -17.054   4.847  1.00  0.00    -0.147 NA
HETATM   28  N   UNL     1      43.570 -18.124   4.434  1.00  0.00    -0.124 NA
HETATM   29  C   UNL     1      43.538 -18.500   3.142  1.00  0.00     0.185 A 
HETATM   30  C   UNL     1      42.766 -17.839   2.210  1.00  0.00     0.062 A 
HETATM   31  C   UNL     1      42.001 -16.753   2.632  1.00  0.00     0.038 A 
BRANCH  29  32
HETATM   32  O   UNL     1      44.284 -19.570   2.694  1.00  0.00    -0.338 OA
HETATM   33  C   UNL     1      43.894 -20.804   3.292  1.00  0.00     0.211 C 
ENDBRANCH  29  32
ENDBRANCH   8  26
TORSDOF 6
ENDMDL
MODEL 8
REMARK VINA RESULT:      -7.7      4.651      6.983
REMARK  6 active torsions:
REMARK  status: ('A' for Active; 'I' for Inactive)
REMARK    1  A    between atoms: C_7  and  C_8 
REMARK    2  A    between atoms: C_8  and  C_9 
REMARK       I    between atoms: C_9  and  N_10 
REMARK    3  A    between atoms: N_10  and  C_11 
REMARK    4  A    between atoms: C_11  and  C_12 
REMARK    5  A    between atoms: C_19  and  C_20 
REMARK    6  A    between atoms: C_23  and  O_24 
ROOT
HETATM    1  C   UNL     1      43.859 -11.769   6.623  1.00  0.00     0.151 C 
HETATM    2  O   UNL     1      43.934 -13.223   6.541  1.00  0.00    -0.343 OA
HETATM    3  C   UNL     1      43.240 -13.545   5.410  1.00  0.00     0.075 A 
HETATM    4  C   UNL     1      42.856 -12.457   4.655  1.00  0.00    -0.021 A 
HETATM    5  C   UNL     1      43.345 -11.212   5.283  1.00  0.00     0.075 C 
HETATM    6  C   UNL     1      42.963 -14.833   5.009  1.00  0.00     0.038 A 
HETATM    7  C   UNL     1      42.270 -15.017   3.806  1.00  0.00     0.016 A 
HETATM    8  C   UNL     1      41.858 -13.921   3.006  1.00  0.00    -0.005 A 
HETATM    9  C   UNL     1      42.172 -12.623   3.460  1.00  0.00     0.024 A 
ENDROOT
BRANCH   1  10
HETATM   10  C   UNL     1      45.251 -11.240   6.993  1.00  0.00     0.155 C 
BRANCH  10  11
HETATM   11  N   UNL     1      45.413 -10.853   8.384  1.00  0.00    -0.359 N 
HETATM   12  C   UNL     1      45.359  -9.537   8.791  1.00  0.00     0.219 C 
HETATM   13  O   UNL     1      45.218  -8.602   8.013  1.00  0.00    -0.274 OA
HETATM   14  H   UNL     1      45.412 -11.585   9.085  1.00  0.00     0.162 HD
BRANCH  12  15
HETATM   15  C   UNL     1      45.484  -9.377  10.291  1.00  0.00     0.128 C 
BRANCH  15  16
HETATM   16  C   UNL     1      44.125  -9.231  10.982  1.00  0.00     0.094 C 
HETATM   17  N   UNL     1      43.091  -8.937   9.991  1.00  0.00    -0.362 N 
HETATM   18  C   UNL     1      41.773  -9.205  10.160  1.00  0.00     0.168 C 
HETATM   19  H   UNL     1      43.286  -8.258   9.264  1.00  0.00     0.162 HD
HETATM   20  N   UNL     1      41.419  -9.985  11.210  1.00  0.00    -0.363 N 
HETATM   21  S   UNL     1      40.640  -8.633   9.091  1.00  0.00    -0.041 SA
HETATM   22  C   UNL     1      42.314 -10.362  12.288  1.00  0.00     0.081 C 
HETATM   23  H   UNL     1      40.425 -10.147  11.321  1.00  0.00     0.162 HD
HETATM   24  C   UNL     1      42.200  -9.377  13.450  1.00  0.00     0.032 C 
HETATM   25  C   UNL     1      43.742 -10.494  11.762  1.00  0.00     0.050 C 
ENDBRANCH  15  16
ENDBRANCH  12  15
ENDBRANCH  10  11
ENDBRANCH   1  10
BRANCH   8  26
HETATM   26  C   UNL     1      41.145 -14.109   1.726  1.00  0.00     0.089 A 
HETATM   27  N   UNL     1      41.179 -13.063   0.864  1.00  0.00    -0.147 NA
HETATM   28  N   UNL     1      40.549 -13.133  -0.355  1.00  0.00    -0.124 NA
HETATM   29  C   UNL     1      39.887 -14.255  -0.697  1.00  0.00     0.185 A 
HETATM   30  C   UNL     1      39.818 -15.345   0.146  1.00  0.00     0.062 A 
HETATM   31  C   UNL     1      40.457 -15.270   1.382  1.00  0.00     0.038 A 
BRANCH  29  32
HETATM   32  O   UNL     1      39.245 -14.359  -1.912  1.00  0.00    -0.338 OA
HETATM   33  C   UNL     1      38.263 -13.345  -2.107  1.00  0.00     0.211 C 
ENDBRANCH  29  32
ENDBRANCH   8  26
TORSDOF 6
ENDMDL
MODEL 9
REMARK VINA RESULT:      -7.6      4.947      8.263
REMARK  6 active torsions:
REMARK  status: ('A' for Active; 'I' for Inactive)
REMARK    1  A    between atoms: C_7  and  C_8 
REMARK    2  A    between atoms: C_8  and  C_9 
REMARK       I    between atoms: C_9  and  N_10 
REMARK    3  A    between atoms: N_10  and  C_11 
REMARK    4  A    between atoms: C_11  and  C_12 
REMARK    5  A    between atoms: C_19  and  C_20 
REMARK    6  A    between atoms: C_23  and  O_24 
ROOT
HETATM    1  C   UNL     1      40.079 -11.579   6.086  1.00  0.00     0.151 C 
HETATM    2  O   UNL     1      41.459 -11.663   6.547  1.00  0.00    -0.343 OA
HETATM    3  C   UNL     1      41.920 -12.851   6.055  1.00  0.00     0.075 A 
HETATM    4  C   UNL     1      41.049 -13.480   5.191  1.00  0.00    -0.021 A 
HETATM    5  C   UNL     1      39.839 -12.651   5.007  1.00  0.00     0.075 C 
HETATM    6  C   UNL     1      43.156 -13.385   6.348  1.00  0.00     0.038 A 
HETATM    7  C   UNL     1      43.510 -14.598   5.745  1.00  0.00     0.016 A 
HETATM    8  C   UNL     1      42.639 -15.274   4.853  1.00  0.00    -0.005 A 
HETATM    9  C   UNL     1      41.388 -14.679   4.584  1.00  0.00     0.024 A 
ENDROOT
BRANCH   1  10
HETATM   10  C   UNL     1      39.832 -10.153   5.573  1.00  0.00     0.155 C 
BRANCH  10  11
HETATM   11  N   UNL     1      40.450  -9.101   6.360  1.00  0.00    -0.359 N 
HETATM   12  C   UNL     1      39.924  -8.680   7.563  1.00  0.00     0.219 C 
HETATM   13  O   UNL     1      38.883  -9.125   8.030  1.00  0.00    -0.274 OA
HETATM   14  H   UNL     1      41.371  -8.779   6.087  1.00  0.00     0.162 HD
BRANCH  12  15
HETATM   15  C   UNL     1      40.770  -7.622   8.240  1.00  0.00     0.128 C 
BRANCH  15  16
HETATM   16  C   UNL     1      41.505  -8.158   9.473  1.00  0.00     0.094 C 
HETATM   17  N   UNL     1      40.544  -8.726  10.417  1.00  0.00    -0.362 N 
HETATM   18  C   UNL     1      40.849  -9.669  11.342  1.00  0.00     0.168 C 
HETATM   19  H   UNL     1      39.685  -8.223  10.606  1.00  0.00     0.162 HD
HETATM   20  N   UNL     1      42.056 -10.279  11.245  1.00  0.00    -0.363 N 
HETATM   21  S   UNL     1      39.763 -10.091  12.524  1.00  0.00    -0.041 SA
HETATM   22  C   UNL     1      43.127  -9.840  10.370  1.00  0.00     0.081 C 
HETATM   23  H   UNL     1      42.262 -10.962  11.965  1.00  0.00     0.162 HD
HETATM   24  C   UNL     1      44.071  -8.895  11.111  1.00  0.00     0.032 C 
HETATM   25  C   UNL     1      42.546  -9.220   9.100  1.00  0.00     0.050 C 
ENDBRANCH  15  16
ENDBRANCH  12  15
ENDBRANCH  10  11
ENDBRANCH   1  10
BRANCH   8  26
HETATM   26  C   UNL     1      43.016 -16.542   4.198  1.00  0.00     0.089 A 
HETATM   27  N   UNL     1      43.803 -17.377   4.923  1.00  0.00    -0.147 NA
HETATM   28  N   UNL     1      44.211 -18.584   4.408  1.00  0.00    -0.124 NA
HETATM   29  C   UNL     1      43.827 -18.941   3.169  1.00  0.00     0.185 A 
HETATM   30  C   UNL     1      43.032 -18.126   2.390  1.00  0.00     0.062 A 
HETATM   31  C   UNL     1      42.621 -16.902   2.913  1.00  0.00     0.038 A 
BRANCH  29  32
HETATM   32  O   UNL     1      44.218 -20.146   2.623  1.00  0.00    -0.338 OA
HETATM   33  C   UNL     1      43.431 -20.523   1.496  1.00  0.00     0.211 C 
ENDBRANCH  29  32
ENDBRANCH   8  26
TORSDOF 6
ENDMDL
MODEL 10
REMARK VINA RESULT:      -7.4      2.941      7.134
REMARK  6 active torsions:
REMARK  status: ('A' for Active; 'I' for Inactive)
REMARK    1  A    between atoms: C_7  and  C_8 
REMARK    2  A    between atoms: C_8  and  C_9 
REMARK       I    between atoms: C_9  and  N_10 
REMARK    3  A    between atoms: N_10  and  C_11 
REMARK    4  A    between atoms: C_11  and  C_12 
REMARK    5  A    between atoms: C_19  and  C_20 
REMARK    6  A    between atoms: C_23  and  O_24 
ROOT
HETATM    1  C   UNL     1      39.806 -10.797   4.500  1.00  0.00     0.151 C 
HETATM    2  O   UNL     1      40.965 -10.627   3.632  1.00  0.00    -0.343 OA
HETATM    3  C   UNL     1      41.511 -11.875   3.530  1.00  0.00     0.075 A 
HETATM    4  C   UNL     1      40.750 -12.872   4.102  1.00  0.00    -0.021 A 
HETATM    5  C   UNL     1      39.504 -12.299   4.653  1.00  0.00     0.075 C 
HETATM    6  C   UNL     1      42.697 -12.152   2.887  1.00  0.00     0.038 A 
HETATM    7  C   UNL     1      43.121 -13.486   2.831  1.00  0.00     0.016 A 
HETATM    8  C   UNL     1      42.365 -14.537   3.410  1.00  0.00    -0.005 A 
HETATM    9  C   UNL     1      41.155 -14.197   4.051  1.00  0.00     0.024 A 
ENDROOT
BRANCH   1  10
HETATM   10  C   UNL     1      38.635 -10.013   3.891  1.00  0.00     0.155 C 
BRANCH  10  11
HETATM   11  N   UNL     1      37.994 -10.649   2.753  1.00  0.00    -0.359 N 
HETATM   12  C   UNL     1      37.536  -9.926   1.672  1.00  0.00     0.219 C 
HETATM   13  O   UNL     1      37.594  -8.704   1.611  1.00  0.00    -0.274 OA
HETATM   14  H   UNL     1      38.026 -11.659   2.691  1.00  0.00     0.162 HD
BRANCH  12  15
HETATM   15  C   UNL     1      36.968 -10.801   0.575  1.00  0.00     0.128 C 
BRANCH  15  16
HETATM   16  C   UNL     1      38.044 -11.305  -0.393  1.00  0.00     0.094 C 
HETATM   17  N   UNL     1      38.696 -12.490   0.162  1.00  0.00    -0.362 N 
HETATM   18  C   UNL     1      39.323 -13.435  -0.582  1.00  0.00     0.168 C 
HETATM   19  H   UNL     1      38.954 -12.495   1.142  1.00  0.00     0.162 HD
HETATM   20  N   UNL     1      39.150 -13.396  -1.925  1.00  0.00    -0.363 N 
HETATM   21  S   UNL     1      40.235 -14.621   0.135  1.00  0.00    -0.041 SA
HETATM   22  C   UNL     1      38.534 -12.293  -2.639  1.00  0.00     0.081 C 
HETATM   23  H   UNL     1      39.650 -14.102  -2.453  1.00  0.00     0.162 HD
HETATM   24  C   UNL     1      39.595 -11.302  -3.114  1.00  0.00     0.032 C 
HETATM   25  C   UNL     1      37.460 -11.639  -1.771  1.00  0.00     0.050 C 
ENDBRANCH  15  16
ENDBRANCH  12  15
ENDBRANCH  10  11
ENDBRANCH   1  10
BRANCH   8  26
HETATM   26  C   UNL     1      42.798 -15.947   3.336  1.00  0.00     0.089 A 
HETATM   27  N   UNL     1      43.567 -16.391   4.361  1.00  0.00    -0.147 NA
HETATM   28  N   UNL     1      44.022 -17.687   4.391  1.00  0.00    -0.124 NA
HETATM   29  C   UNL     1      43.702 -18.526   3.388  1.00  0.00     0.185 A 
HETATM   30  C   UNL     1      42.928 -18.122   2.321  1.00  0.00     0.062 A 
HETATM   31  C   UNL     1      42.468 -16.807   2.292  1.00  0.00     0.038 A 
BRANCH  29  32
HETATM   32  O   UNL     1      44.142 -19.833   3.388  1.00  0.00    -0.338 OA
HETATM   33  C   UNL     1      43.794 -20.532   2.196  1.00  0.00     0.211 C 
ENDBRANCH  29  32
ENDBRANCH   8  26
TORSDOF 6
ENDMDL
