MODEL 1
REMARK VINA RESULT:      -7.8      0.000      0.000
REMARK  2 active torsions:
REMARK  status: ('A' for Active; 'I' for Inactive)
REMARK    1  A    between atoms: N_10  and  S_11 
REMARK    2  A    between atoms: S_11  and  C_14 
ROOT
HETATM    1  S   UNL     1      42.554 -15.899   3.323  1.00  0.00     0.245 S 
HETATM    2  O   UNL     1      41.323 -16.393   2.739  1.00  0.00    -0.206 OA
HETATM    3  O   UNL     1      43.570 -15.328   2.471  1.00  0.00    -0.206 OA
ENDROOT
BRANCH   1   4
HETATM    4  N   UNL     1      42.079 -14.658   4.462  1.00  0.00    -0.201 NA
HETATM    5  C   UNL     1      40.634 -14.785   4.972  1.00  0.00     0.096 C 
HETATM    6  C   UNL     1      40.082 -16.211   5.049  1.00  0.00     0.029 C 
HETATM    7  C   UNL     1      40.574 -14.213   6.410  1.00  0.00     0.252 C 
HETATM    8  N   UNL     1      40.313 -12.733   6.464  1.00  0.00    -0.074 N 
HETATM    9  H   UNL     1      39.294 -12.581   6.438  1.00  0.00     0.277 HD
HETATM   10  H   UNL     1      40.597 -12.414   7.402  1.00  0.00     0.277 HD
HETATM   11  C   UNL     1      40.932 -11.831   5.456  1.00  0.00     0.233 C 
HETATM   12  C   UNL     1      42.345 -12.241   5.097  1.00  0.00     0.043 C 
HETATM   13  C   UNL     1      42.377 -13.275   3.974  1.00  0.00     0.109 C 
ENDBRANCH   1   4
BRANCH   1  14
HETATM   14  C   UNL     1      43.220 -17.250   4.296  1.00  0.00     0.088 A 
HETATM   15  C   UNL     1      43.318 -16.990   5.678  1.00  0.00     0.026 A 
HETATM   16  C   UNL     1      43.632 -18.006   6.572  1.00  0.00     0.002 A 
HETATM   17  C   UNL     1      43.829 -19.296   6.100  1.00  0.00     0.014 A 
HETATM   18  C   UNL     1      43.748 -19.583   4.728  1.00  0.00    -0.004 A 
HETATM   19  C   UNL     1      43.957 -20.893   4.283  1.00  0.00     0.128 A 
HETATM   20  C   UNL     1      43.462 -18.565   3.779  1.00  0.00     0.038 A 
HETATM   21  N   UNL     1      43.938 -21.281   2.991  1.00  0.00    -0.269 NA
HETATM   22  C   UNL     1      43.706 -20.313   2.088  1.00  0.00     0.159 A 
HETATM   23  C   UNL     1      43.485 -18.985   2.424  1.00  0.00     0.146 A 
HETATM   24  F   UNL     1      43.420 -18.109   1.415  1.00  0.00    -0.204 F 
ENDBRANCH   1  14
TORSDOF 2
ENDMDL
MODEL 2
REMARK VINA RESULT:      -7.6      2.509      3.632
REMARK  2 active torsions:
REMARK  status: ('A' for Active; 'I' for Inactive)
REMARK    1  A    between atoms: N_10  and  S_11 
REMARK    2  A    between atoms: S_11  and  C_14 
ROOT
HETATM    1  S   UNL     1      41.087 -15.392   2.283  1.00  0.00     0.245 S 
HETATM    2  O   UNL     1      39.720 -15.665   2.679  1.00  0.00    -0.206 OA
HETATM    3  O   UNL     1      41.422 -15.308   0.881  1.00  0.00    -0.206 OA
ENDROOT
BRANCH   1   4
HETATM    4  N   UNL     1      41.494 -13.849   3.003  1.00  0.00    -0.201 NA
HETATM    5  C   UNL     1      40.780 -12.645   2.369  1.00  0.00     0.096 C 
HETATM    6  C   UNL     1      39.391 -12.928   1.789  1.00  0.00     0.029 C 
HETATM    7  C   UNL     1      40.587 -11.563   3.460  1.00  0.00     0.252 C 
HETATM    8  N   UNL     1      41.752 -10.622   3.595  1.00  0.00    -0.074 N 
HETATM    9  H   UNL     1      41.632  -9.855   2.916  1.00  0.00     0.277 HD
HETATM   10  H   UNL     1      41.663 -10.167   4.515  1.00  0.00     0.277 HD
HETATM   11  C   UNL     1      43.142 -11.135   3.459  1.00  0.00     0.233 C 
HETATM   12  C   UNL     1      43.321 -12.503   4.081  1.00  0.00     0.043 C 
HETATM   13  C   UNL     1      42.969 -13.628   3.110  1.00  0.00     0.109 C 
ENDBRANCH   1   4
BRANCH   1  14
HETATM   14  C   UNL     1      42.098 -16.620   3.110  1.00  0.00     0.088 A 
HETATM   15  C   UNL     1      42.849 -17.444   2.248  1.00  0.00     0.026 A 
HETATM   16  C   UNL     1      43.817 -18.304   2.751  1.00  0.00     0.002 A 
HETATM   17  C   UNL     1      44.062 -18.335   4.117  1.00  0.00     0.014 A 
HETATM   18  C   UNL     1      43.323 -17.532   5.001  1.00  0.00    -0.004 A 
HETATM   19  C   UNL     1      43.590 -17.590   6.373  1.00  0.00     0.128 A 
HETATM   20  C   UNL     1      42.302 -16.665   4.529  1.00  0.00     0.038 A 
HETATM   21  N   UNL     1      42.925 -16.895   7.318  1.00  0.00    -0.269 NA
HETATM   22  C   UNL     1      41.933 -16.101   6.878  1.00  0.00     0.159 A 
HETATM   23  C   UNL     1      41.589 -15.971   5.540  1.00  0.00     0.146 A 
HETATM   24  F   UNL     1      40.485 -15.266   5.266  1.00  0.00    -0.204 F 
ENDBRANCH   1  14
TORSDOF 2
ENDMDL
MODEL 3
REMARK VINA RESULT:      -7.6      1.704      1.839
REMARK  2 active torsions:
REMARK  status: ('A' for Active; 'I' for Inactive)
REMARK    1  A    between atoms: N_10  and  S_11 
REMARK    2  A    between atoms: S_11  and  C_14 
ROOT
HETATM    1  S   UNL     1      42.622 -15.976   2.453  1.00  0.00     0.245 S 
HETATM    2  O   UNL     1      41.325 -16.573   2.205  1.00  0.00    -0.206 OA
HETATM    3  O   UNL     1      43.600 -15.929   1.392  1.00  0.00    -0.206 OA
ENDROOT
BRANCH   1   4
HETATM    4  N   UNL     1      42.305 -14.324   2.936  1.00  0.00    -0.201 NA
HETATM    5  C   UNL     1      40.938 -13.784   2.486  1.00  0.00     0.096 C 
HETATM    6  C   UNL     1      39.820 -14.823   2.368  1.00  0.00     0.029 C 
HETATM    7  C   UNL     1      40.460 -12.742   3.527  1.00  0.00     0.252 C 
HETATM    8  N   UNL     1      40.944 -11.344   3.254  1.00  0.00    -0.074 N 
HETATM    9  H   UNL     1      40.283 -10.892   2.605  1.00  0.00     0.277 HD
HETATM   10  H   UNL     1      40.843 -10.817   4.134  1.00  0.00     0.277 HD
HETATM   11  C   UNL     1      42.319 -11.123   2.731  1.00  0.00     0.233 C 
HETATM   12  C   UNL     1      43.333 -12.068   3.340  1.00  0.00     0.043 C 
HETATM   13  C   UNL     1      43.417 -13.390   2.580  1.00  0.00     0.109 C 
ENDBRANCH   1   4
BRANCH   1  14
HETATM   14  C   UNL     1      43.284 -16.808   3.897  1.00  0.00     0.088 A 
HETATM   15  C   UNL     1      43.386 -16.000   5.048  1.00  0.00     0.026 A 
HETATM   16  C   UNL     1      43.698 -16.557   6.281  1.00  0.00     0.002 A 
HETATM   17  C   UNL     1      43.888 -17.929   6.384  1.00  0.00     0.014 A 
HETATM   18  C   UNL     1      43.803 -18.756   5.254  1.00  0.00    -0.004 A 
HETATM   19  C   UNL     1      44.006 -20.134   5.390  1.00  0.00     0.128 A 
HETATM   20  C   UNL     1      43.520 -18.220   3.969  1.00  0.00     0.038 A 
HETATM   21  N   UNL     1      43.982 -21.021   4.374  1.00  0.00    -0.269 NA
HETATM   22  C   UNL     1      43.752 -20.512   3.152  1.00  0.00     0.159 A 
HETATM   23  C   UNL     1      43.537 -19.162   2.909  1.00  0.00     0.146 A 
HETATM   24  F   UNL     1      43.474 -18.782   1.628  1.00  0.00    -0.204 F 
ENDBRANCH   1  14
TORSDOF 2
ENDMDL
MODEL 4
REMARK VINA RESULT:      -7.5      2.354      3.408
REMARK  2 active torsions:
REMARK  status: ('A' for Active; 'I' for Inactive)
REMARK    1  A    between atoms: N_10  and  S_11 
REMARK    2  A    between atoms: S_11  and  C_14 
ROOT
HETATM    1  S   UNL     1      42.966 -15.222   5.867  1.00  0.00     0.245 S 
HETATM    2  O   UNL     1      44.305 -15.155   6.418  1.00  0.00    -0.206 OA
HETATM    3  O   UNL     1      41.849 -15.502   6.738  1.00  0.00    -0.206 OA
ENDROOT
BRANCH   1   4
HETATM    4  N   UNL     1      42.671 -13.659   5.137  1.00  0.00    -0.201 NA
HETATM    5  C   UNL     1      43.151 -12.465   5.978  1.00  0.00     0.096 C 
HETATM    6  C   UNL     1      44.370 -12.728   6.866  1.00  0.00     0.029 C 
HETATM    7  C   UNL     1      43.550 -11.320   5.015  1.00  0.00     0.252 C 
HETATM    8  N   UNL     1      42.408 -10.415   4.641  1.00  0.00    -0.074 N 
HETATM    9  H   UNL     1      42.323  -9.683   5.361  1.00  0.00     0.277 HD
HETATM   10  H   UNL     1      42.695  -9.909   3.791  1.00  0.00     0.277 HD
HETATM   11  C   UNL     1      41.053 -10.985   4.411  1.00  0.00     0.233 C 
HETATM   12  C   UNL     1      41.096 -12.324   3.705  1.00  0.00     0.043 C 
HETATM   13  C   UNL     1      41.256 -13.485   4.682  1.00  0.00     0.109 C 
ENDBRANCH   1   4
BRANCH   1  14
HETATM   14  C   UNL     1      43.040 -16.404   4.521  1.00  0.00     0.088 A 
HETATM   15  C   UNL     1      42.915 -15.842   3.234  1.00  0.00     0.026 A 
HETATM   16  C   UNL     1      43.147 -16.607   2.099  1.00  0.00     0.002 A 
HETATM   17  C   UNL     1      43.528 -17.935   2.235  1.00  0.00     0.014 A 
HETATM   18  C   UNL     1      43.651 -18.524   3.503  1.00  0.00    -0.004 A 
HETATM   19  C   UNL     1      44.031 -19.867   3.606  1.00  0.00     0.128 A 
HETATM   20  C   UNL     1      43.390 -17.785   4.687  1.00  0.00     0.038 A 
HETATM   21  N   UNL     1      44.149 -20.549   4.764  1.00  0.00    -0.269 NA
HETATM   22  C   UNL     1      43.867 -19.861   5.884  1.00  0.00     0.159 A 
HETATM   23  C   UNL     1      43.482 -18.527   5.892  1.00  0.00     0.146 A 
HETATM   24  F   UNL     1      43.085 -18.020   7.064  1.00  0.00    -0.204 F 
ENDBRANCH   1  14
TORSDOF 2
ENDMDL
MODEL 5
REMARK VINA RESULT:      -7.3      2.700      3.952
REMARK  2 active torsions:
REMARK  status: ('A' for Active; 'I' for Inactive)
REMARK    1  A    between atoms: N_10  and  S_11 
REMARK    2  A    between atoms: S_11  and  C_14 
ROOT
HETATM    1  S   UNL     1      41.610 -14.062   5.373  1.00  0.00     0.245 S 
HETATM    2  O   UNL     1      42.765 -13.710   6.176  1.00  0.00    -0.206 OA
HETATM    3  O   UNL     1      40.379 -14.444   6.023  1.00  0.00    -0.206 OA
ENDROOT
BRANCH   1   4
HETATM    4  N   UNL     1      41.261 -12.654   4.394  1.00  0.00    -0.201 NA
HETATM    5  C   UNL     1      42.365 -11.584   4.407  1.00  0.00     0.096 C 
HETATM    6  C   UNL     1      43.792 -12.105   4.598  1.00  0.00     0.029 C 
HETATM    7  C   UNL     1      42.346 -10.849   3.044  1.00  0.00     0.252 C 
HETATM    8  N   UNL     1      41.405  -9.676   2.999  1.00  0.00    -0.074 N 
HETATM    9  H   UNL     1      41.902  -8.847   3.357  1.00  0.00     0.277 HD
HETATM   10  H   UNL     1      41.238  -9.466   2.004  1.00  0.00     0.277 HD
HETATM   11  C   UNL     1      40.089  -9.752   3.689  1.00  0.00     0.233 C 
HETATM   12  C   UNL     1      39.449 -11.119   3.574  1.00  0.00     0.043 C 
HETATM   13  C   UNL     1      39.915 -12.067   4.677  1.00  0.00     0.109 C 
ENDBRANCH   1   4
BRANCH   1  14
HETATM   14  C   UNL     1      42.162 -15.341   4.243  1.00  0.00     0.088 A 
HETATM   15  C   UNL     1      42.142 -14.974   2.882  1.00  0.00     0.026 A 
HETATM   16  C   UNL     1      42.721 -15.789   1.918  1.00  0.00     0.002 A 
HETATM   17  C   UNL     1      43.345 -16.968   2.304  1.00  0.00     0.014 A 
HETATM   18  C   UNL     1      43.371 -17.363   3.650  1.00  0.00    -0.004 A 
HETATM   19  C   UNL     1      44.003 -18.560   4.006  1.00  0.00     0.128 A 
HETATM   20  C   UNL     1      42.761 -16.574   4.662  1.00  0.00     0.038 A 
HETATM   21  N   UNL     1      44.062 -19.059   5.258  1.00  0.00    -0.269 NA
HETATM   22  C   UNL     1      43.454 -18.332   6.211  1.00  0.00     0.159 A 
HETATM   23  C   UNL     1      42.800 -17.133   5.965  1.00  0.00     0.146 A 
HETATM   24  F   UNL     1      42.111 -16.601   6.980  1.00  0.00    -0.204 F 
ENDBRANCH   1  14
TORSDOF 2
ENDMDL
MODEL 6
REMARK VINA RESULT:      -6.8      2.528      5.739
REMARK  2 active torsions:
REMARK  status: ('A' for Active; 'I' for Inactive)
REMARK    1  A    between atoms: N_10  and  S_11 
REMARK    2  A    between atoms: S_11  and  C_14 
ROOT
HETATM    1  S   UNL     1      42.694 -14.844   5.820  1.00  0.00     0.245 S 
HETATM    2  O   UNL     1      41.461 -14.932   6.576  1.00  0.00    -0.206 OA
HETATM    3  O   UNL     1      43.894 -14.364   6.463  1.00  0.00    -0.206 OA
ENDROOT
BRANCH   1   4
HETATM    4  N   UNL     1      43.026 -16.467   5.255  1.00  0.00    -0.201 NA
HETATM    5  C   UNL     1      43.851 -17.321   6.231  1.00  0.00     0.096 C 
HETATM    6  C   UNL     1      43.659 -17.003   7.716  1.00  0.00     0.029 C 
HETATM    7  C   UNL     1      43.443 -18.804   6.044  1.00  0.00     0.252 C 
HETATM    8  N   UNL     1      44.226 -19.519   4.978  1.00  0.00    -0.074 N 
HETATM    9  H   UNL     1      45.092 -19.886   5.400  1.00  0.00     0.277 HD
HETATM   10  H   UNL     1      43.686 -20.360   4.726  1.00  0.00     0.277 HD
HETATM   11  C   UNL     1      44.597 -18.808   3.725  1.00  0.00     0.233 C 
HETATM   12  C   UNL     1      43.504 -17.882   3.235  1.00  0.00     0.043 C 
HETATM   13  C   UNL     1      43.594 -16.498   3.872  1.00  0.00     0.109 C 
ENDBRANCH   1   4
BRANCH   1  14
HETATM   14  C   UNL     1      42.315 -13.868   4.364  1.00  0.00     0.088 A 
HETATM   15  C   UNL     1      43.093 -12.702   4.215  1.00  0.00     0.026 A 
HETATM   16  C   UNL     1      43.042 -11.959   3.044  1.00  0.00     0.002 A 
HETATM   17  C   UNL     1      42.233 -12.383   1.998  1.00  0.00     0.014 A 
HETATM   18  C   UNL     1      41.440 -13.534   2.122  1.00  0.00    -0.004 A 
HETATM   19  C   UNL     1      40.630 -13.932   1.052  1.00  0.00     0.128 A 
HETATM   20  C   UNL     1      41.438 -14.303   3.316  1.00  0.00     0.038 A 
HETATM   21  N   UNL     1      39.803 -14.998   1.065  1.00  0.00    -0.269 NA
HETATM   22  C   UNL     1      39.771 -15.705   2.208  1.00  0.00     0.159 A 
HETATM   23  C   UNL     1      40.534 -15.396   3.325  1.00  0.00     0.146 A 
HETATM   24  F   UNL     1      40.285 -16.095   4.439  1.00  0.00    -0.204 F 
ENDBRANCH   1  14
TORSDOF 2
ENDMDL
MODEL 7
REMARK VINA RESULT:      -6.8      3.348      4.866
REMARK  2 active torsions:
REMARK  status: ('A' for Active; 'I' for Inactive)
REMARK    1  A    between atoms: N_10  and  S_11 
REMARK    2  A    between atoms: S_11  and  C_14 
ROOT
HETATM    1  S   UNL     1      42.144 -11.927   3.670  1.00  0.00     0.245 S 
HETATM    2  O   UNL     1      40.710 -11.761   3.801  1.00  0.00    -0.206 OA
HETATM    3  O   UNL     1      42.867 -11.147   2.694  1.00  0.00    -0.206 OA
ENDROOT
BRANCH   1   4
HETATM    4  N   UNL     1      42.815 -11.539   5.239  1.00  0.00    -0.201 NA
HETATM    5  C   UNL     1      42.544 -10.101   5.707  1.00  0.00     0.096 C 
HETATM    6  C   UNL     1      41.239  -9.476   5.206  1.00  0.00     0.029 C 
HETATM    7  C   UNL     1      42.466 -10.098   7.254  1.00  0.00     0.252 C 
HETATM    8  N   UNL     1      43.797  -9.916   7.929  1.00  0.00    -0.074 N 
HETATM    9  H   UNL     1      43.986  -8.906   8.009  1.00  0.00     0.277 HD
HETATM   10  H   UNL     1      43.684 -10.234   8.902  1.00  0.00     0.277 HD
HETATM   11  C   UNL     1      45.012 -10.562   7.363  1.00  0.00     0.233 C 
HETATM   12  C   UNL     1      44.733 -11.944   6.811  1.00  0.00     0.043 C 
HETATM   13  C   UNL     1      44.262 -11.900   5.359  1.00  0.00     0.109 C 
ENDBRANCH   1   4
BRANCH   1  14
HETATM   14  C   UNL     1      42.421 -13.681   3.420  1.00  0.00     0.088 A 
HETATM   15  C   UNL     1      42.975 -14.019   2.169  1.00  0.00     0.026 A 
HETATM   16  C   UNL     1      43.420 -15.309   1.914  1.00  0.00     0.002 A 
HETATM   17  C   UNL     1      43.336 -16.272   2.911  1.00  0.00     0.014 A 
HETATM   18  C   UNL     1      42.779 -15.967   4.163  1.00  0.00    -0.004 A 
HETATM   19  C   UNL     1      42.704 -16.961   5.146  1.00  0.00     0.128 A 
HETATM   20  C   UNL     1      42.283 -14.668   4.452  1.00  0.00     0.038 A 
HETATM   21  N   UNL     1      42.161 -16.796   6.369  1.00  0.00    -0.269 NA
HETATM   22  C   UNL     1      41.657 -15.578   6.631  1.00  0.00     0.159 A 
HETATM   23  C   UNL     1      41.681 -14.524   5.728  1.00  0.00     0.146 A 
HETATM   24  F   UNL     1      41.007 -13.420   6.069  1.00  0.00    -0.204 F 
ENDBRANCH   1  14
TORSDOF 2
ENDMDL
MODEL 8
REMARK VINA RESULT:      -6.6      3.069      4.028
REMARK  2 active torsions:
REMARK  status: ('A' for Active; 'I' for Inactive)
REMARK    1  A    between atoms: N_10  and  S_11 
REMARK    2  A    between atoms: S_11  and  C_14 
ROOT
HETATM    1  S   UNL     1      42.751 -12.448   3.171  1.00  0.00     0.245 S 
HETATM    2  O   UNL     1      42.104 -12.029   1.944  1.00  0.00    -0.206 OA
HETATM    3  O   UNL     1      44.041 -11.903   3.521  1.00  0.00    -0.206 OA
ENDROOT
BRANCH   1   4
HETATM    4  N   UNL     1      41.646 -12.025   4.462  1.00  0.00    -0.201 NA
HETATM    5  C   UNL     1      40.162 -12.232   4.119  1.00  0.00     0.096 C 
HETATM    6  C   UNL     1      39.861 -13.363   3.131  1.00  0.00     0.029 C 
HETATM    7  C   UNL     1      39.405 -12.577   5.425  1.00  0.00     0.252 C 
HETATM    8  N   UNL     1      38.916 -11.372   6.180  1.00  0.00    -0.074 N 
HETATM    9  H   UNL     1      37.996 -11.102   5.803  1.00  0.00     0.277 HD
HETATM   10  H   UNL     1      38.719 -11.683   7.143  1.00  0.00     0.277 HD
HETATM   11  C   UNL     1      39.757 -10.146   6.248  1.00  0.00     0.233 C 
HETATM   12  C   UNL     1      41.232 -10.458   6.382  1.00  0.00     0.043 C 
HETATM   13  C   UNL     1      41.902 -10.664   5.025  1.00  0.00     0.109 C 
ENDBRANCH   1   4
BRANCH   1  14
HETATM   14  C   UNL     1      42.806 -14.240   3.118  1.00  0.00     0.088 A 
HETATM   15  C   UNL     1      42.635 -14.797   1.835  1.00  0.00     0.026 A 
HETATM   16  C   UNL     1      42.846 -16.152   1.615  1.00  0.00     0.002 A 
HETATM   17  C   UNL     1      43.251 -16.961   2.668  1.00  0.00     0.014 A 
HETATM   18  C   UNL     1      43.419 -16.435   3.959  1.00  0.00    -0.004 A 
HETATM   19  C   UNL     1      43.823 -17.278   5.001  1.00  0.00     0.128 A 
HETATM   20  C   UNL     1      43.180 -15.062   4.231  1.00  0.00     0.038 A 
HETATM   21  N   UNL     1      43.984 -16.896   6.284  1.00  0.00    -0.269 NA
HETATM   22  C   UNL     1      43.722 -15.605   6.551  1.00  0.00     0.159 A 
HETATM   23  C   UNL     1      43.317 -14.687   5.592  1.00  0.00     0.146 A 
HETATM   24  F   UNL     1      42.947 -13.479   6.031  1.00  0.00    -0.204 F 
ENDBRANCH   1  14
TORSDOF 2
ENDMDL
MODEL 9
REMARK VINA RESULT:      -6.6      4.380      6.020
REMARK  2 active torsions:
REMARK  status: ('A' for Active; 'I' for Inactive)
REMARK    1  A    between atoms: N_10  and  S_11 
REMARK    2  A    between atoms: S_11  and  C_14 
ROOT
HETATM    1  S   UNL     1      40.701 -13.087   1.867  1.00  0.00     0.245 S 
HETATM    2  O   UNL     1      41.578 -12.024   2.317  1.00  0.00    -0.206 OA
HETATM    3  O   UNL     1      39.312 -13.081   2.260  1.00  0.00    -0.206 OA
ENDROOT
BRANCH   1   4
HETATM    4  N   UNL     1      40.742 -13.032   0.118  1.00  0.00    -0.201 NA
HETATM    5  C   UNL     1      40.657 -11.616  -0.474  1.00  0.00     0.096 C 
HETATM    6  C   UNL     1      41.257 -10.501   0.387  1.00  0.00     0.029 C 
HETATM    7  C   UNL     1      41.434 -11.601  -1.814  1.00  0.00     0.252 C 
HETATM    8  N   UNL     1      40.601 -11.995  -3.003  1.00  0.00    -0.074 N 
HETATM    9  H   UNL     1      40.120 -11.155  -3.356  1.00  0.00     0.277 HD
HETATM   10  H   UNL     1      41.257 -12.251  -3.755  1.00  0.00     0.277 HD
HETATM   11  C   UNL     1      39.590 -13.079  -2.875  1.00  0.00     0.233 C 
HETATM   12  C   UNL     1      40.060 -14.214  -1.992  1.00  0.00     0.043 C 
HETATM   13  C   UNL     1      39.756 -13.960  -0.517  1.00  0.00     0.109 C 
ENDBRANCH   1   4
BRANCH   1  14
HETATM   14  C   UNL     1      41.495 -14.622   2.344  1.00  0.00     0.088 A 
HETATM   15  C   UNL     1      42.182 -15.279   1.304  1.00  0.00     0.026 A 
HETATM   16  C   UNL     1      43.000 -16.370   1.570  1.00  0.00     0.002 A 
HETATM   17  C   UNL     1      43.159 -16.802   2.879  1.00  0.00     0.014 A 
HETATM   18  C   UNL     1      42.480 -16.173   3.934  1.00  0.00    -0.004 A 
HETATM   19  C   UNL     1      42.657 -16.637   5.243  1.00  0.00     0.128 A 
HETATM   20  C   UNL     1      41.608 -15.077   3.699  1.00  0.00     0.038 A 
HETATM   21  N   UNL     1      42.034 -16.137   6.330  1.00  0.00    -0.269 NA
HETATM   22  C   UNL     1      41.180 -15.123   6.105  1.00  0.00     0.159 A 
HETATM   23  C   UNL     1      40.934 -14.589   4.848  1.00  0.00     0.146 A 
HETATM   24  F   UNL     1      39.948 -13.689   4.756  1.00  0.00    -0.204 F 
ENDBRANCH   1  14
TORSDOF 2
ENDMDL
MODEL 10
REMARK VINA RESULT:      -6.4      3.939      7.052
REMARK  2 active torsions:
REMARK  status: ('A' for Active; 'I' for Inactive)
REMARK    1  A    between atoms: N_10  and  S_11 
REMARK    2  A    between atoms: S_11  and  C_14 
ROOT
HETATM    1  S   UNL     1      42.337 -13.719   2.978  1.00  0.00     0.245 S 
HETATM    2  O   UNL     1      41.472 -13.212   4.025  1.00  0.00    -0.206 OA
HETATM    3  O   UNL     1      43.648 -13.142   2.793  1.00  0.00    -0.206 OA
ENDROOT
BRANCH   1   4
HETATM    4  N   UNL     1      42.567 -15.418   3.329  1.00  0.00    -0.201 NA
HETATM    5  C   UNL     1      43.289 -15.699   4.657  1.00  0.00     0.096 C 
HETATM    6  C   UNL     1      43.068 -14.665   5.764  1.00  0.00     0.029 C 
HETATM    7  C   UNL     1      42.778 -17.052   5.212  1.00  0.00     0.252 C 
HETATM    8  N   UNL     1      43.543 -18.244   4.706  1.00  0.00    -0.074 N 
HETATM    9  H   UNL     1      44.363 -18.387   5.315  1.00  0.00     0.277 HD
HETATM   10  H   UNL     1      42.951 -19.071   4.874  1.00  0.00     0.277 HD
HETATM   11  C   UNL     1      44.012 -18.282   3.295  1.00  0.00     0.233 C 
HETATM   12  C   UNL     1      43.010 -17.681   2.332  1.00  0.00     0.043 C 
HETATM   13  C   UNL     1      43.181 -16.170   2.192  1.00  0.00     0.109 C 
ENDBRANCH   1   4
BRANCH   1  14
HETATM   14  C   UNL     1      41.383 -13.639   1.462  1.00  0.00     0.088 A 
HETATM   15  C   UNL     1      40.895 -14.880   1.007  1.00  0.00     0.026 A 
HETATM   16  C   UNL     1      39.984 -14.945  -0.040  1.00  0.00     0.002 A 
HETATM   17  C   UNL     1      39.535 -13.771  -0.629  1.00  0.00     0.014 A 
HETATM   18  C   UNL     1      40.011 -12.521  -0.203  1.00  0.00    -0.004 A 
HETATM   19  C   UNL     1      39.542 -11.356  -0.821  1.00  0.00     0.128 A 
HETATM   20  C   UNL     1      40.968 -12.415   0.842  1.00  0.00     0.038 A 
HETATM   21  N   UNL     1      39.951 -10.106  -0.521  1.00  0.00    -0.269 NA
HETATM   22  C   UNL     1      40.884 -10.006   0.442  1.00  0.00     0.159 A 
HETATM   23  C   UNL     1      41.413 -11.097   1.117  1.00  0.00     0.146 A 
HETATM   24  F   UNL     1      42.441 -10.858   1.939  1.00  0.00    -0.204 F 
ENDBRANCH   1  14
TORSDOF 2
ENDMDL
