MODEL 1
REMARK VINA RESULT:      -9.1      0.000      0.000
REMARK  6 active torsions:
REMARK  status: ('A' for Active; 'I' for Inactive)
REMARK    1  A    between atoms: C_2  and  O_3 
REMARK    2  A    between atoms: O_3  and  C_4 
REMARK    3  A    between atoms: C_5  and  O_6 
REMARK    4  A    between atoms: O_6  and  C_7 
REMARK    5  A    between atoms: C_7  and  C_8 
REMARK    6  A    between atoms: C_18  and  C_19 
ROOT
HETATM    1  C   UNL     1      40.960 -12.886   5.257  1.00  0.00     0.103 A 
HETATM    2  C   UNL     1      42.120 -13.632   5.486  1.00  0.00     0.112 A 
HETATM    3  C   UNL     1      43.240 -13.069   6.096  1.00  0.00     0.041 A 
HETATM    4  C   UNL     1      43.189 -11.747   6.530  1.00  0.00     0.014 A 
HETATM    5  C   UNL     1      42.033 -10.965   6.336  1.00  0.00    -0.013 A 
HETATM    6  C   UNL     1      40.930 -11.552   5.678  1.00  0.00     0.050 A 
ENDROOT
BRANCH   5   7
HETATM    7  C   UNL     1      42.041  -9.527   6.837  1.00  0.00     0.219 C 
HETATM    8  N   UNL     1      40.718  -9.092   7.211  1.00  0.00    -0.332 N 
HETATM    9  C   UNL     1      40.209  -9.188   8.475  1.00  0.00     0.256 C 
HETATM   10  H   UNL     1      40.018  -9.034   6.487  1.00  0.00     0.165 HD
HETATM   11  O   UNL     1      39.007  -9.092   8.699  1.00  0.00    -0.267 OA
HETATM   12  C   UNL     1      41.191  -9.361   9.529  1.00  0.00     0.073 A 
HETATM   13  C   UNL     1      42.525  -9.384   9.198  1.00  0.00     0.088 A 
HETATM   14  C   UNL     1      40.988  -9.493  10.938  1.00  0.00    -0.023 A 
HETATM   15  S   UNL     1      43.533  -9.547  10.559  1.00  0.00    -0.074 SA
HETATM   16  N   UNL     1      42.969  -9.290   7.928  1.00  0.00    -0.358 N 
HETATM   17  C   UNL     1      42.193  -9.593  11.609  1.00  0.00     0.018 A 
HETATM   18  C   UNL     1      42.341  -9.742  13.083  1.00  0.00     0.281 C 
HETATM   19  N   UNL     1      41.049  -9.383  13.810  1.00  0.00    -0.070 N 
HETATM   20  C   UNL     1      39.829  -9.986  13.115  1.00  0.00     0.239 C 
HETATM   21  H   UNL     1      41.110  -9.829  14.733  1.00  0.00     0.279 HD
HETATM   22  C   UNL     1      40.921  -7.908  14.064  1.00  0.00     0.270 C 
HETATM   23  C   UNL     1      39.676  -9.489  11.667  1.00  0.00     0.068 C 
HETATM   24  H   UNL     1      43.944  -9.471   7.707  1.00  0.00     0.162 HD
ENDBRANCH   5   7
BRANCH   1  25
HETATM   25  O   UNL     1      39.941 -13.524   4.602  1.00  0.00    -0.349 OA
BRANCH  25  26
HETATM   26  C   UNL     1      39.585 -13.008   3.321  1.00  0.00     0.171 C 
HETATM   27  C   UNL     1      39.742 -14.123   2.304  1.00  0.00     0.034 C 
ENDBRANCH  25  26
ENDBRANCH   1  25
BRANCH   2  28
HETATM   28  O   UNL     1      42.192 -14.966   5.082  1.00  0.00    -0.272 OA
BRANCH  28  29
HETATM   29  C   UNL     1      42.894 -15.091   3.902  1.00  0.00     0.300 C 
HETATM   30  O   UNL     1      43.225 -14.207   3.125  1.00  0.00    -0.259 OA
BRANCH  29  31
HETATM   31  C   UNL     1      43.301 -16.499   3.718  1.00  0.00     0.061 A 
HETATM   32  C   UNL     1      44.098 -17.200   4.632  1.00  0.00     0.050 A 
HETATM   33 CL   UNL     1      44.678 -16.514   6.107  1.00  0.00    -0.083 Cl
HETATM   34  C   UNL     1      44.402 -18.545   4.392  1.00  0.00     0.025 A 
HETATM   35  C   UNL     1      43.903 -19.193   3.259  1.00  0.00     0.002 A 
HETATM   36  C   UNL     1      43.091 -18.502   2.362  1.00  0.00     0.001 A 
HETATM   37  C   UNL     1      42.787 -17.160   2.590  1.00  0.00     0.019 A 
ENDBRANCH  29  31
ENDBRANCH  28  29
ENDBRANCH   2  28
TORSDOF 6
ENDMDL
MODEL 2
REMARK VINA RESULT:      -8.8      5.173      8.186
REMARK  6 active torsions:
REMARK  status: ('A' for Active; 'I' for Inactive)
REMARK    1  A    between atoms: C_2  and  O_3 
REMARK    2  A    between atoms: O_3  and  C_4 
REMARK    3  A    between atoms: C_5  and  O_6 
REMARK    4  A    between atoms: O_6  and  C_7 
REMARK    5  A    between atoms: C_7  and  C_8 
REMARK    6  A    between atoms: C_18  and  C_19 
ROOT
HETATM    1  C   UNL     1      40.842 -13.966   4.597  1.00  0.00     0.103 A 
HETATM    2  C   UNL     1      40.921 -15.135   3.834  1.00  0.00     0.112 A 
HETATM    3  C   UNL     1      40.186 -15.291   2.660  1.00  0.00     0.041 A 
HETATM    4  C   UNL     1      39.388 -14.243   2.210  1.00  0.00     0.014 A 
HETATM    5  C   UNL     1      39.294 -13.040   2.938  1.00  0.00    -0.013 A 
HETATM    6  C   UNL     1      40.020 -12.929   4.144  1.00  0.00     0.050 A 
ENDROOT
BRANCH   5   7
HETATM    7  C   UNL     1      38.405 -11.931   2.389  1.00  0.00     0.219 C 
HETATM    8  N   UNL     1      38.904 -10.629   2.753  1.00  0.00    -0.332 N 
HETATM    9  C   UNL     1      39.753  -9.889   1.979  1.00  0.00     0.256 C 
HETATM   10  H   UNL     1      38.922 -10.387   3.732  1.00  0.00     0.165 HD
HETATM   11  O   UNL     1      40.385  -8.941   2.433  1.00  0.00    -0.267 OA
HETATM   12  C   UNL     1      39.812 -10.274   0.581  1.00  0.00     0.073 A 
HETATM   13  C   UNL     1      39.014 -11.302   0.139  1.00  0.00     0.088 A 
HETATM   14  C   UNL     1      40.591  -9.710  -0.477  1.00  0.00    -0.023 A 
HETATM   15  S   UNL     1      39.178 -11.586  -1.530  1.00  0.00    -0.074 SA
HETATM   16  N   UNL     1      38.198 -12.001   0.954  1.00  0.00    -0.358 N 
HETATM   17  C   UNL     1      40.326 -10.337  -1.681  1.00  0.00     0.018 A 
HETATM   18  C   UNL     1      40.965  -9.996  -2.982  1.00  0.00     0.281 C 
HETATM   19  N   UNL     1      41.649  -8.633  -2.924  1.00  0.00    -0.070 N 
HETATM   20  C   UNL     1      42.444  -8.461  -1.630  1.00  0.00     0.239 C 
HETATM   21  H   UNL     1      42.332  -8.626  -3.690  1.00  0.00     0.279 HD
HETATM   22  C   UNL     1      40.702  -7.499  -3.195  1.00  0.00     0.270 C 
HETATM   23  C   UNL     1      41.555  -8.565  -0.379  1.00  0.00     0.068 C 
HETATM   24  H   UNL     1      37.746 -12.852   0.628  1.00  0.00     0.162 HD
ENDBRANCH   5   7
BRANCH   1  25
HETATM   25  O   UNL     1      41.566 -13.942   5.758  1.00  0.00    -0.349 OA
BRANCH  25  26
HETATM   26  C   UNL     1      42.720 -13.104   5.772  1.00  0.00     0.171 C 
HETATM   27  C   UNL     1      43.760 -13.749   6.670  1.00  0.00     0.034 C 
ENDBRANCH  25  26
ENDBRANCH   1  25
BRANCH   2  28
HETATM   28  O   UNL     1      41.731 -16.194   4.249  1.00  0.00    -0.272 OA
BRANCH  28  29
HETATM   29  C   UNL     1      42.832 -16.329   3.429  1.00  0.00     0.300 C 
HETATM   30  O   UNL     1      43.457 -15.448   2.856  1.00  0.00    -0.259 OA
BRANCH  29  31
HETATM   31  C   UNL     1      43.247 -17.746   3.390  1.00  0.00     0.061 A 
HETATM   32  C   UNL     1      43.836 -18.409   4.473  1.00  0.00     0.050 A 
HETATM   33 CL   UNL     1      44.123 -17.660   6.003  1.00  0.00    -0.083 Cl
HETATM   34  C   UNL     1      44.162 -19.766   4.357  1.00  0.00     0.025 A 
HETATM   35  C   UNL     1      43.888 -20.461   3.177  1.00  0.00     0.002 A 
HETATM   36  C   UNL     1      43.279 -19.807   2.108  1.00  0.00     0.001 A 
HETATM   37  C   UNL     1      42.956 -18.454   2.213  1.00  0.00     0.019 A 
ENDBRANCH  29  31
ENDBRANCH  28  29
ENDBRANCH   2  28
TORSDOF 6
ENDMDL
MODEL 3
REMARK VINA RESULT:      -8.8      2.012      2.797
REMARK  6 active torsions:
REMARK  status: ('A' for Active; 'I' for Inactive)
REMARK    1  A    between atoms: C_2  and  O_3 
REMARK    2  A    between atoms: O_3  and  C_4 
REMARK    3  A    between atoms: C_5  and  O_6 
REMARK    4  A    between atoms: O_6  and  C_7 
REMARK    5  A    between atoms: C_7  and  C_8 
REMARK    6  A    between atoms: C_18  and  C_19 
ROOT
HETATM    1  C   UNL     1      42.537 -11.098   6.206  1.00  0.00     0.103 A 
HETATM    2  C   UNL     1      43.184 -12.255   5.764  1.00  0.00     0.112 A 
HETATM    3  C   UNL     1      44.446 -12.610   6.236  1.00  0.00     0.041 A 
HETATM    4  C   UNL     1      45.060 -11.820   7.205  1.00  0.00     0.014 A 
HETATM    5  C   UNL     1      44.434 -10.655   7.692  1.00  0.00    -0.013 A 
HETATM    6  C   UNL     1      43.174 -10.302   7.163  1.00  0.00     0.050 A 
ENDROOT
BRANCH   5   7
HETATM    7  C   UNL     1      45.158  -9.837   8.754  1.00  0.00     0.219 C 
HETATM    8  N   UNL     1      44.968  -8.422   8.547  1.00  0.00    -0.332 N 
HETATM    9  C   UNL     1      43.970  -7.690   9.124  1.00  0.00     0.256 C 
HETATM   10  H   UNL     1      45.346  -8.014   7.705  1.00  0.00     0.165 HD
HETATM   11  O   UNL     1      43.657  -6.580   8.709  1.00  0.00    -0.267 OA
HETATM   12  C   UNL     1      43.349  -8.297  10.287  1.00  0.00     0.073 A 
HETATM   13  C   UNL     1      43.813  -9.512  10.732  1.00  0.00     0.088 A 
HETATM   14  C   UNL     1      42.290  -7.797  11.108  1.00  0.00    -0.023 A 
HETATM   15  S   UNL     1      43.002 -10.049  12.128  1.00  0.00    -0.074 SA
HETATM   16  N   UNL     1      44.800 -10.192  10.115  1.00  0.00    -0.358 N 
HETATM   17  C   UNL     1      42.017  -8.662  12.152  1.00  0.00     0.018 A 
HETATM   18  C   UNL     1      40.972  -8.444  13.191  1.00  0.00     0.281 C 
HETATM   19  N   UNL     1      40.503  -6.992  13.211  1.00  0.00    -0.070 N 
HETATM   20  C   UNL     1      40.277  -6.458  11.798  1.00  0.00     0.239 C 
HETATM   21  H   UNL     1      39.586  -6.998  13.673  1.00  0.00     0.279 HD
HETATM   22  C   UNL     1      41.388  -6.111  14.046  1.00  0.00     0.270 C 
HETATM   23  C   UNL     1      41.556  -6.498  10.945  1.00  0.00     0.068 C 
HETATM   24  H   UNL     1      45.006 -11.153  10.373  1.00  0.00     0.162 HD
ENDBRANCH   5   7
BRANCH   1  25
HETATM   25  O   UNL     1      41.324 -10.819   5.635  1.00  0.00    -0.349 OA
BRANCH  25  26
HETATM   26  C   UNL     1      40.202 -10.772   6.515  1.00  0.00     0.171 C 
HETATM   27  C   UNL     1      39.170 -11.766   6.014  1.00  0.00     0.034 C 
ENDBRANCH  25  26
ENDBRANCH   1  25
BRANCH   2  28
HETATM   28  O   UNL     1      42.583 -13.079   4.810  1.00  0.00    -0.272 OA
BRANCH  28  29
HETATM   29  C   UNL     1      42.107 -14.239   5.384  1.00  0.00     0.300 C 
HETATM   30  O   UNL     1      41.457 -14.358   6.414  1.00  0.00    -0.259 OA
BRANCH  29  31
HETATM   31  C   UNL     1      42.420 -15.386   4.510  1.00  0.00     0.061 A 
HETATM   32  C   UNL     1      43.434 -16.313   4.782  1.00  0.00     0.050 A 
HETATM   33 CL   UNL     1      44.426 -16.246   6.195  1.00  0.00    -0.083 Cl
HETATM   34  C   UNL     1      43.634 -17.393   3.914  1.00  0.00     0.025 A 
HETATM   35  C   UNL     1      42.820 -17.559   2.791  1.00  0.00     0.002 A 
HETATM   36  C   UNL     1      41.795 -16.650   2.532  1.00  0.00     0.001 A 
HETATM   37  C   UNL     1      41.592 -15.568   3.390  1.00  0.00     0.019 A 
ENDBRANCH  29  31
ENDBRANCH  28  29
ENDBRANCH   2  28
TORSDOF 6
ENDMDL
MODEL 4
REMARK VINA RESULT:      -8.7      1.334      2.036
REMARK  6 active torsions:
REMARK  status: ('A' for Active; 'I' for Inactive)
REMARK    1  A    between atoms: C_2  and  O_3 
REMARK    2  A    between atoms: O_3  and  C_4 
REMARK    3  A    between atoms: C_5  and  O_6 
REMARK    4  A    between atoms: O_6  and  C_7 
REMARK    5  A    between atoms: C_7  and  C_8 
REMARK    6  A    between atoms: C_18  and  C_19 
ROOT
HETATM    1  C   UNL     1      41.958 -12.681   4.878  1.00  0.00     0.103 A 
HETATM    2  C   UNL     1      40.757 -13.352   5.125  1.00  0.00     0.112 A 
HETATM    3  C   UNL     1      39.736 -12.770   5.875  1.00  0.00     0.041 A 
HETATM    4  C   UNL     1      39.895 -11.473   6.353  1.00  0.00     0.014 A 
HETATM    5  C   UNL     1      41.083 -10.752   6.112  1.00  0.00    -0.013 A 
HETATM    6  C   UNL     1      42.113 -11.385   5.383  1.00  0.00     0.050 A 
ENDROOT
BRANCH   5   7
HETATM    7  C   UNL     1      41.192  -9.335   6.661  1.00  0.00     0.219 C 
HETATM    8  N   UNL     1      39.962  -8.917   7.285  1.00  0.00    -0.332 N 
HETATM    9  C   UNL     1      39.688  -9.065   8.615  1.00  0.00     0.256 C 
HETATM   10  H   UNL     1      39.143  -8.829   6.702  1.00  0.00     0.165 HD
HETATM   11  O   UNL     1      38.547  -8.977   9.056  1.00  0.00    -0.267 OA
HETATM   12  C   UNL     1      40.843  -9.280   9.466  1.00  0.00     0.073 A 
HETATM   13  C   UNL     1      42.096  -9.289   8.899  1.00  0.00     0.088 A 
HETATM   14  C   UNL     1      40.897  -9.470  10.882  1.00  0.00    -0.023 A 
HETATM   15  S   UNL     1      43.331  -9.508  10.047  1.00  0.00    -0.074 SA
HETATM   16  N   UNL     1      42.304  -9.143   7.574  1.00  0.00    -0.358 N 
HETATM   17  C   UNL     1      42.203  -9.597  11.319  1.00  0.00     0.018 A 
HETATM   18  C   UNL     1      42.614  -9.807  12.735  1.00  0.00     0.281 C 
HETATM   19  N   UNL     1      41.477  -9.477  13.698  1.00  0.00    -0.070 N 
HETATM   20  C   UNL     1      40.148 -10.051  13.211  1.00  0.00     0.239 C 
HETATM   21  H   UNL     1      41.701  -9.960  14.576  1.00  0.00     0.279 HD
HETATM   22  C   UNL     1      41.407  -8.014  14.030  1.00  0.00     0.270 C 
HETATM   23  C   UNL     1      39.739  -9.496  11.836  1.00  0.00     0.068 C 
HETATM   24  H   UNL     1      43.221  -9.315   7.173  1.00  0.00     0.162 HD
ENDBRANCH   5   7
BRANCH   1  25
HETATM   25  O   UNL     1      42.911 -13.368   4.175  1.00  0.00    -0.349 OA
BRANCH  25  26
HETATM   26  C   UNL     1      42.978 -13.109   2.774  1.00  0.00     0.171 C 
HETATM   27  C   UNL     1      43.380 -14.397   2.078  1.00  0.00     0.034 C 
ENDBRANCH  25  26
ENDBRANCH   1  25
BRANCH   2  28
HETATM   28  O   UNL     1      40.560 -14.646   4.638  1.00  0.00    -0.272 OA
BRANCH  28  29
HETATM   29  C   UNL     1      40.760 -15.585   5.628  1.00  0.00     0.300 C 
HETATM   30  O   UNL     1      39.974 -15.948   6.491  1.00  0.00    -0.259 OA
BRANCH  29  31
HETATM   31  C   UNL     1      42.091 -16.202   5.460  1.00  0.00     0.061 A 
HETATM   32  C   UNL     1      43.124 -16.079   6.397  1.00  0.00     0.050 A 
HETATM   33 CL   UNL     1      42.960 -15.214   7.883  1.00  0.00    -0.083 Cl
HETATM   34  C   UNL     1      44.342 -16.731   6.171  1.00  0.00     0.025 A 
HETATM   35  C   UNL     1      44.524 -17.515   5.029  1.00  0.00     0.002 A 
HETATM   36  C   UNL     1      43.488 -17.657   4.108  1.00  0.00     0.001 A 
HETATM   37  C   UNL     1      42.273 -17.006   4.323  1.00  0.00     0.019 A 
ENDBRANCH  29  31
ENDBRANCH  28  29
ENDBRANCH   2  28
TORSDOF 6
ENDMDL
MODEL 5
REMARK VINA RESULT:      -8.7      1.674      2.837
REMARK  6 active torsions:
REMARK  status: ('A' for Active; 'I' for Inactive)
REMARK    1  A    between atoms: C_2  and  O_3 
REMARK    2  A    between atoms: O_3  and  C_4 
REMARK    3  A    between atoms: C_5  and  O_6 
REMARK    4  A    between atoms: O_6  and  C_7 
REMARK    5  A    between atoms: C_7  and  C_8 
REMARK    6  A    between atoms: C_18  and  C_19 
ROOT
HETATM    1  C   UNL     1      43.122 -12.383   6.110  1.00  0.00     0.103 A 
HETATM    2  C   UNL     1      42.496 -13.350   5.319  1.00  0.00     0.112 A 
HETATM    3  C   UNL     1      41.151 -13.249   4.970  1.00  0.00     0.041 A 
HETATM    4  C   UNL     1      40.421 -12.137   5.380  1.00  0.00     0.014 A 
HETATM    5  C   UNL     1      41.017 -11.128   6.163  1.00  0.00    -0.013 A 
HETATM    6  C   UNL     1      42.371 -11.280   6.533  1.00  0.00     0.050 A 
ENDROOT
BRANCH   5   7
HETATM    7  C   UNL     1      40.164  -9.935   6.576  1.00  0.00     0.219 C 
HETATM    8  N   UNL     1      39.065 -10.341   7.416  1.00  0.00    -0.332 N 
HETATM    9  C   UNL     1      39.113 -10.368   8.781  1.00  0.00     0.256 C 
HETATM   10  H   UNL     1      38.362 -10.943   7.015  1.00  0.00     0.165 HD
HETATM   11  O   UNL     1      38.288 -10.985   9.446  1.00  0.00    -0.267 OA
HETATM   12  C   UNL     1      40.171  -9.577   9.380  1.00  0.00     0.073 A 
HETATM   13  C   UNL     1      41.006  -8.853   8.563  1.00  0.00     0.088 A 
HETATM   14  C   UNL     1      40.489  -9.396  10.763  1.00  0.00    -0.023 A 
HETATM   15  S   UNL     1      42.155  -7.952   9.436  1.00  0.00    -0.074 SA
HETATM   16  N   UNL     1      40.914  -8.870   7.217  1.00  0.00    -0.358 N 
HETATM   17  C   UNL     1      41.550  -8.523  10.921  1.00  0.00     0.018 A 
HETATM   18  C   UNL     1      42.135  -8.116  12.229  1.00  0.00     0.281 C 
HETATM   19  N   UNL     1      41.199  -8.456  13.385  1.00  0.00    -0.070 N 
HETATM   20  C   UNL     1      40.606  -9.856  13.232  1.00  0.00     0.239 C 
HETATM   21  H   UNL     1      41.786  -8.477  14.227  1.00  0.00     0.279 HD
HETATM   22  C   UNL     1      40.164  -7.393  13.621  1.00  0.00     0.270 C 
HETATM   23  C   UNL     1      39.785 -10.006  11.940  1.00  0.00     0.068 C 
HETATM   24  H   UNL     1      41.643  -8.455   6.644  1.00  0.00     0.162 HD
ENDBRANCH   5   7
BRANCH   1  25
HETATM   25  O   UNL     1      44.432 -12.610   6.436  1.00  0.00    -0.349 OA
BRANCH  25  26
HETATM   26  C   UNL     1      45.342 -11.538   6.199  1.00  0.00     0.171 C 
HETATM   27  C   UNL     1      45.826 -11.026   7.543  1.00  0.00     0.034 C 
ENDBRANCH  25  26
ENDBRANCH   1  25
BRANCH   2  28
HETATM   28  O   UNL     1      43.210 -14.466   4.875  1.00  0.00    -0.272 OA
BRANCH  28  29
HETATM   29  C   UNL     1      42.672 -15.632   5.377  1.00  0.00     0.300 C 
HETATM   30  O   UNL     1      41.963 -15.771   6.364  1.00  0.00    -0.259 OA
BRANCH  29  31
HETATM   31  C   UNL     1      43.004 -16.755   4.478  1.00  0.00     0.061 A 
HETATM   32  C   UNL     1      42.352 -16.991   3.261  1.00  0.00     0.050 A 
HETATM   33 CL   UNL     1      41.097 -15.976   2.645  1.00  0.00    -0.083 Cl
HETATM   34  C   UNL     1      42.760 -18.060   2.455  1.00  0.00     0.025 A 
HETATM   35  C   UNL     1      43.822 -18.878   2.848  1.00  0.00     0.002 A 
HETATM   36  C   UNL     1      44.486 -18.630   4.048  1.00  0.00     0.001 A 
HETATM   37  C   UNL     1      44.082 -17.570   4.860  1.00  0.00     0.019 A 
ENDBRANCH  29  31
ENDBRANCH  28  29
ENDBRANCH   2  28
TORSDOF 6
ENDMDL
MODEL 6
REMARK VINA RESULT:      -8.6      4.974      8.254
REMARK  6 active torsions:
REMARK  status: ('A' for Active; 'I' for Inactive)
REMARK    1  A    between atoms: C_2  and  O_3 
REMARK    2  A    between atoms: O_3  and  C_4 
REMARK    3  A    between atoms: C_5  and  O_6 
REMARK    4  A    between atoms: O_6  and  C_7 
REMARK    5  A    between atoms: C_7  and  C_8 
REMARK    6  A    between atoms: C_18  and  C_19 
ROOT
HETATM    1  C   UNL     1      42.305 -12.812   5.335  1.00  0.00     0.103 A 
HETATM    2  C   UNL     1      41.272 -13.620   5.820  1.00  0.00     0.112 A 
HETATM    3  C   UNL     1      39.933 -13.269   5.658  1.00  0.00     0.041 A 
HETATM    4  C   UNL     1      39.612 -12.109   4.958  1.00  0.00     0.014 A 
HETATM    5  C   UNL     1      40.621 -11.275   4.435  1.00  0.00    -0.013 A 
HETATM    6  C   UNL     1      41.968 -11.639   4.651  1.00  0.00     0.050 A 
ENDROOT
BRANCH   5   7
HETATM    7  C   UNL     1      40.202 -10.023   3.676  1.00  0.00     0.219 C 
HETATM    8  N   UNL     1      41.196  -9.639   2.706  1.00  0.00    -0.332 N 
HETATM    9  C   UNL     1      41.189 -10.041   1.400  1.00  0.00     0.256 C 
HETATM   10  H   UNL     1      42.103  -9.357   3.046  1.00  0.00     0.165 HD
HETATM   11  O   UNL     1      42.183  -9.948   0.688  1.00  0.00    -0.267 OA
HETATM   12  C   UNL     1      39.916 -10.535   0.910  1.00  0.00     0.073 A 
HETATM   13  C   UNL     1      38.832 -10.534   1.755  1.00  0.00     0.088 A 
HETATM   14  C   UNL     1      39.579 -11.025  -0.390  1.00  0.00    -0.023 A 
HETATM   15  S   UNL     1      37.416 -11.101   1.001  1.00  0.00    -0.074 SA
HETATM   16  N   UNL     1      38.901 -10.130   3.040  1.00  0.00    -0.358 N 
HETATM   17  C   UNL     1      38.239 -11.358  -0.466  1.00  0.00     0.018 A 
HETATM   18  C   UNL     1      37.560 -11.899  -1.676  1.00  0.00     0.281 C 
HETATM   19  N   UNL     1      38.403 -11.682  -2.930  1.00  0.00    -0.070 N 
HETATM   20  C   UNL     1      39.872 -12.019  -2.682  1.00  0.00     0.239 C 
HETATM   21  H   UNL     1      38.060 -12.359  -3.622  1.00  0.00     0.279 HD
HETATM   22  C   UNL     1      38.198 -10.322  -3.534  1.00  0.00     0.270 C 
HETATM   23  C   UNL     1      40.493 -11.150  -1.574  1.00  0.00     0.068 C 
HETATM   24  H   UNL     1      38.126 -10.293   3.676  1.00  0.00     0.162 HD
ENDBRANCH   5   7
BRANCH   1  25
HETATM   25  O   UNL     1      43.583 -13.228   5.597  1.00  0.00    -0.349 OA
BRANCH  25  26
HETATM   26  C   UNL     1      44.193 -12.705   6.775  1.00  0.00     0.171 C 
HETATM   27  C   UNL     1      45.206 -11.655   6.354  1.00  0.00     0.034 C 
ENDBRANCH  25  26
ENDBRANCH   1  25
BRANCH   2  28
HETATM   28  O   UNL     1      41.565 -14.800   6.507  1.00  0.00    -0.272 OA
BRANCH  28  29
HETATM   29  C   UNL     1      40.914 -15.878   5.943  1.00  0.00     0.300 C 
HETATM   30  O   UNL     1      39.791 -16.292   6.188  1.00  0.00    -0.259 OA
BRANCH  29  31
HETATM   31  C   UNL     1      41.756 -16.458   4.878  1.00  0.00     0.061 A 
HETATM   32  C   UNL     1      41.437 -16.391   3.516  1.00  0.00     0.050 A 
HETATM   33 CL   UNL     1      40.032 -15.589   2.909  1.00  0.00    -0.083 Cl
HETATM   34  C   UNL     1      42.316 -16.937   2.573  1.00  0.00     0.025 A 
HETATM   35  C   UNL     1      43.512 -17.533   2.981  1.00  0.00     0.002 A 
HETATM   36  C   UNL     1      43.841 -17.579   4.335  1.00  0.00     0.001 A 
HETATM   37  C   UNL     1      42.968 -17.041   5.281  1.00  0.00     0.019 A 
ENDBRANCH  29  31
ENDBRANCH  28  29
ENDBRANCH   2  28
TORSDOF 6
ENDMDL
MODEL 7
REMARK VINA RESULT:      -8.5      5.604      7.811
REMARK  6 active torsions:
REMARK  status: ('A' for Active; 'I' for Inactive)
REMARK    1  A    between atoms: C_2  and  O_3 
REMARK    2  A    between atoms: O_3  and  C_4 
REMARK    3  A    between atoms: C_5  and  O_6 
REMARK    4  A    between atoms: O_6  and  C_7 
REMARK    5  A    between atoms: C_7  and  C_8 
REMARK    6  A    between atoms: C_18  and  C_19 
ROOT
HETATM    1  C   UNL     1      40.189 -14.133   2.997  1.00  0.00     0.103 A 
HETATM    2  C   UNL     1      40.778 -15.315   2.539  1.00  0.00     0.112 A 
HETATM    3  C   UNL     1      40.729 -15.681   1.195  1.00  0.00     0.041 A 
HETATM    4  C   UNL     1      40.120 -14.829   0.277  1.00  0.00     0.014 A 
HETATM    5  C   UNL     1      39.531 -13.619   0.694  1.00  0.00    -0.013 A 
HETATM    6  C   UNL     1      39.561 -13.297   2.068  1.00  0.00     0.050 A 
ENDROOT
BRANCH   5   7
HETATM    7  C   UNL     1      38.883 -12.730  -0.361  1.00  0.00     0.219 C 
HETATM    8  N   UNL     1      37.953 -11.802   0.232  1.00  0.00    -0.332 N 
HETATM    9  C   UNL     1      38.282 -10.537   0.630  1.00  0.00     0.256 C 
HETATM   10  H   UNL     1      37.136 -12.179   0.687  1.00  0.00     0.165 HD
HETATM   11  O   UNL     1      37.566  -9.889   1.387  1.00  0.00    -0.267 OA
HETATM   12  C   UNL     1      39.503 -10.004   0.057  1.00  0.00     0.073 A 
HETATM   13  C   UNL     1      40.206 -10.769  -0.843  1.00  0.00     0.088 A 
HETATM   14  C   UNL     1      40.116  -8.729   0.266  1.00  0.00    -0.023 A 
HETATM   15  S   UNL     1      41.581  -9.970  -1.446  1.00  0.00    -0.074 SA
HETATM   16  N   UNL     1      39.835 -12.018  -1.194  1.00  0.00    -0.358 N 
HETATM   17  C   UNL     1      41.254  -8.589  -0.507  1.00  0.00     0.018 A 
HETATM   18  C   UNL     1      42.130  -7.385  -0.529  1.00  0.00     0.281 C 
HETATM   19  N   UNL     1      41.431  -6.179   0.091  1.00  0.00    -0.070 N 
HETATM   20  C   UNL     1      40.706  -6.554   1.383  1.00  0.00     0.239 C 
HETATM   21  H   UNL     1      42.177  -5.524   0.354  1.00  0.00     0.279 HD
HETATM   22  C   UNL     1      40.559  -5.450  -0.891  1.00  0.00     0.270 C 
HETATM   23  C   UNL     1      39.625  -7.625   1.157  1.00  0.00     0.068 C 
HETATM   24  H   UNL     1      40.460 -12.611  -1.733  1.00  0.00     0.162 HD
ENDBRANCH   5   7
BRANCH   1  25
HETATM   25  O   UNL     1      40.251 -13.900   4.345  1.00  0.00    -0.349 OA
BRANCH  25  26
HETATM   26  C   UNL     1      41.001 -12.760   4.760  1.00  0.00     0.171 C 
HETATM   27  C   UNL     1      42.267 -13.252   5.439  1.00  0.00     0.034 C 
ENDBRANCH  25  26
ENDBRANCH   1  25
BRANCH   2  28
HETATM   28  O   UNL     1      41.416 -16.178   3.433  1.00  0.00    -0.272 OA
BRANCH  28  29
HETATM   29  C   UNL     1      42.767 -16.256   3.170  1.00  0.00     0.300 C 
HETATM   30  O   UNL     1      43.548 -15.339   2.959  1.00  0.00    -0.259 OA
BRANCH  29  31
HETATM   31  C   UNL     1      43.206 -17.663   3.262  1.00  0.00     0.061 A 
HETATM   32  C   UNL     1      43.876 -18.193   4.372  1.00  0.00     0.050 A 
HETATM   33 CL   UNL     1      44.243 -17.273   5.787  1.00  0.00    -0.083 Cl
HETATM   34  C   UNL     1      44.220 -19.550   4.387  1.00  0.00     0.025 A 
HETATM   35  C   UNL     1      43.887 -20.377   3.312  1.00  0.00     0.002 A 
HETATM   36  C   UNL     1      43.200 -19.855   2.217  1.00  0.00     0.001 A 
HETATM   37  C   UNL     1      42.857 -18.503   2.192  1.00  0.00     0.019 A 
ENDBRANCH  29  31
ENDBRANCH  28  29
ENDBRANCH   2  28
TORSDOF 6
ENDMDL
MODEL 8
REMARK VINA RESULT:      -8.5      3.569      8.834
REMARK  6 active torsions:
REMARK  status: ('A' for Active; 'I' for Inactive)
REMARK    1  A    between atoms: C_2  and  O_3 
REMARK    2  A    between atoms: O_3  and  C_4 
REMARK    3  A    between atoms: C_5  and  O_6 
REMARK    4  A    between atoms: O_6  and  C_7 
REMARK    5  A    between atoms: C_7  and  C_8 
REMARK    6  A    between atoms: C_18  and  C_19 
ROOT
HETATM    1  C   UNL     1      42.392 -10.468   6.003  1.00  0.00     0.103 A 
HETATM    2  C   UNL     1      41.693  -9.412   6.596  1.00  0.00     0.112 A 
HETATM    3  C   UNL     1      40.325  -9.492   6.846  1.00  0.00     0.041 A 
HETATM    4  C   UNL     1      39.642 -10.666   6.541  1.00  0.00     0.014 A 
HETATM    5  C   UNL     1      40.311 -11.763   5.960  1.00  0.00    -0.013 A 
HETATM    6  C   UNL     1      41.690 -11.635   5.682  1.00  0.00     0.050 A 
ENDROOT
BRANCH   5   7
HETATM    7  C   UNL     1      39.507 -13.020   5.654  1.00  0.00     0.219 C 
HETATM    8  N   UNL     1      39.275 -13.163   4.238  1.00  0.00    -0.332 N 
HETATM    9  C   UNL     1      40.087 -13.868   3.396  1.00  0.00     0.256 C 
HETATM   10  H   UNL     1      38.711 -12.464   3.779  1.00  0.00     0.165 HD
HETATM   11  O   UNL     1      40.035 -13.730   2.178  1.00  0.00    -0.267 OA
HETATM   12  C   UNL     1      40.973 -14.820   4.040  1.00  0.00     0.073 A 
HETATM   13  C   UNL     1      40.914 -14.966   5.405  1.00  0.00     0.088 A 
HETATM   14  C   UNL     1      41.933 -15.700   3.449  1.00  0.00    -0.023 A 
HETATM   15  S   UNL     1      41.985 -16.155   5.982  1.00  0.00    -0.074 SA
HETATM   16  N   UNL     1      40.093 -14.236   6.188  1.00  0.00    -0.358 N 
HETATM   17  C   UNL     1      42.545 -16.486   4.409  1.00  0.00     0.018 A 
HETATM   18  C   UNL     1      43.594 -17.507   4.135  1.00  0.00     0.281 C 
HETATM   19  N   UNL     1      43.642 -17.870   2.654  1.00  0.00    -0.070 N 
HETATM   20  C   UNL     1      43.559 -16.626   1.770  1.00  0.00     0.239 C 
HETATM   21  H   UNL     1      44.569 -18.282   2.493  1.00  0.00     0.279 HD
HETATM   22  C   UNL     1      42.643 -18.929   2.286  1.00  0.00     0.270 C 
HETATM   23  C   UNL     1      42.257 -15.837   1.991  1.00  0.00     0.068 C 
HETATM   24  H   UNL     1      40.190 -14.255   7.199  1.00  0.00     0.162 HD
ENDBRANCH   5   7
BRANCH   1  25
HETATM   25  O   UNL     1      43.722 -10.260   5.756  1.00  0.00    -0.349 OA
BRANCH  25  26
HETATM   26  C   UNL     1      44.528 -11.425   5.588  1.00  0.00     0.171 C 
HETATM   27  C   UNL     1      45.024 -11.855   6.956  1.00  0.00     0.034 C 
ENDBRANCH  25  26
ENDBRANCH   1  25
BRANCH   2  28
HETATM   28  O   UNL     1      42.356  -8.230   6.933  1.00  0.00    -0.272 OA
BRANCH  28  29
HETATM   29  C   UNL     1      42.196  -7.934   8.270  1.00  0.00     0.300 C 
HETATM   30  O   UNL     1      41.311  -7.272   8.795  1.00  0.00    -0.259 OA
BRANCH  29  31
HETATM   31  C   UNL     1      43.236  -8.627   9.056  1.00  0.00     0.061 A 
HETATM   32  C   UNL     1      42.958  -9.440  10.162  1.00  0.00     0.050 A 
HETATM   33 CL   UNL     1      41.357  -9.759  10.726  1.00  0.00    -0.083 Cl
HETATM   34  C   UNL     1      44.008 -10.088  10.824  1.00  0.00     0.025 A 
HETATM   35  C   UNL     1      45.323  -9.942  10.378  1.00  0.00     0.002 A 
HETATM   36  C   UNL     1      45.598  -9.152   9.263  1.00  0.00     0.001 A 
HETATM   37  C   UNL     1      44.559  -8.499   8.601  1.00  0.00     0.019 A 
ENDBRANCH  29  31
ENDBRANCH  28  29
ENDBRANCH   2  28
TORSDOF 6
ENDMDL
MODEL 9
REMARK VINA RESULT:      -8.3      2.469      3.430
REMARK  6 active torsions:
REMARK  status: ('A' for Active; 'I' for Inactive)
REMARK    1  A    between atoms: C_2  and  O_3 
REMARK    2  A    between atoms: O_3  and  C_4 
REMARK    3  A    between atoms: C_5  and  O_6 
REMARK    4  A    between atoms: O_6  and  C_7 
REMARK    5  A    between atoms: C_7  and  C_8 
REMARK    6  A    between atoms: C_18  and  C_19 
ROOT
HETATM    1  C   UNL     1      43.424 -13.144   6.514  1.00  0.00     0.103 A 
HETATM    2  C   UNL     1      42.631 -12.366   5.665  1.00  0.00     0.112 A 
HETATM    3  C   UNL     1      42.604 -10.976   5.764  1.00  0.00     0.041 A 
HETATM    4  C   UNL     1      43.418 -10.342   6.699  1.00  0.00     0.014 A 
HETATM    5  C   UNL     1      44.247 -11.087   7.562  1.00  0.00    -0.013 A 
HETATM    6  C   UNL     1      44.221 -12.495   7.463  1.00  0.00     0.050 A 
ENDROOT
BRANCH   5   7
HETATM    7  C   UNL     1      45.115 -10.332   8.560  1.00  0.00     0.219 C 
HETATM    8  N   UNL     1      45.077  -8.911   8.320  1.00  0.00    -0.332 N 
HETATM    9  C   UNL     1      44.201  -8.055   8.926  1.00  0.00     0.256 C 
HETATM   10  H   UNL     1      45.452  -8.569   7.449  1.00  0.00     0.165 HD
HETATM   11  O   UNL     1      43.994  -6.926   8.494  1.00  0.00    -0.267 OA
HETATM   12  C   UNL     1      43.579  -8.557  10.136  1.00  0.00     0.073 A 
HETATM   13  C   UNL     1      43.925  -9.807  10.594  1.00  0.00     0.088 A 
HETATM   14  C   UNL     1      42.630  -7.919  10.995  1.00  0.00    -0.023 A 
HETATM   15  S   UNL     1      43.136 -10.213  12.045  1.00  0.00    -0.074 SA
HETATM   16  N   UNL     1      44.794 -10.611   9.948  1.00  0.00    -0.358 N 
HETATM   17  C   UNL     1      42.317  -8.721  12.077  1.00  0.00     0.018 A 
HETATM   18  C   UNL     1      41.362  -8.360  13.161  1.00  0.00     0.281 C 
HETATM   19  N   UNL     1      41.063  -6.864  13.161  1.00  0.00    -0.070 N 
HETATM   20  C   UNL     1      40.822  -6.341  11.746  1.00  0.00     0.239 C 
HETATM   21  H   UNL     1      40.177  -6.752  13.669  1.00  0.00     0.279 HD
HETATM   22  C   UNL     1      42.086  -6.071  13.923  1.00  0.00     0.270 C 
HETATM   23  C   UNL     1      42.041  -6.548  10.830  1.00  0.00     0.068 C 
HETATM   24  H   UNL     1      44.903 -11.583  10.224  1.00  0.00     0.162 HD
ENDBRANCH   5   7
BRANCH   1  25
HETATM   25  O   UNL     1      43.333 -14.502   6.363  1.00  0.00    -0.349 OA
BRANCH  25  26
HETATM   26  C   UNL     1      42.927 -15.244   7.512  1.00  0.00     0.171 C 
HETATM   27  C   UNL     1      42.979 -16.720   7.160  1.00  0.00     0.034 C 
ENDBRANCH  25  26
ENDBRANCH   1  25
BRANCH   2  28
HETATM   28  O   UNL     1      41.822 -12.973   4.703  1.00  0.00    -0.272 OA
BRANCH  28  29
HETATM   29  C   UNL     1      42.529 -13.226   3.547  1.00  0.00     0.300 C 
HETATM   30  O   UNL     1      43.317 -12.490   2.969  1.00  0.00    -0.259 OA
BRANCH  29  31
HETATM   31  C   UNL     1      42.273 -14.611   3.105  1.00  0.00     0.061 A 
HETATM   32  C   UNL     1      41.069 -15.027   2.522  1.00  0.00     0.050 A 
HETATM   33 CL   UNL     1      39.744 -13.961   2.217  1.00  0.00    -0.083 Cl
HETATM   34  C   UNL     1      40.929 -16.354   2.098  1.00  0.00     0.025 A 
HETATM   35  C   UNL     1      41.986 -17.257   2.238  1.00  0.00     0.002 A 
HETATM   36  C   UNL     1      43.192 -16.838   2.797  1.00  0.00     0.001 A 
HETATM   37  C   UNL     1      43.338 -15.518   3.226  1.00  0.00     0.019 A 
ENDBRANCH  29  31
ENDBRANCH  28  29
ENDBRANCH   2  28
TORSDOF 6
ENDMDL
MODEL 10
REMARK VINA RESULT:      -8.2      3.598      9.458
REMARK  6 active torsions:
REMARK  status: ('A' for Active; 'I' for Inactive)
REMARK    1  A    between atoms: C_2  and  O_3 
REMARK    2  A    between atoms: O_3  and  C_4 
REMARK    3  A    between atoms: C_5  and  O_6 
REMARK    4  A    between atoms: O_6  and  C_7 
REMARK    5  A    between atoms: C_7  and  C_8 
REMARK    6  A    between atoms: C_18  and  C_19 
ROOT
HETATM    1  C   UNL     1      42.949  -9.297   8.398  1.00  0.00     0.103 A 
HETATM    2  C   UNL     1      42.387  -8.899   9.615  1.00  0.00     0.112 A 
HETATM    3  C   UNL     1      41.007  -8.858   9.803  1.00  0.00     0.041 A 
HETATM    4  C   UNL     1      40.165  -9.265   8.771  1.00  0.00     0.014 A 
HETATM    5  C   UNL     1      40.689  -9.692   7.534  1.00  0.00    -0.013 A 
HETATM    6  C   UNL     1      42.091  -9.684   7.363  1.00  0.00     0.050 A 
ENDROOT
BRANCH   5   7
HETATM    7  C   UNL     1      39.714 -10.128   6.448  1.00  0.00     0.219 C 
HETATM    8  N   UNL     1      40.142  -9.679   5.147  1.00  0.00    -0.332 N 
HETATM    9  C   UNL     1      40.915 -10.418   4.297  1.00  0.00     0.256 C 
HETATM   10  H   UNL     1      40.178  -8.685   4.978  1.00  0.00     0.165 HD
HETATM   11  O   UNL     1      41.500  -9.911   3.346  1.00  0.00    -0.267 OA
HETATM   12  C   UNL     1      40.951 -11.843   4.571  1.00  0.00     0.073 A 
HETATM   13  C   UNL     1      40.204 -12.340   5.613  1.00  0.00     0.088 A 
HETATM   14  C   UNL     1      41.656 -12.877   3.879  1.00  0.00    -0.023 A 
HETATM   15  S   UNL     1      40.329 -14.030   5.759  1.00  0.00    -0.074 SA
HETATM   16  N   UNL     1      39.462 -11.557   6.424  1.00  0.00    -0.358 N 
HETATM   17  C   UNL     1      41.389 -14.117   4.430  1.00  0.00     0.018 A 
HETATM   18  C   UNL     1      41.960 -15.406   3.950  1.00  0.00     0.281 C 
HETATM   19  N   UNL     1      42.559 -15.263   2.554  1.00  0.00    -0.070 N 
HETATM   20  C   UNL     1      43.385 -13.984   2.428  1.00  0.00     0.239 C 
HETATM   21  H   UNL     1      43.213 -16.046   2.445  1.00  0.00     0.279 HD
HETATM   22  C   UNL     1      41.533 -15.418   1.468  1.00  0.00     0.270 C 
HETATM   23  C   UNL     1      42.548 -12.718   2.683  1.00  0.00     0.068 C 
HETATM   24  H   UNL     1      39.055 -11.934   7.275  1.00  0.00     0.162 HD
ENDBRANCH   5   7
BRANCH   1  25
HETATM   25  O   UNL     1      44.314  -9.249   8.308  1.00  0.00    -0.349 OA
BRANCH  25  26
HETATM   26  C   UNL     1      45.010 -10.475   8.525  1.00  0.00     0.171 C 
HETATM   27  C   UNL     1      45.489 -10.989   7.179  1.00  0.00     0.034 C 
ENDBRANCH  25  26
ENDBRANCH   1  25
BRANCH   2  28
HETATM   28  O   UNL     1      43.208  -8.507  10.675  1.00  0.00    -0.272 OA
BRANCH  28  29
HETATM   29  C   UNL     1      43.132  -9.404  11.720  1.00  0.00     0.300 C 
HETATM   30  O   UNL     1      43.480 -10.576  11.734  1.00  0.00    -0.259 OA
BRANCH  29  31
HETATM   31  C   UNL     1      42.627  -8.714  12.924  1.00  0.00     0.061 A 
HETATM   32  C   UNL     1      41.449  -9.080  13.588  1.00  0.00     0.050 A 
HETATM   33 CL   UNL     1      40.456 -10.405  13.098  1.00  0.00    -0.083 Cl
HETATM   34  C   UNL     1      41.068  -8.392  14.746  1.00  0.00     0.025 A 
HETATM   35  C   UNL     1      41.862  -7.359  15.250  1.00  0.00     0.002 A 
HETATM   36  C   UNL     1      43.046  -7.011  14.603  1.00  0.00     0.001 A 
HETATM   37  C   UNL     1      43.431  -7.688  13.445  1.00  0.00     0.019 A 
ENDBRANCH  29  31
ENDBRANCH  28  29
ENDBRANCH   2  28
TORSDOF 6
ENDMDL
