MODEL 1
REMARK VINA RESULT:      -8.9      0.000      0.000
REMARK  3 active torsions:
REMARK  status: ('A' for Active; 'I' for Inactive)
REMARK    1  A    between atoms: C_6  and  C_7 
REMARK    2  A    between atoms: C_14  and  N_15 
REMARK    3  A    between atoms: N_15  and  C_16 
ROOT
HETATM    1  C   UNL     1      42.622 -12.461   6.136  1.00  0.00     0.001 A 
HETATM    2  C   UNL     1      41.947 -13.052   5.071  1.00  0.00     0.018 A 
HETATM    3  C   UNL     1      42.231 -14.386   4.676  1.00  0.00     0.039 A 
HETATM    4  C   UNL     1      43.217 -15.108   5.359  1.00  0.00     0.073 A 
HETATM    5  N   UNL     1      43.556 -16.357   5.034  1.00  0.00    -0.228 NA
HETATM    6  C   UNL     1      42.914 -16.927   4.002  1.00  0.00     0.164 A 
HETATM    7  N   UNL     1      41.952 -16.329   3.284  1.00  0.00    -0.210 NA
HETATM    8  C   UNL     1      41.606 -15.073   3.620  1.00  0.00     0.143 A 
HETATM    9  C   UNL     1      43.877 -14.497   6.420  1.00  0.00     0.032 A 
HETATM   10  C   UNL     1      43.590 -13.188   6.815  1.00  0.00     0.002 A 
ENDROOT
BRANCH   8  11
HETATM   11  N   UNL     1      40.571 -14.421   2.897  1.00  0.00    -0.340 N 
HETATM   12  H   UNL     1      39.676 -14.801   3.187  1.00  0.00     0.167 HD
BRANCH  11  13
HETATM   13  C   UNL     1      40.553 -14.016   1.542  1.00  0.00     0.036 A 
HETATM   14  C   UNL     1      39.883 -14.824   0.606  1.00  0.00     0.069 A 
HETATM   15  C   UNL     1      39.795 -14.390  -0.702  1.00  0.00     0.107 A 
HETATM   16  C   UNL     1      40.321 -13.187  -1.103  1.00  0.00     0.105 A 
HETATM   17  O   UNL     1      39.189 -15.058  -1.719  1.00  0.00    -0.323 OA
HETATM   18  O   UNL     1      40.117 -12.946  -2.425  1.00  0.00    -0.323 OA
HETATM   19  C   UNL     1      40.957 -12.350  -0.218  1.00  0.00     0.042 A 
HETATM   20  C   UNL     1      39.392 -14.133  -2.809  1.00  0.00     0.352 A 
HETATM   21  C   UNL     1      41.056 -12.767   1.117  1.00  0.00     0.032 A 
ENDBRANCH  11  13
ENDBRANCH   8  11
BRANCH   6  22
HETATM   22  C   UNL     1      43.288 -18.299   3.633  1.00  0.00     0.029 A 
HETATM   23  C   UNL     1      43.886 -19.170   4.544  1.00  0.00     0.131 A 
HETATM   24  N   UNL     1      44.261 -20.450   4.277  1.00  0.00    -0.272 NA
HETATM   25  C   UNL     1      44.028 -20.899   3.027  1.00  0.00     0.116 A 
HETATM   26  C   UNL     1      43.441 -20.131   2.037  1.00  0.00     0.020 A 
HETATM   27  C   UNL     1      43.071 -18.823   2.347  1.00  0.00     0.018 A 
ENDBRANCH   6  22
TORSDOF 3
ENDMDL
MODEL 2
REMARK VINA RESULT:      -8.9      3.252      6.894
REMARK  3 active torsions:
REMARK  status: ('A' for Active; 'I' for Inactive)
REMARK    1  A    between atoms: C_6  and  C_7 
REMARK    2  A    between atoms: C_14  and  N_15 
REMARK    3  A    between atoms: N_15  and  C_16 
ROOT
HETATM    1  C   UNL     1      40.909 -13.619   6.007  1.00  0.00     0.001 A 
HETATM    2  C   UNL     1      41.691 -14.244   5.038  1.00  0.00     0.018 A 
HETATM    3  C   UNL     1      41.364 -14.143   3.661  1.00  0.00     0.039 A 
HETATM    4  C   UNL     1      40.230 -13.419   3.275  1.00  0.00     0.073 A 
HETATM    5  N   UNL     1      39.846 -13.297   2.003  1.00  0.00    -0.228 NA
HETATM    6  C   UNL     1      40.592 -13.906   1.067  1.00  0.00     0.164 A 
HETATM    7  N   UNL     1      41.698 -14.619   1.326  1.00  0.00    -0.210 NA
HETATM    8  C   UNL     1      42.088 -14.733   2.608  1.00  0.00     0.143 A 
HETATM    9  C   UNL     1      39.466 -12.803   4.260  1.00  0.00     0.032 A 
HETATM   10  C   UNL     1      39.793 -12.892   5.616  1.00  0.00     0.002 A 
ENDROOT
BRANCH   8  11
HETATM   11  N   UNL     1      43.271 -15.458   2.913  1.00  0.00    -0.340 N 
HETATM   12  H   UNL     1      44.055 -15.027   2.434  1.00  0.00     0.167 HD
BRANCH  11  13
HETATM   13  C   UNL     1      43.445 -16.855   3.050  1.00  0.00     0.036 A 
HETATM   14  C   UNL     1      43.731 -17.376   4.324  1.00  0.00     0.069 A 
HETATM   15  C   UNL     1      43.821 -18.746   4.476  1.00  0.00     0.107 A 
HETATM   16  C   UNL     1      43.617 -19.606   3.425  1.00  0.00     0.105 A 
HETATM   17  O   UNL     1      44.096 -19.398   5.637  1.00  0.00    -0.323 OA
HETATM   18  O   UNL     1      43.742 -20.910   3.789  1.00  0.00    -0.323 OA
HETATM   19  C   UNL     1      43.305 -19.144   2.169  1.00  0.00     0.042 A 
HETATM   20  C   UNL     1      44.039 -20.772   5.194  1.00  0.00     0.352 A 
HETATM   21  C   UNL     1      43.204 -17.758   1.991  1.00  0.00     0.032 A 
ENDBRANCH  11  13
ENDBRANCH   8  11
BRANCH   6  22
HETATM   22  C   UNL     1      40.170 -13.784  -0.334  1.00  0.00     0.029 A 
HETATM   23  C   UNL     1      40.411 -12.628  -1.078  1.00  0.00     0.131 A 
HETATM   24  N   UNL     1      40.051 -12.440  -2.376  1.00  0.00    -0.272 NA
HETATM   25  C   UNL     1      39.411 -13.463  -2.979  1.00  0.00     0.116 A 
HETATM   26  C   UNL     1      39.117 -14.658  -2.348  1.00  0.00     0.020 A 
HETATM   27  C   UNL     1      39.501 -14.814  -1.016  1.00  0.00     0.018 A 
ENDBRANCH   6  22
TORSDOF 3
ENDMDL
MODEL 3
REMARK VINA RESULT:      -8.7      3.565      7.077
REMARK  3 active torsions:
REMARK  status: ('A' for Active; 'I' for Inactive)
REMARK    1  A    between atoms: C_6  and  C_7 
REMARK    2  A    between atoms: C_14  and  N_15 
REMARK    3  A    between atoms: N_15  and  C_16 
ROOT
HETATM    1  C   UNL     1      43.854 -17.871   4.555  1.00  0.00     0.001 A 
HETATM    2  C   UNL     1      43.090 -16.755   4.889  1.00  0.00     0.018 A 
HETATM    3  C   UNL     1      42.322 -16.076   3.907  1.00  0.00     0.039 A 
HETATM    4  C   UNL     1      42.351 -16.525   2.582  1.00  0.00     0.073 A 
HETATM    5  N   UNL     1      41.675 -15.927   1.599  1.00  0.00    -0.228 NA
HETATM    6  C   UNL     1      40.945 -14.846   1.915  1.00  0.00     0.164 A 
HETATM    7  N   UNL     1      40.844 -14.335   3.151  1.00  0.00    -0.210 NA
HETATM    8  C   UNL     1      41.519 -14.945   4.141  1.00  0.00     0.143 A 
HETATM    9  C   UNL     1      43.120 -17.642   2.273  1.00  0.00     0.032 A 
HETATM   10  C   UNL     1      43.866 -18.319   3.241  1.00  0.00     0.002 A 
ENDROOT
BRANCH   8  11
HETATM   11  N   UNL     1      41.411 -14.445   5.466  1.00  0.00    -0.340 N 
HETATM   12  H   UNL     1      40.482 -14.647   5.821  1.00  0.00     0.167 HD
BRANCH  11  13
HETATM   13  C   UNL     1      41.928 -13.245   6.007  1.00  0.00     0.036 A 
HETATM   14  C   UNL     1      43.230 -13.251   6.540  1.00  0.00     0.069 A 
HETATM   15  C   UNL     1      43.767 -12.063   6.993  1.00  0.00     0.107 A 
HETATM   16  C   UNL     1      43.075 -10.880   6.917  1.00  0.00     0.105 A 
HETATM   17  O   UNL     1      45.003 -11.909   7.538  1.00  0.00    -0.323 OA
HETATM   18  O   UNL     1      43.785  -9.830   7.409  1.00  0.00    -0.323 OA
HETATM   19  C   UNL     1      41.813 -10.818   6.377  1.00  0.00     0.042 A 
HETATM   20  C   UNL     1      45.010 -10.487   7.794  1.00  0.00     0.352 A 
HETATM   21  C   UNL     1      41.247 -12.011   5.906  1.00  0.00     0.032 A 
ENDBRANCH  11  13
ENDBRANCH   8  11
BRANCH   6  22
HETATM   22  C   UNL     1      40.205 -14.176   0.837  1.00  0.00     0.029 A 
HETATM   23  C   UNL     1      39.790 -12.848   0.942  1.00  0.00     0.131 A 
HETATM   24  N   UNL     1      39.103 -12.162  -0.010  1.00  0.00    -0.272 NA
HETATM   25  C   UNL     1      38.807 -12.834  -1.142  1.00  0.00     0.116 A 
HETATM   26  C   UNL     1      39.165 -14.151  -1.364  1.00  0.00     0.020 A 
HETATM   27  C   UNL     1      39.868 -14.822  -0.364  1.00  0.00     0.018 A 
ENDBRANCH   6  22
TORSDOF 3
ENDMDL
MODEL 4
REMARK VINA RESULT:      -8.6      1.514      2.251
REMARK  3 active torsions:
REMARK  status: ('A' for Active; 'I' for Inactive)
REMARK    1  A    between atoms: C_6  and  C_7 
REMARK    2  A    between atoms: C_14  and  N_15 
REMARK    3  A    between atoms: N_15  and  C_16 
ROOT
HETATM    1  C   UNL     1      39.885 -11.805   4.936  1.00  0.00     0.001 A 
HETATM    2  C   UNL     1      39.718 -12.611   3.812  1.00  0.00     0.018 A 
HETATM    3  C   UNL     1      40.435 -13.829   3.676  1.00  0.00     0.039 A 
HETATM    4  C   UNL     1      41.333 -14.213   4.678  1.00  0.00     0.073 A 
HETATM    5  N   UNL     1      42.059 -15.331   4.612  1.00  0.00    -0.228 NA
HETATM    6  C   UNL     1      41.908 -16.106   3.526  1.00  0.00     0.164 A 
HETATM    7  N   UNL     1      41.073 -15.836   2.512  1.00  0.00    -0.210 NA
HETATM    8  C   UNL     1      40.337 -14.713   2.585  1.00  0.00     0.143 A 
HETATM    9  C   UNL     1      41.481 -13.392   5.791  1.00  0.00     0.032 A 
HETATM   10  C   UNL     1      40.768 -12.199   5.932  1.00  0.00     0.002 A 
ENDROOT
BRANCH   8  11
HETATM   11  N   UNL     1      39.423 -14.412   1.541  1.00  0.00    -0.340 N 
HETATM   12  H   UNL     1      38.661 -15.081   1.565  1.00  0.00     0.167 HD
BRANCH  11  13
HETATM   13  C   UNL     1      39.693 -13.976   0.223  1.00  0.00     0.036 A 
HETATM   14  C   UNL     1      40.322 -12.731   0.041  1.00  0.00     0.069 A 
HETATM   15  C   UNL     1      40.661 -12.340  -1.240  1.00  0.00     0.107 A 
HETATM   16  C   UNL     1      40.421 -13.140  -2.329  1.00  0.00     0.105 A 
HETATM   17  O   UNL     1      41.264 -11.169  -1.577  1.00  0.00    -0.323 OA
HETATM   18  O   UNL     1      40.839 -12.574  -3.492  1.00  0.00    -0.323 OA
HETATM   19  C   UNL     1      39.837 -14.378  -2.197  1.00  0.00     0.042 A 
HETATM   20  C   UNL     1      41.379 -11.327  -3.008  1.00  0.00     0.352 A 
HETATM   21  C   UNL     1      39.488 -14.799  -0.907  1.00  0.00     0.032 A 
ENDBRANCH  11  13
ENDBRANCH   8  11
BRANCH   6  22
HETATM   22  C   UNL     1      42.710 -17.334   3.442  1.00  0.00     0.029 A 
HETATM   23  C   UNL     1      43.549 -17.739   4.480  1.00  0.00     0.131 A 
HETATM   24  N   UNL     1      44.321 -18.859   4.476  1.00  0.00    -0.272 NA
HETATM   25  C   UNL     1      44.258 -19.630   3.371  1.00  0.00     0.116 A 
HETATM   26  C   UNL     1      43.464 -19.335   2.278  1.00  0.00     0.020 A 
HETATM   27  C   UNL     1      42.687 -18.177   2.319  1.00  0.00     0.018 A 
ENDBRANCH   6  22
TORSDOF 3
ENDMDL
MODEL 5
REMARK VINA RESULT:      -8.5      1.400      4.835
REMARK  3 active torsions:
REMARK  status: ('A' for Active; 'I' for Inactive)
REMARK    1  A    between atoms: C_6  and  C_7 
REMARK    2  A    between atoms: C_14  and  N_15 
REMARK    3  A    between atoms: N_15  and  C_16 
ROOT
HETATM    1  C   UNL     1      43.322 -19.020   2.634  1.00  0.00     0.001 A 
HETATM    2  C   UNL     1      42.472 -17.945   2.386  1.00  0.00     0.018 A 
HETATM    3  C   UNL     1      42.562 -16.752   3.151  1.00  0.00     0.039 A 
HETATM    4  C   UNL     1      43.507 -16.666   4.180  1.00  0.00     0.073 A 
HETATM    5  N   UNL     1      43.638 -15.588   4.956  1.00  0.00    -0.228 NA
HETATM    6  C   UNL     1      42.814 -14.553   4.726  1.00  0.00     0.164 A 
HETATM    7  N   UNL     1      41.878 -14.529   3.766  1.00  0.00    -0.210 NA
HETATM    8  C   UNL     1      41.754 -15.612   2.980  1.00  0.00     0.143 A 
HETATM    9  C   UNL     1      44.346 -17.752   4.407  1.00  0.00     0.032 A 
HETATM   10  C   UNL     1      44.266 -18.921   3.647  1.00  0.00     0.002 A 
ENDROOT
BRANCH   8  11
HETATM   11  N   UNL     1      40.791 -15.608   1.936  1.00  0.00    -0.340 N 
HETATM   12  H   UNL     1      40.617 -16.563   1.642  1.00  0.00     0.167 HD
BRANCH  11  13
HETATM   13  C   UNL     1      40.649 -14.697   0.863  1.00  0.00     0.036 A 
HETATM   14  C   UNL     1      39.788 -15.034  -0.197  1.00  0.00     0.069 A 
HETATM   15  C   UNL     1      39.585 -14.112  -1.205  1.00  0.00     0.107 A 
HETATM   16  C   UNL     1      40.181 -12.875  -1.186  1.00  0.00     0.105 A 
HETATM   17  O   UNL     1      38.792 -14.291  -2.295  1.00  0.00    -0.323 OA
HETATM   18  O   UNL     1      39.842 -12.119  -2.264  1.00  0.00    -0.323 OA
HETATM   19  C   UNL     1      41.004 -12.490  -0.156  1.00  0.00     0.042 A 
HETATM   20  C   UNL     1      38.956 -13.020  -2.960  1.00  0.00     0.352 A 
HETATM   21  C   UNL     1      41.223 -13.407   0.881  1.00  0.00     0.032 A 
ENDBRANCH  11  13
ENDBRANCH   8  11
BRANCH   6  22
HETATM   22  C   UNL     1      42.945 -13.367   5.583  1.00  0.00     0.029 A 
HETATM   23  C   UNL     1      42.053 -12.298   5.502  1.00  0.00     0.131 A 
HETATM   24  N   UNL     1      42.110 -11.169   6.258  1.00  0.00    -0.272 NA
HETATM   25  C   UNL     1      43.115 -11.092   7.154  1.00  0.00     0.116 A 
HETATM   26  C   UNL     1      44.060 -12.087   7.328  1.00  0.00     0.020 A 
HETATM   27  C   UNL     1      43.970 -13.230   6.534  1.00  0.00     0.018 A 
ENDBRANCH   6  22
TORSDOF 3
ENDMDL
MODEL 6
REMARK VINA RESULT:      -8.3      4.168      6.716
REMARK  3 active torsions:
REMARK  status: ('A' for Active; 'I' for Inactive)
REMARK    1  A    between atoms: C_6  and  C_7 
REMARK    2  A    between atoms: C_14  and  N_15 
REMARK    3  A    between atoms: N_15  and  C_16 
ROOT
HETATM    1  C   UNL     1      39.412 -10.947   2.999  1.00  0.00     0.001 A 
HETATM    2  C   UNL     1      40.728 -11.082   3.436  1.00  0.00     0.018 A 
HETATM    3  C   UNL     1      41.359 -12.353   3.467  1.00  0.00     0.039 A 
HETATM    4  C   UNL     1      40.641 -13.486   3.069  1.00  0.00     0.073 A 
HETATM    5  N   UNL     1      41.158 -14.716   3.090  1.00  0.00    -0.228 NA
HETATM    6  C   UNL     1      42.422 -14.852   3.520  1.00  0.00     0.164 A 
HETATM    7  N   UNL     1      43.200 -13.835   3.919  1.00  0.00    -0.210 NA
HETATM    8  C   UNL     1      42.680 -12.595   3.888  1.00  0.00     0.143 A 
HETATM    9  C   UNL     1      39.329 -13.326   2.635  1.00  0.00     0.032 A 
HETATM   10  C   UNL     1      38.711 -12.074   2.593  1.00  0.00     0.002 A 
ENDROOT
BRANCH   8  11
HETATM   11  N   UNL     1      43.487 -11.493   4.278  1.00  0.00    -0.340 N 
HETATM   12  H   UNL     1      44.129 -11.270   3.524  1.00  0.00     0.167 HD
BRANCH  11  13
HETATM   13  C   UNL     1      44.048 -11.208   5.544  1.00  0.00     0.036 A 
HETATM   14  C   UNL     1      43.186 -10.868   6.602  1.00  0.00     0.069 A 
HETATM   15  C   UNL     1      43.724 -10.669   7.858  1.00  0.00     0.107 A 
HETATM   16  C   UNL     1      45.067 -10.816   8.103  1.00  0.00     0.105 A 
HETATM   17  O   UNL     1      43.025 -10.332   8.975  1.00  0.00    -0.323 OA
HETATM   18  O   UNL     1      45.386 -10.585   9.404  1.00  0.00    -0.323 OA
HETATM   19  C   UNL     1      45.943 -11.177   7.108  1.00  0.00     0.042 A 
HETATM   20  C   UNL     1      44.087 -10.285   9.954  1.00  0.00     0.352 A 
HETATM   21  C   UNL     1      45.421 -11.388   5.824  1.00  0.00     0.032 A 
ENDBRANCH  11  13
ENDBRANCH   8  11
BRANCH   6  22
HETATM   22  C   UNL     1      42.995 -16.204   3.556  1.00  0.00     0.029 A 
HETATM   23  C   UNL     1      43.743 -16.660   4.642  1.00  0.00     0.131 A 
HETATM   24  N   UNL     1      44.304 -17.894   4.747  1.00  0.00    -0.272 NA
HETATM   25  C   UNL     1      44.112 -18.734   3.710  1.00  0.00     0.116 A 
HETATM   26  C   UNL     1      43.390 -18.399   2.579  1.00  0.00     0.020 A 
HETATM   27  C   UNL     1      42.829 -17.124   2.507  1.00  0.00     0.018 A 
ENDBRANCH   6  22
TORSDOF 3
ENDMDL
MODEL 7
REMARK VINA RESULT:      -8.2      3.318      5.956
REMARK  3 active torsions:
REMARK  status: ('A' for Active; 'I' for Inactive)
REMARK    1  A    between atoms: C_6  and  C_7 
REMARK    2  A    between atoms: C_14  and  N_15 
REMARK    3  A    between atoms: N_15  and  C_16 
ROOT
HETATM    1  C   UNL     1      39.146 -12.423   0.686  1.00  0.00     0.001 A 
HETATM    2  C   UNL     1      39.546 -12.627   2.005  1.00  0.00     0.018 A 
HETATM    3  C   UNL     1      40.359 -13.736   2.358  1.00  0.00     0.039 A 
HETATM    4  C   UNL     1      40.747 -14.645   1.367  1.00  0.00     0.073 A 
HETATM    5  N   UNL     1      41.492 -15.723   1.624  1.00  0.00    -0.228 NA
HETATM    6  C   UNL     1      41.871 -15.928   2.895  1.00  0.00     0.164 A 
HETATM    7  N   UNL     1      41.560 -15.119   3.919  1.00  0.00    -0.210 NA
HETATM    8  C   UNL     1      40.817 -14.029   3.656  1.00  0.00     0.143 A 
HETATM    9  C   UNL     1      40.337 -14.420   0.057  1.00  0.00     0.032 A 
HETATM   10  C   UNL     1      39.547 -13.322  -0.293  1.00  0.00     0.002 A 
ENDROOT
BRANCH   8  11
HETATM   11  N   UNL     1      40.493 -13.137   4.713  1.00  0.00    -0.340 N 
HETATM   12  H   UNL     1      39.645 -12.634   4.473  1.00  0.00     0.167 HD
BRANCH  11  13
HETATM   13  C   UNL     1      41.359 -12.352   5.509  1.00  0.00     0.036 A 
HETATM   14  C   UNL     1      42.660 -12.825   5.757  1.00  0.00     0.069 A 
HETATM   15  C   UNL     1      43.534 -12.023   6.465  1.00  0.00     0.107 A 
HETATM   16  C   UNL     1      43.174 -10.775   6.909  1.00  0.00     0.105 A 
HETATM   17  O   UNL     1      44.815 -12.341   6.790  1.00  0.00    -0.323 OA
HETATM   18  O   UNL     1      44.181 -10.149   7.573  1.00  0.00    -0.323 OA
HETATM   19  C   UNL     1      41.924 -10.257   6.662  1.00  0.00     0.042 A 
HETATM   20  C   UNL     1      45.221 -11.144   7.489  1.00  0.00     0.352 A 
HETATM   21  C   UNL     1      41.021 -11.051   5.943  1.00  0.00     0.032 A 
ENDBRANCH  11  13
ENDBRANCH   8  11
BRANCH   6  22
HETATM   22  C   UNL     1      42.683 -17.117   3.187  1.00  0.00     0.029 A 
HETATM   23  C   UNL     1      43.363 -17.266   4.396  1.00  0.00     0.131 A 
HETATM   24  N   UNL     1      44.132 -18.334   4.738  1.00  0.00    -0.272 NA
HETATM   25  C   UNL     1      44.235 -19.320   3.824  1.00  0.00     0.116 A 
HETATM   26  C   UNL     1      43.608 -19.288   2.592  1.00  0.00     0.020 A 
HETATM   27  C   UNL     1      42.828 -18.176   2.276  1.00  0.00     0.018 A 
ENDBRANCH   6  22
TORSDOF 3
ENDMDL
MODEL 8
REMARK VINA RESULT:      -8.1      2.416      5.738
REMARK  3 active torsions:
REMARK  status: ('A' for Active; 'I' for Inactive)
REMARK    1  A    between atoms: C_6  and  C_7 
REMARK    2  A    between atoms: C_14  and  N_15 
REMARK    3  A    between atoms: N_15  and  C_16 
ROOT
HETATM    1  C   UNL     1      43.035 -17.617   5.098  1.00  0.00     0.001 A 
HETATM    2  C   UNL     1      42.162 -16.555   4.871  1.00  0.00     0.018 A 
HETATM    3  C   UNL     1      42.445 -15.258   5.373  1.00  0.00     0.039 A 
HETATM    4  C   UNL     1      43.609 -15.051   6.122  1.00  0.00     0.073 A 
HETATM    5  N   UNL     1      43.933 -13.867   6.645  1.00  0.00    -0.228 NA
HETATM    6  C   UNL     1      43.089 -12.843   6.437  1.00  0.00     0.164 A 
HETATM    7  N   UNL     1      41.951 -12.930   5.732  1.00  0.00    -0.210 NA
HETATM    8  C   UNL     1      41.632 -14.123   5.198  1.00  0.00     0.143 A 
HETATM    9  C   UNL     1      44.466 -16.126   6.334  1.00  0.00     0.032 A 
HETATM   10  C   UNL     1      44.194 -17.400   5.830  1.00  0.00     0.002 A 
ENDROOT
BRANCH   8  11
HETATM   11  N   UNL     1      40.448 -14.242   4.422  1.00  0.00    -0.340 N 
HETATM   12  H   UNL     1      39.833 -14.920   4.861  1.00  0.00     0.167 HD
BRANCH  11  13
HETATM   13  C   UNL     1      40.304 -14.239   3.015  1.00  0.00     0.036 A 
HETATM   14  C   UNL     1      40.590 -13.056   2.311  1.00  0.00     0.069 A 
HETATM   15  C   UNL     1      40.530 -13.073   0.932  1.00  0.00     0.107 A 
HETATM   16  C   UNL     1      40.221 -14.215   0.235  1.00  0.00     0.105 A 
HETATM   17  O   UNL     1      40.771 -12.014   0.114  1.00  0.00    -0.323 OA
HETATM   18  O   UNL     1      40.224 -14.020  -1.110  1.00  0.00    -0.323 OA
HETATM   19  C   UNL     1      39.964 -15.403   0.878  1.00  0.00     0.042 A 
HETATM   20  C   UNL     1      40.581 -12.624  -1.181  1.00  0.00     0.352 A 
HETATM   21  C   UNL     1      40.023 -15.411   2.278  1.00  0.00     0.032 A 
ENDBRANCH  11  13
ENDBRANCH   8  11
BRANCH   6  22
HETATM   22  C   UNL     1      43.434 -11.539   7.018  1.00  0.00     0.029 A 
HETATM   23  C   UNL     1      42.570 -10.446   6.941  1.00  0.00     0.131 A 
HETATM   24  N   UNL     1      42.818  -9.211   7.452  1.00  0.00    -0.272 NA
HETATM   25  C   UNL     1      43.999  -9.045   8.082  1.00  0.00     0.116 A 
HETATM   26  C   UNL     1      44.938 -10.051   8.223  1.00  0.00     0.020 A 
HETATM   27  C   UNL     1      44.648 -11.305   7.685  1.00  0.00     0.018 A 
ENDBRANCH   6  22
TORSDOF 3
ENDMDL
MODEL 9
REMARK VINA RESULT:      -8.0      3.506      7.102
REMARK  3 active torsions:
REMARK  status: ('A' for Active; 'I' for Inactive)
REMARK    1  A    between atoms: C_6  and  C_7 
REMARK    2  A    between atoms: C_14  and  N_15 
REMARK    3  A    between atoms: N_15  and  C_16 
ROOT
HETATM    1  C   UNL     1      40.111 -11.820   1.421  1.00  0.00     0.001 A 
HETATM    2  C   UNL     1      40.552 -12.814   2.291  1.00  0.00     0.018 A 
HETATM    3  C   UNL     1      41.436 -12.510   3.359  1.00  0.00     0.039 A 
HETATM    4  C   UNL     1      41.882 -11.194   3.527  1.00  0.00     0.073 A 
HETATM    5  N   UNL     1      42.729 -10.834   4.493  1.00  0.00    -0.228 NA
HETATM    6  C   UNL     1      43.164 -11.792   5.328  1.00  0.00     0.164 A 
HETATM    7  N   UNL     1      42.797 -13.080   5.259  1.00  0.00    -0.210 NA
HETATM    8  C   UNL     1      41.937 -13.439   4.291  1.00  0.00     0.143 A 
HETATM    9  C   UNL     1      41.426 -10.218   2.648  1.00  0.00     0.032 A 
HETATM   10  C   UNL     1      40.547 -10.515   1.603  1.00  0.00     0.002 A 
ENDROOT
BRANCH   8  11
HETATM   11  N   UNL     1      41.507 -14.790   4.208  1.00  0.00    -0.340 N 
HETATM   12  H   UNL     1      40.829 -14.967   4.942  1.00  0.00     0.167 HD
BRANCH  11  13
HETATM   13  C   UNL     1      42.264 -15.946   3.907  1.00  0.00     0.036 A 
HETATM   14  C   UNL     1      42.682 -16.772   4.965  1.00  0.00     0.069 A 
HETATM   15  C   UNL     1      43.351 -17.943   4.668  1.00  0.00     0.107 A 
HETATM   16  C   UNL     1      43.596 -18.329   3.373  1.00  0.00     0.105 A 
HETATM   17  O   UNL     1      43.822 -18.839   5.576  1.00  0.00    -0.323 OA
HETATM   18  O   UNL     1      44.257 -19.515   3.300  1.00  0.00    -0.323 OA
HETATM   19  C   UNL     1      43.180 -17.570   2.306  1.00  0.00     0.042 A 
HETATM   20  C   UNL     1      44.391 -19.837   4.700  1.00  0.00     0.352 A 
HETATM   21  C   UNL     1      42.496 -16.378   2.582  1.00  0.00     0.032 A 
ENDBRANCH  11  13
ENDBRANCH   8  11
BRANCH   6  22
HETATM   22  C   UNL     1      44.104 -11.405   6.388  1.00  0.00     0.029 A 
HETATM   23  C   UNL     1      43.698 -11.252   7.714  1.00  0.00     0.131 A 
HETATM   24  N   UNL     1      44.506 -10.896   8.747  1.00  0.00    -0.272 NA
HETATM   25  C   UNL     1      45.804 -10.678   8.451  1.00  0.00     0.116 A 
HETATM   26  C   UNL     1      46.327 -10.798   7.176  1.00  0.00     0.020 A 
HETATM   27  C   UNL     1      45.466 -11.164   6.141  1.00  0.00     0.018 A 
ENDBRANCH   6  22
TORSDOF 3
ENDMDL
MODEL 10
REMARK VINA RESULT:      -7.9      3.510      7.024
REMARK  3 active torsions:
REMARK  status: ('A' for Active; 'I' for Inactive)
REMARK    1  A    between atoms: C_6  and  C_7 
REMARK    2  A    between atoms: C_14  and  N_15 
REMARK    3  A    between atoms: N_15  and  C_16 
ROOT
HETATM    1  C   UNL     1      40.211 -10.709   4.619  1.00  0.00     0.001 A 
HETATM    2  C   UNL     1      40.984 -11.602   3.881  1.00  0.00     0.018 A 
HETATM    3  C   UNL     1      40.554 -12.059   2.607  1.00  0.00     0.039 A 
HETATM    4  C   UNL     1      39.328 -11.617   2.098  1.00  0.00     0.073 A 
HETATM    5  N   UNL     1      38.846 -12.017   0.919  1.00  0.00    -0.228 NA
HETATM    6  C   UNL     1      39.584 -12.886   0.209  1.00  0.00     0.164 A 
HETATM    7  N   UNL     1      40.772 -13.368   0.600  1.00  0.00    -0.210 NA
HETATM    8  C   UNL     1      41.259 -12.956   1.784  1.00  0.00     0.143 A 
HETATM    9  C   UNL     1      38.575 -10.724   2.852  1.00  0.00     0.032 A 
HETATM   10  C   UNL     1      39.003 -10.265   4.101  1.00  0.00     0.002 A 
ENDROOT
BRANCH   8  11
HETATM   11  N   UNL     1      42.529 -13.427   2.215  1.00  0.00    -0.340 N 
HETATM   12  H   UNL     1      43.252 -12.985   1.658  1.00  0.00     0.167 HD
BRANCH  11  13
HETATM   13  C   UNL     1      42.902 -14.730   2.617  1.00  0.00     0.036 A 
HETATM   14  C   UNL     1      42.957 -15.021   3.992  1.00  0.00     0.069 A 
HETATM   15  C   UNL     1      43.242 -16.314   4.386  1.00  0.00     0.107 A 
HETATM   16  C   UNL     1      43.448 -17.320   3.474  1.00  0.00     0.105 A 
HETATM   17  O   UNL     1      43.337 -16.748   5.671  1.00  0.00    -0.323 OA
HETATM   18  O   UNL     1      43.703 -18.516   4.069  1.00  0.00    -0.323 OA
HETATM   19  C   UNL     1      43.373 -17.090   2.121  1.00  0.00     0.042 A 
HETATM   20  C   UNL     1      43.624 -18.148   5.462  1.00  0.00     0.352 A 
HETATM   21  C   UNL     1      43.082 -15.787   1.697  1.00  0.00     0.032 A 
ENDBRANCH  11  13
ENDBRANCH   8  11
BRANCH   6  22
HETATM   22  C   UNL     1      39.055 -13.338  -1.085  1.00  0.00     0.029 A 
HETATM   23  C   UNL     1      39.779 -14.192  -1.918  1.00  0.00     0.131 A 
HETATM   24  N   UNL     1      39.359 -14.652  -3.127  1.00  0.00    -0.272 NA
HETATM   25  C   UNL     1      38.142 -14.242  -3.539  1.00  0.00     0.116 A 
HETATM   26  C   UNL     1      37.330 -13.398  -2.802  1.00  0.00     0.020 A 
HETATM   27  C   UNL     1      37.796 -12.946  -1.567  1.00  0.00     0.018 A 
ENDBRANCH   6  22
TORSDOF 3
ENDMDL
