MODEL 1
REMARK VINA RESULT:     -10.1      0.000      0.000
REMARK  4 active torsions:
REMARK  status: ('A' for Active; 'I' for Inactive)
REMARK    1  A    between atoms: N_7  and  N_8 
REMARK       I    between atoms: N_8  and  C_9 
REMARK    2  A    between atoms: C_9  and  C_10 
REMARK    3  A    between atoms: C_15  and  C_16 
REMARK    4  A    between atoms: C_24  and  C_25 
ROOT
HETATM    1  C   UNL     1      43.994 -10.851   8.208  1.00  0.00     0.150 A 
HETATM    2  N   UNL     1      43.014  -9.968   7.907  1.00  0.00    -0.165 NA
HETATM    3  N   UNL     1      42.993  -9.149   8.972  1.00  0.00    -0.240 N 
HETATM    4  C   UNL     1      43.844  -9.515   9.975  1.00  0.00     0.123 A 
HETATM    5  N   UNL     1      43.848  -8.872  11.161  1.00  0.00    -0.366 N 
HETATM    6  C   UNL     1      42.917  -7.789  11.466  1.00  0.00     0.118 C 
HETATM    7  C   UNL     1      41.676  -7.850  10.551  1.00  0.00     0.066 C 
HETATM    8  C   UNL     1      42.063  -8.044   9.076  1.00  0.00     0.221 C 
HETATM    9  C   UNL     1      44.554 -10.581   9.490  1.00  0.00     0.089 A 
HETATM   10  H   UNL     1      44.553  -9.070  11.871  1.00  0.00     0.161 HD
ENDROOT
BRANCH   1  11
HETATM   11  C   UNL     1      44.365 -11.951   7.305  1.00  0.00     0.292 C 
HETATM   12  N   UNL     1      43.430 -12.975   7.307  1.00  0.00    -0.241 N 
HETATM   13  H   UNL     1      42.610 -12.867   7.912  1.00  0.00     0.192 HD
HETATM   14  O   UNL     1      45.405 -11.937   6.651  1.00  0.00    -0.264 OA
BRANCH  12  15
HETATM   15  N   UNL     1      43.611 -14.101   6.558  1.00  0.00    -0.165 NA
HETATM   16  C   UNL     1      42.788 -14.287   5.578  1.00  0.00     0.157 A 
HETATM   17  C   UNL     1      42.816 -15.418   4.658  1.00  0.00     0.027 A 
HETATM   18  C   UNL     1      41.606 -13.417   5.131  1.00  0.00     0.277 A 
HETATM   19  C   UNL     1      43.662 -16.506   4.595  1.00  0.00     0.016 A 
HETATM   20  C   UNL     1      41.766 -15.231   3.760  1.00  0.00     0.048 A 
HETATM   21  C   UNL     1      43.425 -17.433   3.578  1.00  0.00     0.001 A 
HETATM   22  C   UNL     1      42.365 -17.249   2.665  1.00  0.00     0.002 A 
HETATM   23  C   UNL     1      41.519 -16.136   2.751  1.00  0.00     0.030 A 
HETATM   24  N   UNL     1      41.064 -14.062   4.040  1.00  0.00    -0.321 N 
HETATM   25  H   UNL     1      40.264 -13.714   3.533  1.00  0.00     0.169 HD
HETATM   26  O   UNL     1      41.254 -12.385   5.662  1.00  0.00    -0.266 OA
ENDBRANCH  12  15
ENDBRANCH   1  11
BRANCH   8  27
HETATM   27  C   UNL     1      42.669  -6.801   8.464  1.00  0.00     0.409 C 
HETATM   28  F   UNL     1      42.477  -6.727   7.131  1.00  0.00    -0.169 F 
HETATM   29  F   UNL     1      42.084  -5.697   9.000  1.00  0.00    -0.169 F 
HETATM   30  F   UNL     1      43.994  -6.681   8.697  1.00  0.00    -0.169 F 
ENDBRANCH   8  27
BRANCH   6  31
HETATM   31  C   UNL     1      42.500  -7.873  12.927  1.00  0.00    -0.035 A 
HETATM   32  C   UNL     1      43.066  -7.003  13.873  1.00  0.00     0.012 A 
HETATM   33  C   UNL     1      42.672  -7.062  15.213  1.00  0.00     0.043 A 
HETATM   34  C   UNL     1      41.712  -7.986  15.609  1.00  0.00     0.116 A 
HETATM   35  F   UNL     1      41.338  -8.038  16.893  1.00  0.00    -0.206 F 
HETATM   36  C   UNL     1      41.135  -8.853  14.691  1.00  0.00     0.043 A 
HETATM   37  C   UNL     1      41.524  -8.795  13.353  1.00  0.00     0.012 A 
ENDBRANCH   6  31
TORSDOF 4
ENDMDL
MODEL 2
REMARK VINA RESULT:     -10.1      3.525     10.248
REMARK  4 active torsions:
REMARK  status: ('A' for Active; 'I' for Inactive)
REMARK    1  A    between atoms: N_7  and  N_8 
REMARK       I    between atoms: N_8  and  C_9 
REMARK    2  A    between atoms: C_9  and  C_10 
REMARK    3  A    between atoms: C_15  and  C_16 
REMARK    4  A    between atoms: C_24  and  C_25 
ROOT
HETATM    1  C   UNL     1      43.818 -11.968   7.197  1.00  0.00     0.150 A 
HETATM    2  N   UNL     1      43.879 -11.527   5.920  1.00  0.00    -0.165 NA
HETATM    3  N   UNL     1      43.361 -12.544   5.212  1.00  0.00    -0.240 N 
HETATM    4  C   UNL     1      43.056 -13.646   5.959  1.00  0.00     0.123 A 
HETATM    5  N   UNL     1      42.650 -14.795   5.381  1.00  0.00    -0.366 N 
HETATM    6  C   UNL     1      42.560 -14.951   3.931  1.00  0.00     0.118 C 
HETATM    7  C   UNL     1      43.445 -13.916   3.205  1.00  0.00     0.066 C 
HETATM    8  C   UNL     1      43.247 -12.499   3.769  1.00  0.00     0.221 C 
HETATM    9  C   UNL     1      43.284 -13.288   7.261  1.00  0.00     0.089 A 
HETATM   10  H   UNL     1      42.318 -15.583   5.937  1.00  0.00     0.161 HD
ENDROOT
BRANCH   1  11
HETATM   11  C   UNL     1      44.292 -11.160   8.332  1.00  0.00     0.292 C 
HETATM   12  N   UNL     1      43.268 -10.826   9.205  1.00  0.00    -0.241 N 
HETATM   13  H   UNL     1      42.325 -11.161   8.982  1.00  0.00     0.192 HD
HETATM   14  O   UNL     1      45.467 -10.823   8.449  1.00  0.00    -0.264 OA
BRANCH  12  15
HETATM   15  N   UNL     1      43.501 -10.051  10.304  1.00  0.00    -0.165 NA
HETATM   16  C   UNL     1      42.578  -9.202  10.625  1.00  0.00     0.157 A 
HETATM   17  C   UNL     1      42.631  -8.292  11.763  1.00  0.00     0.027 A 
HETATM   18  C   UNL     1      41.239  -8.924   9.932  1.00  0.00     0.277 A 
HETATM   19  C   UNL     1      43.604  -8.108  12.724  1.00  0.00     0.016 A 
HETATM   20  C   UNL     1      41.446  -7.560  11.746  1.00  0.00     0.048 A 
HETATM   21  C   UNL     1      43.353  -7.142  13.701  1.00  0.00     0.001 A 
HETATM   22  C   UNL     1      42.154  -6.399  13.690  1.00  0.00     0.002 A 
HETATM   23  C   UNL     1      41.182  -6.604  12.703  1.00  0.00     0.030 A 
HETATM   24  N   UNL     1      40.636  -7.933  10.676  1.00  0.00    -0.321 N 
HETATM   25  H   UNL     1      39.732  -7.546  10.453  1.00  0.00     0.169 HD
HETATM   26  O   UNL     1      40.837  -9.482   8.933  1.00  0.00    -0.266 OA
ENDBRANCH  12  15
ENDBRANCH   1  11
BRANCH   8  27
HETATM   27  C   UNL     1      41.917 -11.897   3.375  1.00  0.00     0.409 C 
HETATM   28  F   UNL     1      40.962 -12.083   4.310  1.00  0.00    -0.169 F 
HETATM   29  F   UNL     1      42.052 -10.553   3.222  1.00  0.00    -0.169 F 
HETATM   30  F   UNL     1      41.442 -12.368   2.202  1.00  0.00    -0.169 F 
ENDBRANCH   8  27
BRANCH   6  31
HETATM   31  C   UNL     1      42.975 -16.363   3.545  1.00  0.00    -0.035 A 
HETATM   32  C   UNL     1      43.855 -17.089   4.363  1.00  0.00     0.012 A 
HETATM   33  C   UNL     1      44.223 -18.394   4.025  1.00  0.00     0.043 A 
HETATM   34  C   UNL     1      43.712 -18.977   2.871  1.00  0.00     0.116 A 
HETATM   35  F   UNL     1      44.067 -20.227   2.550  1.00  0.00    -0.206 F 
HETATM   36  C   UNL     1      42.837 -18.281   2.047  1.00  0.00     0.043 A 
HETATM   37  C   UNL     1      42.466 -16.979   2.384  1.00  0.00     0.012 A 
ENDBRANCH   6  31
TORSDOF 4
ENDMDL
MODEL 3
REMARK VINA RESULT:      -9.9      2.584      4.280
REMARK  4 active torsions:
REMARK  status: ('A' for Active; 'I' for Inactive)
REMARK    1  A    between atoms: N_7  and  N_8 
REMARK       I    between atoms: N_8  and  C_9 
REMARK    2  A    between atoms: C_9  and  C_10 
REMARK    3  A    between atoms: C_15  and  C_16 
REMARK    4  A    between atoms: C_24  and  C_25 
ROOT
HETATM    1  C   UNL     1      41.799 -12.819   5.097  1.00  0.00     0.150 A 
HETATM    2  N   UNL     1      40.799 -11.908   5.118  1.00  0.00    -0.165 NA
HETATM    3  N   UNL     1      41.309 -10.900   5.843  1.00  0.00    -0.240 N 
HETATM    4  C   UNL     1      42.547 -11.154   6.361  1.00  0.00     0.123 A 
HETATM    5  N   UNL     1      43.140 -10.295   7.216  1.00  0.00    -0.366 N 
HETATM    6  C   UNL     1      42.482  -9.076   7.681  1.00  0.00     0.118 C 
HETATM    7  C   UNL     1      40.951  -9.177   7.523  1.00  0.00     0.066 C 
HETATM    8  C   UNL     1      40.552  -9.699   6.132  1.00  0.00     0.221 C 
HETATM    9  C   UNL     1      42.923 -12.366   5.848  1.00  0.00     0.089 A 
HETATM   10  H   UNL     1      44.105 -10.426   7.519  1.00  0.00     0.161 HD
ENDROOT
BRANCH   1  11
HETATM   11  C   UNL     1      41.674 -14.109   4.401  1.00  0.00     0.292 C 
HETATM   12  N   UNL     1      42.906 -14.683   4.127  1.00  0.00    -0.241 N 
HETATM   13  H   UNL     1      43.744 -14.173   4.425  1.00  0.00     0.192 HD
HETATM   14  O   UNL     1      40.582 -14.584   4.097  1.00  0.00    -0.264 OA
BRANCH  12  15
HETATM   15  N   UNL     1      43.001 -15.868   3.458  1.00  0.00    -0.165 NA
HETATM   16  C   UNL     1      43.333 -16.906   4.155  1.00  0.00     0.157 A 
HETATM   17  C   UNL     1      43.481 -18.259   3.631  1.00  0.00     0.027 A 
HETATM   18  C   UNL     1      43.653 -17.003   5.652  1.00  0.00     0.277 A 
HETATM   19  C   UNL     1      43.320 -18.752   2.353  1.00  0.00     0.016 A 
HETATM   20  C   UNL     1      43.843 -19.068   4.707  1.00  0.00     0.048 A 
HETATM   21  C   UNL     1      43.537 -20.120   2.170  1.00  0.00     0.001 A 
HETATM   22  C   UNL     1      43.901 -20.944   3.256  1.00  0.00     0.002 A 
HETATM   23  C   UNL     1      44.059 -20.419   4.544  1.00  0.00     0.030 A 
HETATM   24  N   UNL     1      43.941 -18.330   5.884  1.00  0.00    -0.321 N 
HETATM   25  H   UNL     1      44.189 -18.692   6.792  1.00  0.00     0.169 HD
HETATM   26  O   UNL     1      43.646 -16.074   6.431  1.00  0.00    -0.266 OA
ENDBRANCH  12  15
ENDBRANCH   1  11
BRANCH   8  27
HETATM   27  C   UNL     1      40.773  -8.675   5.042  1.00  0.00     0.409 C 
HETATM   28  F   UNL     1      40.790  -7.409   5.509  1.00  0.00    -0.169 F 
HETATM   29  F   UNL     1      41.980  -8.886   4.455  1.00  0.00    -0.169 F 
HETATM   30  F   UNL     1      39.854  -8.738   4.054  1.00  0.00    -0.169 F 
ENDBRANCH   8  27
BRANCH   6  31
HETATM   31  C   UNL     1      42.847  -8.825   9.137  1.00  0.00    -0.035 A 
HETATM   32  C   UNL     1      42.465  -7.628   9.763  1.00  0.00     0.012 A 
HETATM   33  C   UNL     1      42.779  -7.400  11.106  1.00  0.00     0.043 A 
HETATM   34  C   UNL     1      43.473  -8.367  11.825  1.00  0.00     0.116 A 
HETATM   35  F   UNL     1      43.773  -8.144  13.110  1.00  0.00    -0.206 F 
HETATM   36  C   UNL     1      43.858  -9.560  11.228  1.00  0.00     0.043 A 
HETATM   37  C   UNL     1      43.544  -9.791   9.889  1.00  0.00     0.012 A 
ENDBRANCH   6  31
TORSDOF 4
ENDMDL
MODEL 4
REMARK VINA RESULT:      -9.8      4.210     10.539
REMARK  4 active torsions:
REMARK  status: ('A' for Active; 'I' for Inactive)
REMARK    1  A    between atoms: N_7  and  N_8 
REMARK       I    between atoms: N_8  and  C_9 
REMARK    2  A    between atoms: C_9  and  C_10 
REMARK    3  A    between atoms: C_15  and  C_16 
REMARK    4  A    between atoms: C_24  and  C_25 
ROOT
HETATM    1  C   UNL     1      43.342 -12.617   6.249  1.00  0.00     0.150 A 
HETATM    2  N   UNL     1      43.475 -12.387   4.922  1.00  0.00    -0.165 NA
HETATM    3  N   UNL     1      43.062 -13.536   4.363  1.00  0.00    -0.240 N 
HETATM    4  C   UNL     1      42.758 -14.518   5.262  1.00  0.00     0.123 A 
HETATM    5  N   UNL     1      42.453 -15.768   4.859  1.00  0.00    -0.366 N 
HETATM    6  C   UNL     1      42.478 -16.164   3.453  1.00  0.00     0.118 C 
HETATM    7  C   UNL     1      43.362 -15.209   2.623  1.00  0.00     0.066 C 
HETATM    8  C   UNL     1      43.052 -13.734   2.928  1.00  0.00     0.221 C 
HETATM    9  C   UNL     1      42.871 -13.939   6.498  1.00  0.00     0.089 A 
HETATM   10  H   UNL     1      42.120 -16.474   5.516  1.00  0.00     0.161 HD
ENDROOT
BRANCH   1  11
HETATM   11  C   UNL     1      43.690 -11.607   7.261  1.00  0.00     0.292 C 
HETATM   12  N   UNL     1      42.726 -10.616   7.371  1.00  0.00    -0.241 N 
HETATM   13  H   UNL     1      41.904 -10.685   6.764  1.00  0.00     0.192 HD
HETATM   14  O   UNL     1      44.737 -11.659   7.903  1.00  0.00    -0.264 OA
BRANCH  12  15
HETATM   15  N   UNL     1      42.882  -9.571   8.234  1.00  0.00    -0.165 NA
HETATM   16  C   UNL     1      41.803  -8.980   8.635  1.00  0.00     0.157 A 
HETATM   17  C   UNL     1      41.754  -7.853   9.558  1.00  0.00     0.027 A 
HETATM   18  C   UNL     1      40.345  -9.280   8.267  1.00  0.00     0.277 A 
HETATM   19  C   UNL     1      42.767  -7.169  10.199  1.00  0.00     0.016 A 
HETATM   20  C   UNL     1      40.409  -7.528   9.722  1.00  0.00     0.048 A 
HETATM   21  C   UNL     1      42.389  -6.117  11.036  1.00  0.00     0.001 A 
HETATM   22  C   UNL     1      41.029  -5.784  11.208  1.00  0.00     0.002 A 
HETATM   23  C   UNL     1      40.019  -6.493  10.546  1.00  0.00     0.030 A 
HETATM   24  N   UNL     1      39.591  -8.363   8.968  1.00  0.00    -0.321 N 
HETATM   25  H   UNL     1      38.584  -8.323   8.920  1.00  0.00     0.169 HD
HETATM   26  O   UNL     1      39.978 -10.151   7.508  1.00  0.00    -0.266 OA
ENDBRANCH  12  15
ENDBRANCH   1  11
BRANCH   8  27
HETATM   27  C   UNL     1      41.727 -13.287   2.355  1.00  0.00     0.409 C 
HETATM   28  F   UNL     1      40.723 -13.342   3.255  1.00  0.00    -0.169 F 
HETATM   29  F   UNL     1      41.816 -11.991   1.954  1.00  0.00    -0.169 F 
HETATM   30  F   UNL     1      41.346 -13.995   1.269  1.00  0.00    -0.169 F 
ENDBRANCH   8  27
BRANCH   6  31
HETATM   31  C   UNL     1      42.989 -17.592   3.335  1.00  0.00    -0.035 A 
HETATM   32  C   UNL     1      43.722 -18.168   4.386  1.00  0.00     0.012 A 
HETATM   33  C   UNL     1      44.177 -19.486   4.292  1.00  0.00     0.043 A 
HETATM   34  C   UNL     1      43.899 -20.232   3.153  1.00  0.00     0.116 A 
HETATM   35  F   UNL     1      44.337 -21.494   3.067  1.00  0.00    -0.206 F 
HETATM   36  C   UNL     1      43.173 -19.686   2.102  1.00  0.00     0.043 A 
HETATM   37  C   UNL     1      42.716 -18.372   2.194  1.00  0.00     0.012 A 
ENDBRANCH   6  31
TORSDOF 4
ENDMDL
MODEL 5
REMARK VINA RESULT:      -9.7      4.162     10.222
REMARK  4 active torsions:
REMARK  status: ('A' for Active; 'I' for Inactive)
REMARK    1  A    between atoms: N_7  and  N_8 
REMARK       I    between atoms: N_8  and  C_9 
REMARK    2  A    between atoms: C_9  and  C_10 
REMARK    3  A    between atoms: C_15  and  C_16 
REMARK    4  A    between atoms: C_24  and  C_25 
ROOT
HETATM    1  C   UNL     1      41.775 -10.975   5.665  1.00  0.00     0.150 A 
HETATM    2  N   UNL     1      42.330 -10.912   4.432  1.00  0.00    -0.165 NA
HETATM    3  N   UNL     1      42.257 -12.179   3.992  1.00  0.00    -0.240 N 
HETATM    4  C   UNL     1      41.768 -13.063   4.911  1.00  0.00     0.123 A 
HETATM    5  N   UNL     1      41.753 -14.390   4.668  1.00  0.00    -0.366 N 
HETATM    6  C   UNL     1      42.300 -14.967   3.443  1.00  0.00     0.118 C 
HETATM    7  C   UNL     1      43.309 -14.007   2.780  1.00  0.00     0.066 C 
HETATM    8  C   UNL     1      42.761 -12.573   2.692  1.00  0.00     0.221 C 
HETATM    9  C   UNL     1      41.388 -12.308   5.988  1.00  0.00     0.089 A 
HETATM   10  H   UNL     1      41.291 -15.042   5.303  1.00  0.00     0.161 HD
ENDROOT
BRANCH   1  11
HETATM   11  C   UNL     1      41.646  -9.792   6.530  1.00  0.00     0.292 C 
HETATM   12  N   UNL     1      41.630 -10.123   7.877  1.00  0.00    -0.241 N 
HETATM   13  H   UNL     1      41.706 -11.115   8.123  1.00  0.00     0.192 HD
HETATM   14  O   UNL     1      41.548  -8.656   6.074  1.00  0.00    -0.264 OA
BRANCH  12  15
HETATM   15  N   UNL     1      41.485  -9.166   8.839  1.00  0.00    -0.165 NA
HETATM   16  C   UNL     1      42.300  -9.220   9.842  1.00  0.00     0.157 A 
HETATM   17  C   UNL     1      42.314  -8.291  10.965  1.00  0.00     0.027 A 
HETATM   18  C   UNL     1      43.421 -10.229  10.122  1.00  0.00     0.277 A 
HETATM   19  C   UNL     1      41.523  -7.193  11.236  1.00  0.00     0.016 A 
HETATM   20  C   UNL     1      43.340  -8.703  11.814  1.00  0.00     0.048 A 
HETATM   21  C   UNL     1      41.792  -6.495  12.415  1.00  0.00     0.001 A 
HETATM   22  C   UNL     1      42.830  -6.906  13.277  1.00  0.00     0.002 A 
HETATM   23  C   UNL     1      43.619  -8.025  12.980  1.00  0.00     0.030 A 
HETATM   24  N   UNL     1      43.983  -9.833  11.317  1.00  0.00    -0.321 N 
HETATM   25  H   UNL     1      44.754 -10.318  11.753  1.00  0.00     0.169 HD
HETATM   26  O   UNL     1      43.714 -11.167   9.413  1.00  0.00    -0.266 OA
ENDBRANCH  12  15
ENDBRANCH   1  11
BRANCH   8  27
HETATM   27  C   UNL     1      41.673 -12.428   1.652  1.00  0.00     0.409 C 
HETATM   28  F   UNL     1      41.704 -13.408   0.724  1.00  0.00    -0.169 F 
HETATM   29  F   UNL     1      40.456 -12.502   2.251  1.00  0.00    -0.169 F 
HETATM   30  F   UNL     1      41.707 -11.244   1.002  1.00  0.00    -0.169 F 
ENDBRANCH   8  27
BRANCH   6  31
HETATM   31  C   UNL     1      42.968 -16.297   3.761  1.00  0.00    -0.035 A 
HETATM   32  C   UNL     1      43.217 -17.225   2.737  1.00  0.00     0.012 A 
HETATM   33  C   UNL     1      43.848 -18.439   3.020  1.00  0.00     0.043 A 
HETATM   34  C   UNL     1      44.235 -18.727   4.324  1.00  0.00     0.116 A 
HETATM   35  F   UNL     1      44.839 -19.891   4.591  1.00  0.00    -0.206 F 
HETATM   36  C   UNL     1      44.004 -17.824   5.353  1.00  0.00     0.043 A 
HETATM   37  C   UNL     1      43.375 -16.611   5.073  1.00  0.00     0.012 A 
ENDBRANCH   6  31
TORSDOF 4
ENDMDL
MODEL 6
REMARK VINA RESULT:      -9.6      6.782     11.017
REMARK  4 active torsions:
REMARK  status: ('A' for Active; 'I' for Inactive)
REMARK    1  A    between atoms: N_7  and  N_8 
REMARK       I    between atoms: N_8  and  C_9 
REMARK    2  A    between atoms: C_9  and  C_10 
REMARK    3  A    between atoms: C_15  and  C_16 
REMARK    4  A    between atoms: C_24  and  C_25 
ROOT
HETATM    1  C   UNL     1      40.083 -13.196   2.108  1.00  0.00     0.150 A 
HETATM    2  N   UNL     1      40.226 -13.213   3.454  1.00  0.00    -0.165 NA
HETATM    3  N   UNL     1      41.252 -14.057   3.649  1.00  0.00    -0.240 N 
HETATM    4  C   UNL     1      41.713 -14.649   2.507  1.00  0.00     0.123 A 
HETATM    5  N   UNL     1      42.652 -15.616   2.549  1.00  0.00    -0.366 N 
HETATM    6  C   UNL     1      43.194 -16.126   3.807  1.00  0.00     0.118 C 
HETATM    7  C   UNL     1      42.235 -15.839   4.981  1.00  0.00     0.066 C 
HETATM    8  C   UNL     1      41.741 -14.383   4.973  1.00  0.00     0.221 C 
HETATM    9  C   UNL     1      41.018 -14.069   1.480  1.00  0.00     0.089 A 
HETATM   10  H   UNL     1      43.077 -15.983   1.698  1.00  0.00     0.161 HD
ENDROOT
BRANCH   1  11
HETATM   11  C   UNL     1      39.052 -12.388   1.437  1.00  0.00     0.292 C 
HETATM   12  N   UNL     1      38.936 -12.695   0.090  1.00  0.00    -0.241 N 
HETATM   13  H   UNL     1      39.553 -13.422  -0.286  1.00  0.00     0.192 HD
HETATM   14  O   UNL     1      38.400 -11.534   2.033  1.00  0.00    -0.264 OA
BRANCH  12  15
HETATM   15  N   UNL     1      38.055 -12.030  -0.713  1.00  0.00    -0.165 NA
HETATM   16  C   UNL     1      38.558 -11.354  -1.695  1.00  0.00     0.157 A 
HETATM   17  C   UNL     1      37.790 -10.585  -2.667  1.00  0.00     0.027 A 
HETATM   18  C   UNL     1      40.029 -11.176  -2.092  1.00  0.00     0.277 A 
HETATM   19  C   UNL     1      36.430 -10.388  -2.787  1.00  0.00     0.016 A 
HETATM   20  C   UNL     1      38.710 -10.019  -3.547  1.00  0.00     0.048 A 
HETATM   21  C   UNL     1      35.998  -9.584  -3.845  1.00  0.00     0.001 A 
HETATM   22  C   UNL     1      36.925  -9.010  -4.740  1.00  0.00     0.002 A 
HETATM   23  C   UNL     1      38.301  -9.225  -4.597  1.00  0.00     0.030 A 
HETATM   24  N   UNL     1      40.015 -10.368  -3.208  1.00  0.00    -0.321 N 
HETATM   25  H   UNL     1      40.852 -10.080  -3.693  1.00  0.00     0.169 HD
HETATM   26  O   UNL     1      40.976 -11.662  -1.511  1.00  0.00    -0.266 OA
ENDBRANCH  12  15
ENDBRANCH   1  11
BRANCH   8  27
HETATM   27  C   UNL     1      42.816 -13.401   5.382  1.00  0.00     0.409 C 
HETATM   28  F   UNL     1      42.336 -12.378   6.119  1.00  0.00    -0.169 F 
HETATM   29  F   UNL     1      43.741 -14.032   6.151  1.00  0.00    -0.169 F 
HETATM   30  F   UNL     1      43.487 -12.875   4.334  1.00  0.00    -0.169 F 
ENDBRANCH   8  27
BRANCH   6  31
HETATM   31  C   UNL     1      43.444 -17.622   3.683  1.00  0.00    -0.035 A 
HETATM   32  C   UNL     1      43.168 -18.286   2.477  1.00  0.00     0.012 A 
HETATM   33  C   UNL     1      43.415 -19.656   2.352  1.00  0.00     0.043 A 
HETATM   34  C   UNL     1      43.939 -20.364   3.427  1.00  0.00     0.116 A 
HETATM   35  F   UNL     1      44.174 -21.675   3.302  1.00  0.00    -0.206 F 
HETATM   36  C   UNL     1      44.224 -19.728   4.628  1.00  0.00     0.043 A 
HETATM   37  C   UNL     1      43.981 -18.361   4.756  1.00  0.00     0.012 A 
ENDBRANCH   6  31
TORSDOF 4
ENDMDL
MODEL 7
REMARK VINA RESULT:      -9.5      6.844     10.712
REMARK  4 active torsions:
REMARK  status: ('A' for Active; 'I' for Inactive)
REMARK    1  A    between atoms: N_7  and  N_8 
REMARK       I    between atoms: N_8  and  C_9 
REMARK    2  A    between atoms: C_9  and  C_10 
REMARK    3  A    between atoms: C_15  and  C_16 
REMARK    4  A    between atoms: C_24  and  C_25 
ROOT
HETATM    1  C   UNL     1      41.616 -11.926   2.693  1.00  0.00     0.150 A 
HETATM    2  N   UNL     1      40.641 -12.503   3.433  1.00  0.00    -0.165 NA
HETATM    3  N   UNL     1      41.224 -13.618   3.903  1.00  0.00    -0.240 N 
HETATM    4  C   UNL     1      42.488 -13.830   3.430  1.00  0.00     0.123 A 
HETATM    5  N   UNL     1      43.158 -14.968   3.705  1.00  0.00    -0.366 N 
HETATM    6  C   UNL     1      42.564 -16.059   4.473  1.00  0.00     0.118 C 
HETATM    7  C   UNL     1      41.024 -15.980   4.448  1.00  0.00     0.066 C 
HETATM    8  C   UNL     1      40.519 -14.559   4.749  1.00  0.00     0.221 C 
HETATM    9  C   UNL     1      42.798 -12.721   2.689  1.00  0.00     0.089 A 
HETATM   10  H   UNL     1      44.138 -15.084   3.446  1.00  0.00     0.161 HD
ENDROOT
BRANCH   1  11
HETATM   11  C   UNL     1      41.411 -10.658   1.976  1.00  0.00     0.292 C 
HETATM   12  N   UNL     1      41.930 -10.689   0.690  1.00  0.00    -0.241 N 
HETATM   13  H   UNL     1      42.383 -11.555   0.382  1.00  0.00     0.192 HD
HETATM   14  O   UNL     1      40.856  -9.694   2.498  1.00  0.00    -0.264 OA
BRANCH  12  15
HETATM   15  N   UNL     1      41.868  -9.596  -0.124  1.00  0.00    -0.165 NA
HETATM   16  C   UNL     1      41.479  -9.797  -1.341  1.00  0.00     0.157 A 
HETATM   17  C   UNL     1      41.340  -8.765  -2.362  1.00  0.00     0.027 A 
HETATM   18  C   UNL     1      41.081 -11.112  -2.023  1.00  0.00     0.277 A 
HETATM   19  C   UNL     1      41.569  -7.406  -2.304  1.00  0.00     0.016 A 
HETATM   20  C   UNL     1      40.899  -9.403  -3.519  1.00  0.00     0.048 A 
HETATM   21  C   UNL     1      41.338  -6.676  -3.473  1.00  0.00     0.001 A 
HETATM   22  C   UNL     1      40.889  -7.315  -4.647  1.00  0.00     0.002 A 
HETATM   23  C   UNL     1      40.665  -8.697  -4.680  1.00  0.00     0.030 A 
HETATM   24  N   UNL     1      40.748 -10.772  -3.316  1.00  0.00    -0.321 N 
HETATM   25  H   UNL     1      40.443 -11.444  -4.004  1.00  0.00     0.169 HD
HETATM   26  O   UNL     1      41.078 -12.203  -1.494  1.00  0.00    -0.266 OA
ENDBRANCH  12  15
ENDBRANCH   1  11
BRANCH   8  27
HETATM   27  C   UNL     1      40.690 -14.176   6.201  1.00  0.00     0.409 C 
HETATM   28  F   UNL     1      39.836 -13.205   6.590  1.00  0.00    -0.169 F 
HETATM   29  F   UNL     1      40.436 -15.252   6.991  1.00  0.00    -0.169 F 
HETATM   30  F   UNL     1      41.942 -13.769   6.504  1.00  0.00    -0.169 F 
ENDBRANCH   8  27
BRANCH   6  31
HETATM   31  C   UNL     1      43.033 -17.392   3.909  1.00  0.00    -0.035 A 
HETATM   32  C   UNL     1      43.787 -18.269   4.706  1.00  0.00     0.012 A 
HETATM   33  C   UNL     1      44.203 -19.504   4.200  1.00  0.00     0.043 A 
HETATM   34  C   UNL     1      43.866 -19.866   2.901  1.00  0.00     0.116 A 
HETATM   35  F   UNL     1      44.267 -21.049   2.421  1.00  0.00    -0.206 F 
HETATM   36  C   UNL     1      43.119 -19.017   2.095  1.00  0.00     0.043 A 
HETATM   37  C   UNL     1      42.700 -17.786   2.598  1.00  0.00     0.012 A 
ENDBRANCH   6  31
TORSDOF 4
ENDMDL
MODEL 8
REMARK VINA RESULT:      -9.4      4.877     11.149
REMARK  4 active torsions:
REMARK  status: ('A' for Active; 'I' for Inactive)
REMARK    1  A    between atoms: N_7  and  N_8 
REMARK       I    between atoms: N_8  and  C_9 
REMARK    2  A    between atoms: C_9  and  C_10 
REMARK    3  A    between atoms: C_15  and  C_16 
REMARK    4  A    between atoms: C_24  and  C_25 
ROOT
HETATM    1  C   UNL     1      43.133 -12.692   4.292  1.00  0.00     0.150 A 
HETATM    2  N   UNL     1      42.483 -13.859   4.507  1.00  0.00    -0.165 NA
HETATM    3  N   UNL     1      42.049 -14.206   3.285  1.00  0.00    -0.240 N 
HETATM    4  C   UNL     1      42.309 -13.279   2.316  1.00  0.00     0.123 A 
HETATM    5  N   UNL     1      41.826 -13.418   1.064  1.00  0.00    -0.366 N 
HETATM    6  C   UNL     1      40.959 -14.529   0.680  1.00  0.00     0.118 C 
HETATM    7  C   UNL     1      40.276 -15.152   1.914  1.00  0.00     0.066 C 
HETATM    8  C   UNL     1      41.277 -15.409   3.053  1.00  0.00     0.221 C 
HETATM    9  C   UNL     1      43.064 -12.310   2.921  1.00  0.00     0.089 A 
HETATM   10  H   UNL     1      42.107 -12.788   0.312  1.00  0.00     0.161 HD
ENDROOT
BRANCH   1  11
HETATM   11  C   UNL     1      43.778 -11.940   5.379  1.00  0.00     0.292 C 
HETATM   12  N   UNL     1      43.108 -12.076   6.586  1.00  0.00    -0.241 N 
HETATM   13  H   UNL     1      42.267 -12.662   6.598  1.00  0.00     0.192 HD
HETATM   14  O   UNL     1      44.787 -11.262   5.196  1.00  0.00    -0.264 OA
BRANCH  12  15
HETATM   15  N   UNL     1      43.533 -11.427   7.708  1.00  0.00    -0.165 NA
HETATM   16  C   UNL     1      42.819 -10.424   8.107  1.00  0.00     0.157 A 
HETATM   17  C   UNL     1      43.098  -9.608   9.282  1.00  0.00     0.027 A 
HETATM   18  C   UNL     1      41.546  -9.837   7.486  1.00  0.00     0.277 A 
HETATM   19  C   UNL     1      44.119  -9.681  10.208  1.00  0.00     0.016 A 
HETATM   20  C   UNL     1      42.092  -8.646   9.351  1.00  0.00     0.048 A 
HETATM   21  C   UNL     1      44.107  -8.739  11.239  1.00  0.00     0.001 A 
HETATM   22  C   UNL     1      43.090  -7.764  11.314  1.00  0.00     0.002 A 
HETATM   23  C   UNL     1      42.065  -7.710  10.362  1.00  0.00     0.030 A 
HETATM   24  N   UNL     1      41.188  -8.785   8.301  1.00  0.00    -0.321 N 
HETATM   25  H   UNL     1      40.378  -8.207   8.135  1.00  0.00     0.169 HD
HETATM   26  O   UNL     1      41.003 -10.245   6.481  1.00  0.00    -0.266 OA
ENDBRANCH  12  15
ENDBRANCH   1  11
BRANCH   8  27
HETATM   27  C   UNL     1      42.203 -16.568   2.763  1.00  0.00     0.409 C 
HETATM   28  F   UNL     1      42.592 -17.219   3.880  1.00  0.00    -0.169 F 
HETATM   29  F   UNL     1      41.563 -17.482   1.987  1.00  0.00    -0.169 F 
HETATM   30  F   UNL     1      43.316 -16.209   2.087  1.00  0.00    -0.169 F 
ENDBRANCH   8  27
BRANCH   6  31
HETATM   31  C   UNL     1      39.913 -14.039  -0.311  1.00  0.00    -0.035 A 
HETATM   32  C   UNL     1      39.514 -14.858  -1.379  1.00  0.00     0.012 A 
HETATM   33  C   UNL     1      38.539 -14.422  -2.281  1.00  0.00     0.043 A 
HETATM   34  C   UNL     1      37.960 -13.169  -2.116  1.00  0.00     0.116 A 
HETATM   35  F   UNL     1      37.027 -12.754  -2.981  1.00  0.00    -0.206 F 
HETATM   36  C   UNL     1      38.335 -12.342  -1.065  1.00  0.00     0.043 A 
HETATM   37  C   UNL     1      39.306 -12.776  -0.163  1.00  0.00     0.012 A 
ENDBRANCH   6  31
TORSDOF 4
ENDMDL
MODEL 9
REMARK VINA RESULT:      -9.2      7.140     11.178
REMARK  4 active torsions:
REMARK  status: ('A' for Active; 'I' for Inactive)
REMARK    1  A    between atoms: N_7  and  N_8 
REMARK       I    between atoms: N_8  and  C_9 
REMARK    2  A    between atoms: C_9  and  C_10 
REMARK    3  A    between atoms: C_15  and  C_16 
REMARK    4  A    between atoms: C_24  and  C_25 
ROOT
HETATM    1  C   UNL     1      40.356 -13.083   1.214  1.00  0.00     0.150 A 
HETATM    2  N   UNL     1      39.882 -13.302   2.463  1.00  0.00    -0.165 NA
HETATM    3  N   UNL     1      40.803 -14.113   3.009  1.00  0.00    -0.240 N 
HETATM    4  C   UNL     1      41.791 -14.496   2.147  1.00  0.00     0.123 A 
HETATM    5  N   UNL     1      42.718 -15.409   2.504  1.00  0.00    -0.366 N 
HETATM    6  C   UNL     1      42.694 -16.081   3.802  1.00  0.00     0.118 C 
HETATM    7  C   UNL     1      41.285 -16.029   4.428  1.00  0.00     0.066 C 
HETATM    8  C   UNL     1      40.682 -14.616   4.362  1.00  0.00     0.221 C 
HETATM    9  C   UNL     1      41.567 -13.799   0.990  1.00  0.00     0.089 A 
HETATM   10  H   UNL     1      43.518 -15.617   1.907  1.00  0.00     0.161 HD
ENDROOT
BRANCH   1  11
HETATM   11  C   UNL     1      39.648 -12.234   0.243  1.00  0.00     0.292 C 
HETATM   12  N   UNL     1      40.353 -12.089  -0.943  1.00  0.00    -0.241 N 
HETATM   13  H   UNL     1      41.256 -12.567  -1.019  1.00  0.00     0.192 HD
HETATM   14  O   UNL     1      38.564 -11.714   0.496  1.00  0.00    -0.264 OA
BRANCH  12  15
HETATM   15  N   UNL     1      39.877 -11.311  -1.958  1.00  0.00    -0.165 NA
HETATM   16  C   UNL     1      40.451 -10.165  -2.132  1.00  0.00     0.157 A 
HETATM   17  C   UNL     1      40.097  -9.194  -3.161  1.00  0.00     0.027 A 
HETATM   18  C   UNL     1      41.603  -9.532  -1.342  1.00  0.00     0.277 A 
HETATM   19  C   UNL     1      39.130  -9.237  -4.144  1.00  0.00     0.016 A 
HETATM   20  C   UNL     1      40.954  -8.108  -2.999  1.00  0.00     0.048 A 
HETATM   21  C   UNL     1      39.040  -8.130  -4.991  1.00  0.00     0.001 A 
HETATM   22  C   UNL     1      39.907  -7.029  -4.835  1.00  0.00     0.002 A 
HETATM   23  C   UNL     1      40.879  -7.008  -3.827  1.00  0.00     0.030 A 
HETATM   24  N   UNL     1      41.832  -8.310  -1.938  1.00  0.00    -0.321 N 
HETATM   25  H   UNL     1      42.544  -7.667  -1.625  1.00  0.00     0.169 HD
HETATM   26  O   UNL     1      42.164 -10.037  -0.394  1.00  0.00    -0.266 OA
ENDBRANCH  12  15
ENDBRANCH   1  11
BRANCH   8  27
HETATM   27  C   UNL     1      41.338 -13.657   5.329  1.00  0.00     0.409 C 
HETATM   28  F   UNL     1      42.408 -13.030   4.798  1.00  0.00    -0.169 F 
HETATM   29  F   UNL     1      40.454 -12.685   5.678  1.00  0.00    -0.169 F 
HETATM   30  F   UNL     1      41.733 -14.243   6.480  1.00  0.00    -0.169 F 
ENDBRANCH   8  27
BRANCH   6  31
HETATM   31  C   UNL     1      43.145 -17.524   3.635  1.00  0.00    -0.035 A 
HETATM   32  C   UNL     1      43.754 -18.201   4.705  1.00  0.00     0.012 A 
HETATM   33  C   UNL     1      44.151 -19.534   4.564  1.00  0.00     0.043 A 
HETATM   34  C   UNL     1      43.940 -20.193   3.359  1.00  0.00     0.116 A 
HETATM   35  F   UNL     1      44.322 -21.469   3.228  1.00  0.00    -0.206 F 
HETATM   36  C   UNL     1      43.336 -19.546   2.288  1.00  0.00     0.043 A 
HETATM   37  C   UNL     1      42.936 -18.217   2.426  1.00  0.00     0.012 A 
ENDBRANCH   6  31
TORSDOF 4
ENDMDL
MODEL 10
REMARK VINA RESULT:      -9.2      7.430     11.287
REMARK  4 active torsions:
REMARK  status: ('A' for Active; 'I' for Inactive)
REMARK    1  A    between atoms: N_7  and  N_8 
REMARK       I    between atoms: N_8  and  C_9 
REMARK    2  A    between atoms: C_9  and  C_10 
REMARK    3  A    between atoms: C_15  and  C_16 
REMARK    4  A    between atoms: C_24  and  C_25 
ROOT
HETATM    1  C   UNL     1      40.262 -13.656   0.808  1.00  0.00     0.150 A 
HETATM    2  N   UNL     1      40.283 -13.485   2.150  1.00  0.00    -0.165 NA
HETATM    3  N   UNL     1      41.284 -14.285   2.551  1.00  0.00    -0.240 N 
HETATM    4  C   UNL     1      41.844 -15.025   1.549  1.00  0.00     0.123 A 
HETATM    5  N   UNL     1      42.771 -15.969   1.809  1.00  0.00    -0.366 N 
HETATM    6  C   UNL     1      43.195 -16.296   3.169  1.00  0.00     0.118 C 
HETATM    7  C   UNL     1      42.135 -15.857   4.201  1.00  0.00     0.066 C 
HETATM    8  C   UNL     1      41.650 -14.420   3.946  1.00  0.00     0.221 C 
HETATM    9  C   UNL     1      41.246 -14.599   0.394  1.00  0.00     0.089 A 
HETATM   10  H   UNL     1      43.270 -16.447   1.058  1.00  0.00     0.161 HD
ENDROOT
BRANCH   1  11
HETATM   11  C   UNL     1      39.299 -12.958  -0.059  1.00  0.00     0.292 C 
HETATM   12  N   UNL     1      38.405 -12.181   0.664  1.00  0.00    -0.241 N 
HETATM   13  H   UNL     1      38.502 -12.172   1.684  1.00  0.00     0.192 HD
HETATM   14  O   UNL     1      39.305 -13.088  -1.280  1.00  0.00    -0.264 OA
BRANCH  12  15
HETATM   15  N   UNL     1      37.413 -11.481   0.041  1.00  0.00    -0.165 NA
HETATM   16  C   UNL     1      37.029 -10.384   0.610  1.00  0.00     0.157 A 
HETATM   17  C   UNL     1      35.993  -9.492   0.104  1.00  0.00     0.027 A 
HETATM   18  C   UNL     1      37.526  -9.747   1.914  1.00  0.00     0.277 A 
HETATM   19  C   UNL     1      35.207  -9.576  -1.027  1.00  0.00     0.016 A 
HETATM   20  C   UNL     1      35.895  -8.438   1.010  1.00  0.00     0.048 A 
HETATM   21  C   UNL     1      34.290  -8.543  -1.237  1.00  0.00     0.001 A 
HETATM   22  C   UNL     1      34.187  -7.471  -0.325  1.00  0.00     0.002 A 
HETATM   23  C   UNL     1      34.996  -7.411   0.816  1.00  0.00     0.030 A 
HETATM   24  N   UNL     1      36.792  -8.590   2.063  1.00  0.00    -0.321 N 
HETATM   25  H   UNL     1      36.907  -7.959   2.842  1.00  0.00     0.169 HD
HETATM   26  O   UNL     1      38.387 -10.205   2.634  1.00  0.00    -0.266 OA
ENDBRANCH  12  15
ENDBRANCH   1  11
BRANCH   8  27
HETATM   27  C   UNL     1      42.687 -13.382   4.310  1.00  0.00     0.409 C 
HETATM   28  F   UNL     1      43.433 -12.996   3.254  1.00  0.00    -0.169 F 
HETATM   29  F   UNL     1      42.071 -12.265   4.778  1.00  0.00    -0.169 F 
HETATM   30  F   UNL     1      43.532 -13.787   5.284  1.00  0.00    -0.169 F 
ENDBRANCH   8  27
BRANCH   6  31
HETATM   31  C   UNL     1      43.450 -17.792   3.277  1.00  0.00    -0.035 A 
HETATM   32  C   UNL     1      44.026 -18.327   4.440  1.00  0.00     0.012 A 
HETATM   33  C   UNL     1      44.243 -19.704   4.554  1.00  0.00     0.043 A 
HETATM   34  C   UNL     1      43.884 -20.546   3.508  1.00  0.00     0.116 A 
HETATM   35  F   UNL     1      44.094 -21.863   3.621  1.00  0.00    -0.206 F 
HETATM   36  C   UNL     1      43.309 -20.041   2.350  1.00  0.00     0.043 A 
HETATM   37  C   UNL     1      43.089 -18.668   2.234  1.00  0.00     0.012 A 
ENDBRANCH   6  31
TORSDOF 4
ENDMDL
