MODEL 1
REMARK VINA RESULT:     -10.4      0.000      0.000
REMARK  5 active torsions:
REMARK  status: ('A' for Active; 'I' for Inactive)
REMARK    1  A    between atoms: C_2  and  O_5 
REMARK    2  A    between atoms: O_5  and  C_6 
REMARK    3  A    between atoms: C_10  and  C_12 
REMARK    4  A    between atoms: C_16  and  C_17 
REMARK       I    between atoms: C_17  and  N_19 
REMARK    5  A    between atoms: N_19  and  C_20 
ROOT
HETATM    1  C   UNL     1      41.719 -15.225   5.098  1.00  0.00     0.061 C 
HETATM    2  C   UNL     1      40.990 -15.012   6.424  1.00  0.00     0.279 C 
HETATM    3  N   UNL     1      40.579 -13.606   6.337  1.00  0.00     0.085 N 
HETATM    4  C   UNL     1      41.762 -12.898   5.841  1.00  0.00     0.284 C 
HETATM    5  C   UNL     1      42.444 -13.881   4.888  1.00  0.00     0.116 C 
HETATM    6  H   UNL     1      40.309 -13.257   7.259  1.00  0.00     0.315 HD
ENDROOT
BRANCH   5   7
HETATM    7  C   UNL     1      42.396 -13.465   3.426  1.00  0.00     0.228 C 
HETATM    8  O   UNL     1      43.434 -13.145   2.852  1.00  0.00    -0.273 OA
HETATM    9  N   UNL     1      41.147 -13.528   2.841  1.00  0.00    -0.325 N 
HETATM   10  H   UNL     1      40.339 -13.599   3.457  1.00  0.00     0.169 HD
BRANCH   9  11
HETATM   11  C   UNL     1      40.850 -13.387   1.464  1.00  0.00     0.057 A 
HETATM   12  C   UNL     1      41.110 -12.204   0.760  1.00  0.00     0.043 A 
HETATM   13  C   UNL     1      40.847 -12.115  -0.612  1.00  0.00    -0.017 A 
HETATM   14  C   UNL     1      41.154 -10.892  -1.358  1.00  0.00     0.029 A 
HETATM   15  C   UNL     1      40.299 -13.218  -1.280  1.00  0.00     0.044 A 
HETATM   16  C   UNL     1      40.898 -10.842  -2.670  1.00  0.00     0.092 A 
HETATM   17  N   UNL     1      40.349 -11.910  -3.329  1.00  0.00    -0.333 N 
HETATM   18  C   UNL     1      40.019 -13.109  -2.735  1.00  0.00     0.256 A 
HETATM   19  H   UNL     1      40.157 -11.849  -4.324  1.00  0.00     0.168 HD
HETATM   20  O   UNL     1      39.527 -14.037  -3.367  1.00  0.00    -0.267 OA
HETATM   21  C   UNL     1      40.034 -14.408  -0.598  1.00  0.00     0.044 A 
HETATM   22  C   UNL     1      40.324 -14.491   0.764  1.00  0.00     0.061 A 
HETATM   23 CL   UNL     1      39.996 -15.983   1.579  1.00  0.00    -0.082 Cl
ENDBRANCH   9  11
ENDBRANCH   5   7
BRANCH   1  24
HETATM   24  C   UNL     1      42.531 -16.507   5.059  1.00  0.00    -0.049 A 
HETATM   25  C   UNL     1      42.812 -17.149   6.277  1.00  0.00     0.007 A 
HETATM   26  C   UNL     1      43.533 -18.342   6.311  1.00  0.00     0.003 A 
HETATM   27  C   UNL     1      43.983 -18.912   5.124  1.00  0.00     0.037 A 
HETATM   28  C   UNL     1      43.721 -18.298   3.898  1.00  0.00     0.078 A 
HETATM   29  C   UNL     1      43.012 -17.091   3.874  1.00  0.00     0.044 A 
BRANCH  28  30
HETATM   30  O   UNL     1      44.215 -18.970   2.816  1.00  0.00    -0.255 OA
BRANCH  30  31
HETATM   31  C   UNL     1      43.434 -20.021   2.275  1.00  0.00     0.530 C 
HETATM   32  F   UNL     1      42.194 -19.597   1.952  1.00  0.00    -0.144 F 
HETATM   33  F   UNL     1      43.314 -20.995   3.205  1.00  0.00    -0.144 F 
HETATM   34  F   UNL     1      44.028 -20.555   1.185  1.00  0.00    -0.144 F 
ENDBRANCH  30  31
ENDBRANCH  28  30
ENDBRANCH   1  24
TORSDOF 5
ENDMDL
MODEL 2
REMARK VINA RESULT:     -10.4      3.134      7.443
REMARK  5 active torsions:
REMARK  status: ('A' for Active; 'I' for Inactive)
REMARK    1  A    between atoms: C_2  and  O_5 
REMARK    2  A    between atoms: O_5  and  C_6 
REMARK    3  A    between atoms: C_10  and  C_12 
REMARK    4  A    between atoms: C_16  and  C_17 
REMARK       I    between atoms: C_17  and  N_19 
REMARK    5  A    between atoms: N_19  and  C_20 
ROOT
HETATM    1  C   UNL     1      42.464 -12.320   3.162  1.00  0.00     0.061 C 
HETATM    2  C   UNL     1      43.264 -11.150   3.734  1.00  0.00     0.279 C 
HETATM    3  N   UNL     1      43.711 -11.675   5.029  1.00  0.00     0.085 N 
HETATM    4  C   UNL     1      42.527 -12.318   5.604  1.00  0.00     0.284 C 
HETATM    5  C   UNL     1      41.769 -12.900   4.409  1.00  0.00     0.116 C 
HETATM    6  H   UNL     1      44.036 -10.914   5.628  1.00  0.00     0.315 HD
ENDROOT
BRANCH   5   7
HETATM    7  C   UNL     1      41.758 -14.420   4.362  1.00  0.00     0.228 C 
HETATM    8  O   UNL     1      40.698 -15.023   4.514  1.00  0.00    -0.273 OA
HETATM    9  N   UNL     1      42.979 -15.007   4.097  1.00  0.00    -0.325 N 
HETATM   10  H   UNL     1      43.813 -14.430   4.199  1.00  0.00     0.169 HD
BRANCH   9  11
HETATM   11  C   UNL     1      43.217 -16.372   3.808  1.00  0.00     0.057 A 
HETATM   12  C   UNL     1      43.530 -17.305   4.806  1.00  0.00     0.043 A 
HETATM   13  C   UNL     1      43.714 -18.655   4.490  1.00  0.00    -0.017 A 
HETATM   14  C   UNL     1      44.002 -19.639   5.537  1.00  0.00     0.029 A 
HETATM   15  C   UNL     1      43.601 -19.072   3.157  1.00  0.00     0.044 A 
HETATM   16  C   UNL     1      44.164 -20.924   5.203  1.00  0.00     0.092 A 
HETATM   17  N   UNL     1      44.071 -21.339   3.901  1.00  0.00    -0.333 N 
HETATM   18  C   UNL     1      43.804 -20.508   2.834  1.00  0.00     0.256 A 
HETATM   19  H   UNL     1      44.203 -22.318   3.669  1.00  0.00     0.168 HD
HETATM   20  O   UNL     1      43.731 -20.925   1.684  1.00  0.00    -0.267 OA
HETATM   21  C   UNL     1      43.287 -18.159   2.147  1.00  0.00     0.044 A 
HETATM   22  C   UNL     1      43.083 -16.820   2.479  1.00  0.00     0.061 A 
HETATM   23 CL   UNL     1      42.684 -15.715   1.207  1.00  0.00    -0.082 Cl
ENDBRANCH   9  11
ENDBRANCH   5   7
BRANCH   1  24
HETATM   24  C   UNL     1      41.615 -11.936   1.964  1.00  0.00    -0.049 A 
HETATM   25  C   UNL     1      41.789 -10.655   1.413  1.00  0.00     0.007 A 
HETATM   26  C   UNL     1      41.057 -10.246   0.299  1.00  0.00     0.003 A 
HETATM   27  C   UNL     1      40.140 -11.116  -0.284  1.00  0.00     0.037 A 
HETATM   28  C   UNL     1      39.943 -12.394   0.242  1.00  0.00     0.078 A 
HETATM   29  C   UNL     1      40.669 -12.791   1.372  1.00  0.00     0.044 A 
BRANCH  28  30
HETATM   30  O   UNL     1      39.019 -13.143  -0.432  1.00  0.00    -0.255 OA
BRANCH  30  31
HETATM   31  C   UNL     1      39.464 -14.326  -1.073  1.00  0.00     0.530 C 
HETATM   32  F   UNL     1      40.648 -14.135  -1.692  1.00  0.00    -0.144 F 
HETATM   33  F   UNL     1      38.554 -14.680  -2.008  1.00  0.00    -0.144 F 
HETATM   34  F   UNL     1      39.574 -15.343  -0.190  1.00  0.00    -0.144 F 
ENDBRANCH  30  31
ENDBRANCH  28  30
ENDBRANCH   1  24
TORSDOF 5
ENDMDL
MODEL 3
REMARK VINA RESULT:     -10.1      1.834      2.347
REMARK  5 active torsions:
REMARK  status: ('A' for Active; 'I' for Inactive)
REMARK    1  A    between atoms: C_2  and  O_5 
REMARK    2  A    between atoms: O_5  and  C_6 
REMARK    3  A    between atoms: C_10  and  C_12 
REMARK    4  A    between atoms: C_16  and  C_17 
REMARK       I    between atoms: C_17  and  N_19 
REMARK    5  A    between atoms: N_19  and  C_20 
ROOT
HETATM    1  C   UNL     1      41.917 -15.145   5.169  1.00  0.00     0.061 C 
HETATM    2  C   UNL     1      42.223 -14.333   6.427  1.00  0.00     0.279 C 
HETATM    3  N   UNL     1      41.689 -13.009   6.087  1.00  0.00     0.085 N 
HETATM    4  C   UNL     1      42.154 -12.755   4.722  1.00  0.00     0.284 C 
HETATM    5  C   UNL     1      42.154 -14.124   4.039  1.00  0.00     0.116 C 
HETATM    6  H   UNL     1      42.053 -12.304   6.731  1.00  0.00     0.315 HD
ENDROOT
BRANCH   5   7
HETATM    7  C   UNL     1      41.105 -14.275   2.949  1.00  0.00     0.228 C 
HETATM    8  O   UNL     1      40.133 -15.002   3.138  1.00  0.00    -0.273 OA
HETATM    9  N   UNL     1      41.325 -13.516   1.817  1.00  0.00    -0.325 N 
HETATM   10  H   UNL     1      42.255 -13.122   1.684  1.00  0.00     0.169 HD
BRANCH   9  11
HETATM   11  C   UNL     1      40.423 -13.315   0.744  1.00  0.00     0.057 A 
HETATM   12  C   UNL     1      40.274 -14.248  -0.292  1.00  0.00     0.043 A 
HETATM   13  C   UNL     1      39.340 -14.039  -1.313  1.00  0.00    -0.017 A 
HETATM   14  C   UNL     1      39.154 -15.030  -2.375  1.00  0.00     0.029 A 
HETATM   15  C   UNL     1      38.559 -12.875  -1.304  1.00  0.00     0.044 A 
HETATM   16  C   UNL     1      38.247 -14.805  -3.332  1.00  0.00     0.092 A 
HETATM   17  N   UNL     1      37.490 -13.664  -3.341  1.00  0.00    -0.333 N 
HETATM   18  C   UNL     1      37.575 -12.663  -2.396  1.00  0.00     0.256 A 
HETATM   19  H   UNL     1      36.812 -13.509  -4.080  1.00  0.00     0.168 HD
HETATM   20  O   UNL     1      36.877 -11.657  -2.447  1.00  0.00    -0.267 OA
HETATM   21  C   UNL     1      38.690 -11.934  -0.280  1.00  0.00     0.044 A 
HETATM   22  C   UNL     1      39.608 -12.166   0.744  1.00  0.00     0.061 A 
HETATM   23 CL   UNL     1      39.739 -10.988   2.006  1.00  0.00    -0.082 Cl
ENDBRANCH   9  11
ENDBRANCH   5   7
BRANCH   1  24
HETATM   24  C   UNL     1      42.651 -16.473   5.120  1.00  0.00    -0.049 A 
HETATM   25  C   UNL     1      42.844 -17.167   6.327  1.00  0.00     0.007 A 
HETATM   26  C   UNL     1      43.490 -18.402   6.350  1.00  0.00     0.003 A 
HETATM   27  C   UNL     1      43.952 -18.964   5.163  1.00  0.00     0.037 A 
HETATM   28  C   UNL     1      43.777 -18.299   3.949  1.00  0.00     0.078 A 
HETATM   29  C   UNL     1      43.143 -17.050   3.936  1.00  0.00     0.044 A 
BRANCH  28  30
HETATM   30  O   UNL     1      44.272 -18.967   2.865  1.00  0.00    -0.255 OA
BRANCH  30  31
HETATM   31  C   UNL     1      43.492 -20.016   2.320  1.00  0.00     0.530 C 
HETATM   32  F   UNL     1      43.404 -21.060   3.172  1.00  0.00    -0.144 F 
HETATM   33  F   UNL     1      44.082 -20.451   1.184  1.00  0.00    -0.144 F 
HETATM   34  F   UNL     1      42.250 -19.584   2.006  1.00  0.00    -0.144 F 
ENDBRANCH  30  31
ENDBRANCH  28  30
ENDBRANCH   1  24
TORSDOF 5
ENDMDL
MODEL 4
REMARK VINA RESULT:      -9.8      2.034      2.692
REMARK  5 active torsions:
REMARK  status: ('A' for Active; 'I' for Inactive)
REMARK    1  A    between atoms: C_2  and  O_5 
REMARK    2  A    between atoms: O_5  and  C_6 
REMARK    3  A    between atoms: C_10  and  C_12 
REMARK    4  A    between atoms: C_16  and  C_17 
REMARK       I    between atoms: C_17  and  N_19 
REMARK    5  A    between atoms: N_19  and  C_20 
ROOT
HETATM    1  C   UNL     1      41.551 -15.167   4.458  1.00  0.00     0.061 C 
HETATM    2  C   UNL     1      41.293 -15.249   5.963  1.00  0.00     0.279 C 
HETATM    3  N   UNL     1      40.886 -13.877   6.290  1.00  0.00     0.085 N 
HETATM    4  C   UNL     1      41.849 -13.023   5.591  1.00  0.00     0.284 C 
HETATM    5  C   UNL     1      42.178 -13.768   4.296  1.00  0.00     0.116 C 
HETATM    6  H   UNL     1      40.933 -13.725   7.299  1.00  0.00     0.315 HD
ENDROOT
BRANCH   5   7
HETATM    7  C   UNL     1      41.662 -13.088   3.039  1.00  0.00     0.228 C 
HETATM    8  O   UNL     1      42.364 -12.258   2.466  1.00  0.00    -0.273 OA
HETATM    9  N   UNL     1      40.419 -13.512   2.613  1.00  0.00    -0.325 N 
HETATM   10  H   UNL     1      39.847 -14.038   3.271  1.00  0.00     0.169 HD
BRANCH   9  11
HETATM   11  C   UNL     1      39.792 -13.195   1.383  1.00  0.00     0.057 A 
HETATM   12  C   UNL     1      39.916 -14.009   0.249  1.00  0.00     0.043 A 
HETATM   13  C   UNL     1      39.245 -13.690  -0.936  1.00  0.00    -0.017 A 
HETATM   14  C   UNL     1      39.341 -14.560  -2.111  1.00  0.00     0.029 A 
HETATM   15  C   UNL     1      38.456 -12.532  -0.991  1.00  0.00     0.044 A 
HETATM   16  C   UNL     1      38.680 -14.232  -3.227  1.00  0.00     0.092 A 
HETATM   17  N   UNL     1      37.919 -13.094  -3.295  1.00  0.00    -0.333 N 
HETATM   18  C   UNL     1      37.754 -12.202  -2.258  1.00  0.00     0.256 A 
HETATM   19  H   UNL     1      37.432 -12.860  -4.154  1.00  0.00     0.168 HD
HETATM   20  O   UNL     1      37.063 -11.195  -2.367  1.00  0.00    -0.267 OA
HETATM   21  C   UNL     1      38.318 -11.708   0.128  1.00  0.00     0.044 A 
HETATM   22  C   UNL     1      38.973 -12.051   1.311  1.00  0.00     0.061 A 
HETATM   23 CL   UNL     1      38.772 -11.016   2.685  1.00  0.00    -0.082 Cl
ENDBRANCH   9  11
ENDBRANCH   5   7
BRANCH   1  24
HETATM   24  C   UNL     1      42.297 -16.370   3.912  1.00  0.00    -0.049 A 
HETATM   25  C   UNL     1      42.187 -16.649   2.538  1.00  0.00     0.007 A 
HETATM   26  C   UNL     1      42.864 -17.725   1.967  1.00  0.00     0.003 A 
HETATM   27  C   UNL     1      43.664 -18.540   2.762  1.00  0.00     0.037 A 
HETATM   28  C   UNL     1      43.792 -18.291   4.130  1.00  0.00     0.078 A 
HETATM   29  C   UNL     1      43.094 -17.219   4.699  1.00  0.00     0.044 A 
BRANCH  28  30
HETATM   30  O   UNL     1      44.612 -19.165   4.786  1.00  0.00    -0.255 OA
BRANCH  30  31
HETATM   31  C   UNL     1      44.051 -20.380   5.250  1.00  0.00     0.530 C 
HETATM   32  F   UNL     1      43.277 -20.181   6.338  1.00  0.00    -0.144 F 
HETATM   33  F   UNL     1      45.055 -21.216   5.598  1.00  0.00    -0.144 F 
HETATM   34  F   UNL     1      43.325 -20.980   4.282  1.00  0.00    -0.144 F 
ENDBRANCH  30  31
ENDBRANCH  28  30
ENDBRANCH   1  24
TORSDOF 5
ENDMDL
MODEL 5
REMARK VINA RESULT:      -9.8      5.481      8.443
REMARK  5 active torsions:
REMARK  status: ('A' for Active; 'I' for Inactive)
REMARK    1  A    between atoms: C_2  and  O_5 
REMARK    2  A    between atoms: O_5  and  C_6 
REMARK    3  A    between atoms: C_10  and  C_12 
REMARK    4  A    between atoms: C_16  and  C_17 
REMARK       I    between atoms: C_17  and  N_19 
REMARK    5  A    between atoms: N_19  and  C_20 
ROOT
HETATM    1  C   UNL     1      42.009 -11.999   5.311  1.00  0.00     0.061 C 
HETATM    2  C   UNL     1      41.170 -10.755   5.016  1.00  0.00     0.279 C 
HETATM    3  N   UNL     1      40.176 -11.262   4.063  1.00  0.00     0.085 N 
HETATM    4  C   UNL     1      40.944 -12.071   3.113  1.00  0.00     0.284 C 
HETATM    5  C   UNL     1      42.062 -12.705   3.942  1.00  0.00     0.116 C 
HETATM    6  H   UNL     1      39.713 -10.486   3.586  1.00  0.00     0.315 HD
ENDROOT
BRANCH   5   7
HETATM    7  C   UNL     1      41.935 -14.211   4.108  1.00  0.00     0.228 C 
HETATM    8  O   UNL     1      40.843 -14.750   3.937  1.00  0.00    -0.273 OA
HETATM    9  N   UNL     1      43.111 -14.869   4.404  1.00  0.00    -0.325 N 
HETATM   10  H   UNL     1      43.898 -14.309   4.728  1.00  0.00     0.169 HD
BRANCH   9  11
HETATM   11  C   UNL     1      43.318 -16.270   4.419  1.00  0.00     0.057 A 
HETATM   12  C   UNL     1      43.240 -17.050   3.257  1.00  0.00     0.043 A 
HETATM   13  C   UNL     1      43.495 -18.425   3.300  1.00  0.00    -0.017 A 
HETATM   14  C   UNL     1      43.453 -19.235   2.080  1.00  0.00     0.029 A 
HETATM   15  C   UNL     1      43.814 -19.028   4.525  1.00  0.00     0.044 A 
HETATM   16  C   UNL     1      43.711 -20.546   2.154  1.00  0.00     0.092 A 
HETATM   17  N   UNL     1      44.008 -21.147   3.348  1.00  0.00    -0.333 N 
HETATM   18  C   UNL     1      44.077 -20.489   4.558  1.00  0.00     0.256 A 
HETATM   19  H   UNL     1      44.193 -22.144   3.383  1.00  0.00     0.168 HD
HETATM   20  O   UNL     1      44.345 -21.071   5.603  1.00  0.00    -0.267 OA
HETATM   21  C   UNL     1      43.898 -18.269   5.694  1.00  0.00     0.044 A 
HETATM   22  C   UNL     1      43.665 -16.895   5.633  1.00  0.00     0.061 A 
HETATM   23 CL   UNL     1      43.790 -15.979   7.097  1.00  0.00    -0.082 Cl
ENDBRANCH   9  11
ENDBRANCH   5   7
BRANCH   1  24
HETATM   24  C   UNL     1      43.312 -11.687   6.024  1.00  0.00    -0.049 A 
HETATM   25  C   UNL     1      44.480 -11.577   5.250  1.00  0.00     0.007 A 
HETATM   26  C   UNL     1      45.706 -11.270   5.838  1.00  0.00     0.003 A 
HETATM   27  C   UNL     1      45.782 -11.068   7.213  1.00  0.00     0.037 A 
HETATM   28  C   UNL     1      44.640 -11.173   8.010  1.00  0.00     0.078 A 
HETATM   29  C   UNL     1      43.416 -11.499   7.413  1.00  0.00     0.044 A 
BRANCH  28  30
HETATM   30  O   UNL     1      44.859 -10.944   9.339  1.00  0.00    -0.255 OA
BRANCH  30  31
HETATM   31  C   UNL     1      44.913  -9.598   9.779  1.00  0.00     0.530 C 
HETATM   32  F   UNL     1      44.546  -9.488  11.073  1.00  0.00    -0.144 F 
HETATM   33  F   UNL     1      44.055  -8.864   9.036  1.00  0.00    -0.144 F 
HETATM   34  F   UNL     1      46.153  -9.084   9.615  1.00  0.00    -0.144 F 
ENDBRANCH  30  31
ENDBRANCH  28  30
ENDBRANCH   1  24
TORSDOF 5
ENDMDL
MODEL 6
REMARK VINA RESULT:      -9.5      3.359      6.559
REMARK  5 active torsions:
REMARK  status: ('A' for Active; 'I' for Inactive)
REMARK    1  A    between atoms: C_2  and  O_5 
REMARK    2  A    between atoms: O_5  and  C_6 
REMARK    3  A    between atoms: C_10  and  C_12 
REMARK    4  A    between atoms: C_16  and  C_17 
REMARK       I    between atoms: C_17  and  N_19 
REMARK    5  A    between atoms: N_19  and  C_20 
ROOT
HETATM    1  C   UNL     1      41.564 -14.957   2.744  1.00  0.00     0.061 C 
HETATM    2  C   UNL     1      40.574 -15.387   1.662  1.00  0.00     0.279 C 
HETATM    3  N   UNL     1      39.766 -14.176   1.472  1.00  0.00     0.085 N 
HETATM    4  C   UNL     1      39.466 -13.708   2.827  1.00  0.00     0.284 C 
HETATM    5  C   UNL     1      40.704 -14.057   3.654  1.00  0.00     0.116 C 
HETATM    6  H   UNL     1      38.907 -14.399   0.967  1.00  0.00     0.315 HD
ENDROOT
BRANCH   5   7
HETATM    7  C   UNL     1      41.499 -12.849   4.123  1.00  0.00     0.228 C 
HETATM    8  O   UNL     1      41.739 -11.938   3.335  1.00  0.00    -0.273 OA
HETATM    9  N   UNL     1      41.855 -12.865   5.457  1.00  0.00    -0.325 N 
HETATM   10  H   UNL     1      41.790 -13.752   5.953  1.00  0.00     0.169 HD
BRANCH   9  11
HETATM   11  C   UNL     1      42.419 -11.797   6.195  1.00  0.00     0.057 A 
HETATM   12  C   UNL     1      43.790 -11.726   6.480  1.00  0.00     0.043 A 
HETATM   13  C   UNL     1      44.321 -10.633   7.172  1.00  0.00    -0.017 A 
HETATM   14  C   UNL     1      45.758 -10.537   7.437  1.00  0.00     0.029 A 
HETATM   15  C   UNL     1      43.466  -9.607   7.599  1.00  0.00     0.044 A 
HETATM   16  C   UNL     1      46.236  -9.474   8.094  1.00  0.00     0.092 A 
HETATM   17  N   UNL     1      45.407  -8.475   8.529  1.00  0.00    -0.333 N 
HETATM   18  C   UNL     1      44.041  -8.454   8.338  1.00  0.00     0.256 A 
HETATM   19  H   UNL     1      45.789  -7.680   9.031  1.00  0.00     0.168 HD
HETATM   20  O   UNL     1      43.339  -7.537   8.747  1.00  0.00    -0.267 OA
HETATM   21  C   UNL     1      42.098  -9.657   7.324  1.00  0.00     0.044 A 
HETATM   22  C   UNL     1      41.585 -10.741   6.612  1.00  0.00     0.061 A 
HETATM   23 CL   UNL     1      39.887 -10.767   6.275  1.00  0.00    -0.082 Cl
ENDBRANCH   9  11
ENDBRANCH   5   7
BRANCH   1  24
HETATM   24  C   UNL     1      42.315 -16.120   3.366  1.00  0.00    -0.049 A 
HETATM   25  C   UNL     1      42.304 -16.242   4.766  1.00  0.00     0.007 A 
HETATM   26  C   UNL     1      42.954 -17.300   5.400  1.00  0.00     0.003 A 
HETATM   27  C   UNL     1      43.626 -18.254   4.641  1.00  0.00     0.037 A 
HETATM   28  C   UNL     1      43.657 -18.159   3.249  1.00  0.00     0.078 A 
HETATM   29  C   UNL     1      43.016 -17.084   2.620  1.00  0.00     0.044 A 
BRANCH  28  30
HETATM   30  O   UNL     1      44.345 -19.165   2.632  1.00  0.00    -0.255 OA
BRANCH  30  31
HETATM   31  C   UNL     1      43.640 -20.351   2.311  1.00  0.00     0.530 C 
HETATM   32  F   UNL     1      43.681 -21.240   3.326  1.00  0.00    -0.144 F 
HETATM   33  F   UNL     1      44.220 -20.922   1.231  1.00  0.00    -0.144 F 
HETATM   34  F   UNL     1      42.353 -20.080   1.999  1.00  0.00    -0.144 F 
ENDBRANCH  30  31
ENDBRANCH  28  30
ENDBRANCH   1  24
TORSDOF 5
ENDMDL
MODEL 7
REMARK VINA RESULT:      -9.2      2.070      2.739
REMARK  5 active torsions:
REMARK  status: ('A' for Active; 'I' for Inactive)
REMARK    1  A    between atoms: C_2  and  O_5 
REMARK    2  A    between atoms: O_5  and  C_6 
REMARK    3  A    between atoms: C_10  and  C_12 
REMARK    4  A    between atoms: C_16  and  C_17 
REMARK       I    between atoms: C_17  and  N_19 
REMARK    5  A    between atoms: N_19  and  C_20 
ROOT
HETATM    1  C   UNL     1      41.289 -12.544   4.714  1.00  0.00     0.061 C 
HETATM    2  C   UNL     1      41.392 -11.728   6.001  1.00  0.00     0.279 C 
HETATM    3  N   UNL     1      41.465 -10.351   5.499  1.00  0.00     0.085 N 
HETATM    4  C   UNL     1      42.424 -10.404   4.393  1.00  0.00     0.284 C 
HETATM    5  C   UNL     1      42.214 -11.776   3.749  1.00  0.00     0.116 C 
HETATM    6  H   UNL     1      41.795  -9.722   6.233  1.00  0.00     0.315 HD
ENDROOT
BRANCH   5   7
HETATM    7  C   UNL     1      41.612 -11.722   2.354  1.00  0.00     0.228 C 
HETATM    8  O   UNL     1      42.174 -11.071   1.476  1.00  0.00    -0.273 OA
HETATM    9  N   UNL     1      40.467 -12.473   2.181  1.00  0.00    -0.325 N 
HETATM   10  H   UNL     1      39.981 -12.794   3.016  1.00  0.00     0.169 HD
BRANCH   9  11
HETATM   11  C   UNL     1      39.818 -12.757   0.955  1.00  0.00     0.057 A 
HETATM   12  C   UNL     1      38.908 -11.867   0.367  1.00  0.00     0.043 A 
HETATM   13  C   UNL     1      38.320 -12.159  -0.868  1.00  0.00    -0.017 A 
HETATM   14  C   UNL     1      37.398 -11.213  -1.503  1.00  0.00     0.029 A 
HETATM   15  C   UNL     1      38.633 -13.363  -1.513  1.00  0.00     0.044 A 
HETATM   16  C   UNL     1      36.859 -11.518  -2.689  1.00  0.00     0.092 A 
HETATM   17  N   UNL     1      37.147 -12.699  -3.320  1.00  0.00    -0.333 N 
HETATM   18  C   UNL     1      37.997 -13.663  -2.822  1.00  0.00     0.256 A 
HETATM   19  H   UNL     1      36.722 -12.913  -4.216  1.00  0.00     0.168 HD
HETATM   20  O   UNL     1      38.224 -14.707  -3.423  1.00  0.00    -0.267 OA
HETATM   21  C   UNL     1      39.539 -14.262  -0.946  1.00  0.00     0.044 A 
HETATM   22  C   UNL     1      40.137 -13.949   0.274  1.00  0.00     0.061 A 
HETATM   23 CL   UNL     1      41.265 -15.078   0.946  1.00  0.00    -0.082 Cl
ENDBRANCH   9  11
ENDBRANCH   5   7
BRANCH   1  24
HETATM   24  C   UNL     1      41.524 -14.029   4.925  1.00  0.00    -0.049 A 
HETATM   25  C   UNL     1      40.646 -14.723   5.774  1.00  0.00     0.007 A 
HETATM   26  C   UNL     1      40.791 -16.092   5.993  1.00  0.00     0.003 A 
HETATM   27  C   UNL     1      41.819 -16.789   5.364  1.00  0.00     0.037 A 
HETATM   28  C   UNL     1      42.709 -16.127   4.517  1.00  0.00     0.078 A 
HETATM   29  C   UNL     1      42.567 -14.748   4.315  1.00  0.00     0.044 A 
BRANCH  28  30
HETATM   30  O   UNL     1      43.662 -16.934   3.963  1.00  0.00    -0.255 OA
BRANCH  30  31
HETATM   31  C   UNL     1      43.400 -17.489   2.686  1.00  0.00     0.530 C 
HETATM   32  F   UNL     1      44.095 -18.631   2.494  1.00  0.00    -0.144 F 
HETATM   33  F   UNL     1      43.782 -16.602   1.740  1.00  0.00    -0.144 F 
HETATM   34  F   UNL     1      42.080 -17.730   2.524  1.00  0.00    -0.144 F 
ENDBRANCH  30  31
ENDBRANCH  28  30
ENDBRANCH   1  24
TORSDOF 5
ENDMDL
MODEL 8
REMARK VINA RESULT:      -9.2      3.908      6.971
REMARK  5 active torsions:
REMARK  status: ('A' for Active; 'I' for Inactive)
REMARK    1  A    between atoms: C_2  and  O_5 
REMARK    2  A    between atoms: O_5  and  C_6 
REMARK    3  A    between atoms: C_10  and  C_12 
REMARK    4  A    between atoms: C_16  and  C_17 
REMARK       I    between atoms: C_17  and  N_19 
REMARK    5  A    between atoms: N_19  and  C_20 
ROOT
HETATM    1  C   UNL     1      41.605 -15.080   2.555  1.00  0.00     0.061 C 
HETATM    2  C   UNL     1      40.623 -15.503   1.463  1.00  0.00     0.279 C 
HETATM    3  N   UNL     1      39.809 -14.296   1.284  1.00  0.00     0.085 N 
HETATM    4  C   UNL     1      39.499 -13.846   2.643  1.00  0.00     0.284 C 
HETATM    5  C   UNL     1      40.736 -14.197   3.472  1.00  0.00     0.116 C 
HETATM    6  H   UNL     1      38.953 -14.517   0.772  1.00  0.00     0.315 HD
ENDROOT
BRANCH   5   7
HETATM    7  C   UNL     1      41.521 -12.990   3.959  1.00  0.00     0.228 C 
HETATM    8  O   UNL     1      41.760 -12.068   3.183  1.00  0.00    -0.273 OA
HETATM    9  N   UNL     1      41.870 -13.019   5.295  1.00  0.00    -0.325 N 
HETATM   10  H   UNL     1      41.807 -13.912   5.781  1.00  0.00     0.169 HD
BRANCH   9  11
HETATM   11  C   UNL     1      42.423 -11.956   6.048  1.00  0.00     0.057 A 
HETATM   12  C   UNL     1      43.794 -11.873   6.330  1.00  0.00     0.043 A 
HETATM   13  C   UNL     1      44.314 -10.784   7.038  1.00  0.00    -0.017 A 
HETATM   14  C   UNL     1      45.751 -10.676   7.300  1.00  0.00     0.029 A 
HETATM   15  C   UNL     1      43.448  -9.777   7.484  1.00  0.00     0.044 A 
HETATM   16  C   UNL     1      46.218  -9.618   7.972  1.00  0.00     0.092 A 
HETATM   17  N   UNL     1      45.378  -8.636   8.426  1.00  0.00    -0.333 N 
HETATM   18  C   UNL     1      44.012  -8.629   8.240  1.00  0.00     0.256 A 
HETATM   19  H   UNL     1      45.752  -7.845   8.940  1.00  0.00     0.168 HD
HETATM   20  O   UNL     1      43.300  -7.727   8.667  1.00  0.00    -0.267 OA
HETATM   21  C   UNL     1      42.079  -9.839   7.213  1.00  0.00     0.044 A 
HETATM   22  C   UNL     1      41.577 -10.917   6.485  1.00  0.00     0.061 A 
HETATM   23 CL   UNL     1      39.878 -10.959   6.154  1.00  0.00    -0.082 Cl
ENDBRANCH   9  11
ENDBRANCH   5   7
BRANCH   1  24
HETATM   24  C   UNL     1      42.361 -16.246   3.166  1.00  0.00    -0.049 A 
HETATM   25  C   UNL     1      42.942 -17.186   2.297  1.00  0.00     0.007 A 
HETATM   26  C   UNL     1      43.669 -18.268   2.791  1.00  0.00     0.003 A 
HETATM   27  C   UNL     1      43.828 -18.426   4.165  1.00  0.00     0.037 A 
HETATM   28  C   UNL     1      43.261 -17.511   5.054  1.00  0.00     0.078 A 
HETATM   29  C   UNL     1      42.517 -16.436   4.550  1.00  0.00     0.044 A 
BRANCH  28  30
HETATM   30  O   UNL     1      43.501 -17.784   6.371  1.00  0.00    -0.255 OA
BRANCH  30  31
HETATM   31  C   UNL     1      44.014 -16.741   7.181  1.00  0.00     0.530 C 
HETATM   32  F   UNL     1      44.403 -17.202   8.389  1.00  0.00    -0.144 F 
HETATM   33  F   UNL     1      43.040 -15.824   7.377  1.00  0.00    -0.144 F 
HETATM   34  F   UNL     1      45.053 -16.124   6.577  1.00  0.00    -0.144 F 
ENDBRANCH  30  31
ENDBRANCH  28  30
ENDBRANCH   1  24
TORSDOF 5
ENDMDL
MODEL 9
REMARK VINA RESULT:      -9.0      6.840      9.225
REMARK  5 active torsions:
REMARK  status: ('A' for Active; 'I' for Inactive)
REMARK    1  A    between atoms: C_2  and  O_5 
REMARK    2  A    between atoms: O_5  and  C_6 
REMARK    3  A    between atoms: C_10  and  C_12 
REMARK    4  A    between atoms: C_16  and  C_17 
REMARK       I    between atoms: C_17  and  N_19 
REMARK    5  A    between atoms: N_19  and  C_20 
ROOT
HETATM    1  C   UNL     1      44.272  -9.567   8.127  1.00  0.00     0.061 C 
HETATM    2  C   UNL     1      45.483  -8.761   8.594  1.00  0.00     0.279 C 
HETATM    3  N   UNL     1      46.545  -9.238   7.702  1.00  0.00     0.085 N 
HETATM    4  C   UNL     1      46.392 -10.695   7.679  1.00  0.00     0.284 C 
HETATM    5  C   UNL     1      44.886 -10.940   7.788  1.00  0.00     0.116 C 
HETATM    6  H   UNL     1      47.462  -8.976   8.069  1.00  0.00     0.315 HD
ENDROOT
BRANCH   5   7
HETATM    7  C   UNL     1      44.258 -11.516   6.529  1.00  0.00     0.228 C 
HETATM    8  O   UNL     1      44.670 -11.158   5.428  1.00  0.00    -0.273 OA
HETATM    9  N   UNL     1      43.273 -12.458   6.745  1.00  0.00    -0.325 N 
HETATM   10  H   UNL     1      42.872 -12.518   7.680  1.00  0.00     0.169 HD
BRANCH   9  11
HETATM   11  C   UNL     1      42.666 -13.287   5.770  1.00  0.00     0.057 A 
HETATM   12  C   UNL     1      43.302 -14.425   5.255  1.00  0.00     0.043 A 
HETATM   13  C   UNL     1      42.654 -15.247   4.327  1.00  0.00    -0.017 A 
HETATM   14  C   UNL     1      43.300 -16.458   3.816  1.00  0.00     0.029 A 
HETATM   15  C   UNL     1      41.361 -14.915   3.898  1.00  0.00     0.044 A 
HETATM   16  C   UNL     1      42.650 -17.228   2.936  1.00  0.00     0.092 A 
HETATM   17  N   UNL     1      41.394 -16.904   2.499  1.00  0.00    -0.333 N 
HETATM   18  C   UNL     1      40.686 -15.793   2.908  1.00  0.00     0.256 A 
HETATM   19  H   UNL     1      40.921 -17.498   1.826  1.00  0.00     0.168 HD
HETATM   20  O   UNL     1      39.563 -15.544   2.487  1.00  0.00    -0.267 OA
HETATM   21  C   UNL     1      40.709 -13.787   4.400  1.00  0.00     0.044 A 
HETATM   22  C   UNL     1      41.357 -12.989   5.343  1.00  0.00     0.061 A 
HETATM   23 CL   UNL     1      40.517 -11.605   5.957  1.00  0.00    -0.082 Cl
ENDBRANCH   9  11
ENDBRANCH   5   7
BRANCH   1  24
HETATM   24  C   UNL     1      43.103  -9.509   9.093  1.00  0.00    -0.049 A 
HETATM   25  C   UNL     1      41.827  -9.232   8.572  1.00  0.00     0.007 A 
HETATM   26  C   UNL     1      40.707  -9.186   9.401  1.00  0.00     0.003 A 
HETATM   27  C   UNL     1      40.847  -9.418  10.767  1.00  0.00     0.037 A 
HETATM   28  C   UNL     1      42.101  -9.692  11.315  1.00  0.00     0.078 A 
HETATM   29  C   UNL     1      43.224  -9.719  10.478  1.00  0.00     0.044 A 
BRANCH  28  30
HETATM   30  O   UNL     1      42.090  -9.905  12.664  1.00  0.00    -0.255 OA
BRANCH  30  31
HETATM   31  C   UNL     1      42.314  -8.793  13.513  1.00  0.00     0.530 C 
HETATM   32  F   UNL     1      42.257  -9.147  14.814  1.00  0.00    -0.144 F 
HETATM   33  F   UNL     1      41.350  -7.873  13.286  1.00  0.00    -0.144 F 
HETATM   34  F   UNL     1      43.509  -8.217  13.253  1.00  0.00    -0.144 F 
ENDBRANCH  30  31
ENDBRANCH  28  30
ENDBRANCH   1  24
TORSDOF 5
ENDMDL
MODEL 10
REMARK VINA RESULT:      -8.7      3.948      6.850
REMARK  5 active torsions:
REMARK  status: ('A' for Active; 'I' for Inactive)
REMARK    1  A    between atoms: C_2  and  O_5 
REMARK    2  A    between atoms: O_5  and  C_6 
REMARK    3  A    between atoms: C_10  and  C_12 
REMARK    4  A    between atoms: C_16  and  C_17 
REMARK       I    between atoms: C_17  and  N_19 
REMARK    5  A    between atoms: N_19  and  C_20 
ROOT
HETATM    1  C   UNL     1      41.616 -15.126   2.625  1.00  0.00     0.061 C 
HETATM    2  C   UNL     1      40.645 -15.587   1.539  1.00  0.00     0.279 C 
HETATM    3  N   UNL     1      39.817 -14.394   1.327  1.00  0.00     0.085 N 
HETATM    4  C   UNL     1      39.495 -13.915   2.673  1.00  0.00     0.284 C 
HETATM    5  C   UNL     1      40.732 -14.232   3.516  1.00  0.00     0.116 C 
HETATM    6  H   UNL     1      38.966 -14.639   0.816  1.00  0.00     0.315 HD
ENDROOT
BRANCH   5   7
HETATM    7  C   UNL     1      41.499 -13.003   3.978  1.00  0.00     0.228 C 
HETATM    8  O   UNL     1      42.053 -12.286   3.148  1.00  0.00    -0.273 OA
HETATM    9  N   UNL     1      41.466 -12.771   5.338  1.00  0.00    -0.325 N 
HETATM   10  H   UNL     1      41.163 -13.534   5.942  1.00  0.00     0.169 HD
BRANCH   9  11
HETATM   11  C   UNL     1      41.923 -11.611   6.010  1.00  0.00     0.057 A 
HETATM   12  C   UNL     1      41.138 -10.455   6.123  1.00  0.00     0.043 A 
HETATM   13  C   UNL     1      41.602  -9.343   6.834  1.00  0.00    -0.017 A 
HETATM   14  C   UNL     1      40.769  -8.148   6.987  1.00  0.00     0.029 A 
HETATM   15  C   UNL     1      42.874  -9.383   7.422  1.00  0.00     0.044 A 
HETATM   16  C   UNL     1      41.239  -7.105   7.680  1.00  0.00     0.092 A 
HETATM   17  N   UNL     1      42.486  -7.128   8.245  1.00  0.00    -0.333 N 
HETATM   18  C   UNL     1      43.358  -8.194   8.169  1.00  0.00     0.256 A 
HETATM   19  H   UNL     1      42.826  -6.323   8.761  1.00  0.00     0.168 HD
HETATM   20  O   UNL     1      44.467  -8.168   8.690  1.00  0.00    -0.267 OA
HETATM   21  C   UNL     1      43.671 -10.526   7.322  1.00  0.00     0.044 A 
HETATM   22  C   UNL     1      43.187 -11.637   6.632  1.00  0.00     0.061 A 
HETATM   23 CL   UNL     1      44.193 -13.042   6.536  1.00  0.00    -0.082 Cl
ENDBRANCH   9  11
ENDBRANCH   5   7
BRANCH   1  24
HETATM   24  C   UNL     1      42.383 -16.267   3.267  1.00  0.00    -0.049 A 
HETATM   25  C   UNL     1      43.035 -17.183   2.424  1.00  0.00     0.007 A 
HETATM   26  C   UNL     1      43.776 -18.241   2.949  1.00  0.00     0.003 A 
HETATM   27  C   UNL     1      43.877 -18.399   4.328  1.00  0.00     0.037 A 
HETATM   28  C   UNL     1      43.239 -17.507   5.192  1.00  0.00     0.078 A 
HETATM   29  C   UNL     1      42.482 -16.457   4.657  1.00  0.00     0.044 A 
BRANCH  28  30
HETATM   30  O   UNL     1      43.427 -17.777   6.518  1.00  0.00    -0.255 OA
BRANCH  30  31
HETATM   31  C   UNL     1      43.915 -16.734   7.344  1.00  0.00     0.530 C 
HETATM   32  F   UNL     1      42.974 -15.788   7.551  1.00  0.00    -0.144 F 
HETATM   33  F   UNL     1      44.968 -16.150   6.728  1.00  0.00    -0.144 F 
HETATM   34  F   UNL     1      44.341 -17.216   8.532  1.00  0.00    -0.144 F 
ENDBRANCH  30  31
ENDBRANCH  28  30
ENDBRANCH   1  24
TORSDOF 5
ENDMDL
