MODEL 1
REMARK VINA RESULT:      -9.3      0.000      0.000
REMARK  8 active torsions:
REMARK  status: ('A' for Active; 'I' for Inactive)
REMARK    1  A    between atoms: C_3  and  O_4 
REMARK    2  A    between atoms: C_11  and  C_12 
REMARK    3  A    between atoms: C_12  and  C_13 
REMARK    4  A    between atoms: C_13  and  S_14 
REMARK    5  A    between atoms: S_14  and  C_15 
REMARK    6  A    between atoms: N_16  and  C_17 
REMARK    7  A    between atoms: C_18  and  O_19 
REMARK    8  A    between atoms: C_25  and  N_26 
ROOT
HETATM    1  C   UNL     1      43.534 -11.478   4.102  1.00  0.00     0.197 A 
HETATM    2  N   UNL     1      43.145 -10.944   5.319  1.00  0.00    -0.259 N 
HETATM    3  C   UNL     1      44.347 -10.840   6.036  1.00  0.00     0.211 A 
HETATM    4  N   UNL     1      45.337 -11.266   5.271  1.00  0.00    -0.116 NA
HETATM    5  N   UNL     1      44.836 -11.640   4.059  1.00  0.00    -0.121 NA
ENDROOT
BRANCH   1   6
HETATM    6  S   UNL     1      42.453 -12.058   2.869  1.00  0.00    -0.082 SA
BRANCH   6   7
HETATM    7  C   UNL     1      43.442 -13.451   2.252  1.00  0.00     0.166 C 
BRANCH   7   8
HETATM    8  C   UNL     1      42.636 -14.730   2.136  1.00  0.00     0.169 C 
HETATM    9  O   UNL     1      41.689 -14.876   1.364  1.00  0.00    -0.291 OA
BRANCH   8  10
HETATM   10  C   UNL     1      43.001 -15.864   3.043  1.00  0.00     0.011 A 
HETATM   11  C   UNL     1      43.244 -15.675   4.409  1.00  0.00     0.017 A 
HETATM   12  C   UNL     1      43.623 -16.742   5.233  1.00  0.00     0.031 A 
HETATM   13  C   UNL     1      43.739 -18.004   4.645  1.00  0.00     0.045 A 
HETATM   14  N   UNL     1      44.097 -19.210   5.198  1.00  0.00    -0.336 N 
HETATM   15  C   UNL     1      43.484 -18.239   3.295  1.00  0.00     0.002 A 
HETATM   16  C   UNL     1      44.070 -20.198   4.255  1.00  0.00     0.147 A 
HETATM   17  H   UNL     1      44.346 -19.360   6.164  1.00  0.00     0.168 HD
HETATM   18  C   UNL     1      43.690 -19.638   3.050  1.00  0.00     0.001 A 
HETATM   19  C   UNL     1      43.511 -20.325   1.745  1.00  0.00     0.054 C 
HETATM   20  C   UNL     1      43.105 -17.149   2.484  1.00  0.00     0.029 A 
BRANCH  16  21
HETATM   21  O   UNL     1      44.385 -21.435   4.613  1.00  0.00    -0.346 OA
HETATM   22  H   UNL     1      43.564 -21.958   4.609  1.00  0.00     0.219 HD
ENDBRANCH  16  21
ENDBRANCH   8  10
ENDBRANCH   7   8
ENDBRANCH   6   7
ENDBRANCH   1   6
BRANCH   2  23
HETATM   23  C   UNL     1      41.833 -10.572   5.717  1.00  0.00     0.077 A 
HETATM   24  C   UNL     1      40.925 -11.520   6.217  1.00  0.00     0.095 A 
HETATM   25  C   UNL     1      39.667 -11.081   6.647  1.00  0.00     0.039 A 
HETATM   26  C   UNL     1      39.317  -9.729   6.574  1.00  0.00     0.003 A 
HETATM   27  C   UNL     1      40.214  -8.798   6.060  1.00  0.00     0.002 A 
HETATM   28  C   UNL     1      41.471  -9.216   5.628  1.00  0.00     0.033 A 
BRANCH  24  29
HETATM   29  O   UNL     1      41.295 -12.836   6.164  1.00  0.00    -0.354 OA
HETATM   30  C   UNL     1      40.307 -13.786   5.795  1.00  0.00     0.210 C 
ENDBRANCH  24  29
ENDBRANCH   2  23
BRANCH   3  31
HETATM   31  N   UNL     1      44.475 -10.358   7.316  1.00  0.00    -0.251 NA
HETATM   32  C   UNL     1      45.759  -9.742   7.679  1.00  0.00     0.098 C 
HETATM   33  C   UNL     1      45.598  -8.948   8.975  1.00  0.00     0.015 C 
HETATM   34  C   UNL     1      45.053  -9.826  10.099  1.00  0.00     0.002 C 
HETATM   35  C   UNL     1      43.767 -10.521   9.665  1.00  0.00     0.015 C 
HETATM   36  C   UNL     1      43.964 -11.275   8.351  1.00  0.00     0.098 C 
ENDBRANCH   3  31
TORSDOF 8
ENDMDL
MODEL 2
REMARK VINA RESULT:      -9.2      4.603      6.777
REMARK  8 active torsions:
REMARK  status: ('A' for Active; 'I' for Inactive)
REMARK    1  A    between atoms: C_3  and  O_4 
REMARK    2  A    between atoms: C_11  and  C_12 
REMARK    3  A    between atoms: C_12  and  C_13 
REMARK    4  A    between atoms: C_13  and  S_14 
REMARK    5  A    between atoms: S_14  and  C_15 
REMARK    6  A    between atoms: N_16  and  C_17 
REMARK    7  A    between atoms: C_18  and  O_19 
REMARK    8  A    between atoms: C_25  and  N_26 
ROOT
HETATM    1  C   UNL     1      40.976 -12.260   1.231  1.00  0.00     0.197 A 
HETATM    2  N   UNL     1      40.571 -11.763   0.004  1.00  0.00    -0.259 N 
HETATM    3  C   UNL     1      41.162 -10.492  -0.050  1.00  0.00     0.211 A 
HETATM    4  N   UNL     1      41.860 -10.299   1.055  1.00  0.00    -0.116 NA
HETATM    5  N   UNL     1      41.765 -11.408   1.842  1.00  0.00    -0.121 NA
ENDROOT
BRANCH   1   6
HETATM    6  S   UNL     1      40.369 -13.712   1.975  1.00  0.00    -0.082 SA
BRANCH   6   7
HETATM    7  C   UNL     1      41.543 -14.907   1.273  1.00  0.00     0.166 C 
BRANCH   7   8
HETATM    8  C   UNL     1      42.876 -14.905   1.995  1.00  0.00     0.169 C 
HETATM    9  O   UNL     1      43.755 -14.063   1.812  1.00  0.00    -0.291 OA
BRANCH   8  10
HETATM   10  C   UNL     1      43.142 -16.017   2.962  1.00  0.00     0.011 A 
HETATM   11  C   UNL     1      43.247 -15.796   4.341  1.00  0.00     0.017 A 
HETATM   12  C   UNL     1      43.533 -16.843   5.224  1.00  0.00     0.031 A 
HETATM   13  C   UNL     1      43.700 -18.120   4.682  1.00  0.00     0.045 A 
HETATM   14  N   UNL     1      43.992 -19.313   5.297  1.00  0.00    -0.336 N 
HETATM   15  C   UNL     1      43.581 -18.388   3.320  1.00  0.00     0.002 A 
HETATM   16  C   UNL     1      44.054 -20.324   4.381  1.00  0.00     0.147 A 
HETATM   17  H   UNL     1      44.142 -19.440   6.288  1.00  0.00     0.168 HD
HETATM   18  C   UNL     1      43.801 -19.793   3.131  1.00  0.00     0.001 A 
HETATM   19  C   UNL     1      43.750 -20.512   1.831  1.00  0.00     0.054 C 
HETATM   20  C   UNL     1      43.292 -17.317   2.448  1.00  0.00     0.029 A 
BRANCH  16  21
HETATM   21  O   UNL     1      44.323 -21.554   4.799  1.00  0.00    -0.346 OA
HETATM   22  H   UNL     1      45.274 -21.590   5.005  1.00  0.00     0.219 HD
ENDBRANCH  16  21
ENDBRANCH   8  10
ENDBRANCH   7   8
ENDBRANCH   6   7
ENDBRANCH   1   6
BRANCH   2  23
HETATM   23  C   UNL     1      39.767 -12.416  -0.968  1.00  0.00     0.077 A 
HETATM   24  C   UNL     1      38.373 -12.245  -0.998  1.00  0.00     0.095 A 
HETATM   25  C   UNL     1      37.644 -12.869  -2.017  1.00  0.00     0.039 A 
HETATM   26  C   UNL     1      38.285 -13.654  -2.981  1.00  0.00     0.003 A 
HETATM   27  C   UNL     1      39.663 -13.835  -2.933  1.00  0.00     0.002 A 
HETATM   28  C   UNL     1      40.407 -13.221  -1.928  1.00  0.00     0.033 A 
BRANCH  24  29
HETATM   29  O   UNL     1      37.802 -11.550   0.032  1.00  0.00    -0.354 OA
HETATM   30  C   UNL     1      36.842 -10.556  -0.294  1.00  0.00     0.210 C 
ENDBRANCH  24  29
ENDBRANCH   2  23
BRANCH   3  31
HETATM   31  N   UNL     1      41.048  -9.602  -1.091  1.00  0.00    -0.251 NA
HETATM   32  C   UNL     1      42.240  -8.813  -1.436  1.00  0.00     0.098 C 
HETATM   33  C   UNL     1      42.049  -8.173  -2.811  1.00  0.00     0.015 C 
HETATM   34  C   UNL     1      40.778  -7.329  -2.859  1.00  0.00     0.002 C 
HETATM   35  C   UNL     1      39.571  -8.147  -2.412  1.00  0.00     0.015 C 
HETATM   36  C   UNL     1      39.816  -8.793  -1.050  1.00  0.00     0.098 C 
ENDBRANCH   3  31
TORSDOF 8
ENDMDL
MODEL 3
REMARK VINA RESULT:      -9.0      2.617      4.117
REMARK  8 active torsions:
REMARK  status: ('A' for Active; 'I' for Inactive)
REMARK    1  A    between atoms: C_3  and  O_4 
REMARK    2  A    between atoms: C_11  and  C_12 
REMARK    3  A    between atoms: C_12  and  C_13 
REMARK    4  A    between atoms: C_13  and  S_14 
REMARK    5  A    between atoms: S_14  and  C_15 
REMARK    6  A    between atoms: N_16  and  C_17 
REMARK    7  A    between atoms: C_18  and  O_19 
REMARK    8  A    between atoms: C_25  and  N_26 
ROOT
HETATM    1  C   UNL     1      39.717 -13.810   3.065  1.00  0.00     0.197 A 
HETATM    2  N   UNL     1      40.184 -13.204   4.220  1.00  0.00    -0.259 N 
HETATM    3  C   UNL     1      39.646 -11.910   4.156  1.00  0.00     0.211 A 
HETATM    4  N   UNL     1      38.918 -11.804   3.058  1.00  0.00    -0.116 NA
HETATM    5  N   UNL     1      38.942 -12.993   2.391  1.00  0.00    -0.121 NA
ENDROOT
BRANCH   1   6
HETATM    6  S   UNL     1      40.239 -15.356   2.461  1.00  0.00    -0.082 SA
BRANCH   6   7
HETATM    7  C   UNL     1      41.591 -14.802   1.382  1.00  0.00     0.166 C 
BRANCH   7   8
HETATM    8  C   UNL     1      42.945 -14.878   2.061  1.00  0.00     0.169 C 
HETATM    9  O   UNL     1      43.801 -13.997   1.984  1.00  0.00    -0.291 OA
BRANCH   8  10
HETATM   10  C   UNL     1      43.261 -16.117   2.839  1.00  0.00     0.011 A 
HETATM   11  C   UNL     1      43.609 -16.076   4.195  1.00  0.00     0.017 A 
HETATM   12  C   UNL     1      43.938 -17.242   4.895  1.00  0.00     0.031 A 
HETATM   13  C   UNL     1      43.896 -18.451   4.196  1.00  0.00     0.045 A 
HETATM   14  N   UNL     1      44.174 -19.729   4.617  1.00  0.00    -0.336 N 
HETATM   15  C   UNL     1      43.532 -18.539   2.854  1.00  0.00     0.002 A 
HETATM   16  C   UNL     1      43.992 -20.621   3.599  1.00  0.00     0.147 A 
HETATM   17  H   UNL     1      44.470 -19.988   5.546  1.00  0.00     0.168 HD
HETATM   18  C   UNL     1      43.588 -19.922   2.477  1.00  0.00     0.001 A 
HETATM   19  C   UNL     1      43.260 -20.470   1.135  1.00  0.00     0.054 C 
HETATM   20  C   UNL     1      43.205 -17.351   2.168  1.00  0.00     0.029 A 
BRANCH  16  21
HETATM   21  O   UNL     1      44.211 -21.909   3.827  1.00  0.00    -0.346 OA
HETATM   22  H   UNL     1      44.926 -22.193   3.230  1.00  0.00     0.219 HD
ENDBRANCH  16  21
ENDBRANCH   8  10
ENDBRANCH   7   8
ENDBRANCH   6   7
ENDBRANCH   1   6
BRANCH   2  23
HETATM   23  C   UNL     1      40.995 -13.786   5.231  1.00  0.00     0.077 A 
HETATM   24  C   UNL     1      42.269 -13.276   5.529  1.00  0.00     0.095 A 
HETATM   25  C   UNL     1      42.995 -13.857   6.576  1.00  0.00     0.039 A 
HETATM   26  C   UNL     1      42.468 -14.927   7.305  1.00  0.00     0.003 A 
HETATM   27  C   UNL     1      41.214 -15.440   6.992  1.00  0.00     0.002 A 
HETATM   28  C   UNL     1      40.476 -14.874   5.954  1.00  0.00     0.033 A 
BRANCH  24  29
HETATM   29  O   UNL     1      42.763 -12.298   4.710  1.00  0.00    -0.354 OA
HETATM   30  C   UNL     1      43.514 -11.253   5.309  1.00  0.00     0.210 C 
ENDBRANCH  24  29
ENDBRANCH   2  23
BRANCH   3  31
HETATM   31  N   UNL     1      39.832 -10.921   5.092  1.00  0.00    -0.251 NA
HETATM   32  C   UNL     1      38.885 -10.870   6.216  1.00  0.00     0.098 C 
HETATM   33  C   UNL     1      39.449  -9.976   7.320  1.00  0.00     0.015 C 
HETATM   34  C   UNL     1      39.777  -8.582   6.791  1.00  0.00     0.002 C 
HETATM   35  C   UNL     1      40.689  -8.667   5.573  1.00  0.00     0.015 C 
HETATM   36  C   UNL     1      40.104  -9.594   4.509  1.00  0.00     0.098 C 
ENDBRANCH   3  31
TORSDOF 8
ENDMDL
MODEL 4
REMARK VINA RESULT:      -8.9      3.385      8.361
REMARK  8 active torsions:
REMARK  status: ('A' for Active; 'I' for Inactive)
REMARK    1  A    between atoms: C_3  and  O_4 
REMARK    2  A    between atoms: C_11  and  C_12 
REMARK    3  A    between atoms: C_12  and  C_13 
REMARK    4  A    between atoms: C_13  and  S_14 
REMARK    5  A    between atoms: S_14  and  C_15 
REMARK    6  A    between atoms: N_16  and  C_17 
REMARK    7  A    between atoms: C_18  and  O_19 
REMARK    8  A    between atoms: C_25  and  N_26 
ROOT
HETATM    1  C   UNL     1      43.985 -11.998   5.523  1.00  0.00     0.197 A 
HETATM    2  N   UNL     1      43.028 -12.806   4.933  1.00  0.00    -0.259 N 
HETATM    3  C   UNL     1      42.989 -12.359   3.604  1.00  0.00     0.211 A 
HETATM    4  N   UNL     1      43.872 -11.387   3.455  1.00  0.00    -0.116 NA
HETATM    5  N   UNL     1      44.510 -11.178   4.642  1.00  0.00    -0.121 NA
ENDROOT
BRANCH   1   6
HETATM    6  S   UNL     1      44.315 -11.914   7.229  1.00  0.00    -0.082 SA
BRANCH   6   7
HETATM    7  C   UNL     1      45.673 -10.707   7.200  1.00  0.00     0.166 C 
BRANCH   7   8
HETATM    8  C   UNL     1      45.414  -9.518   8.105  1.00  0.00     0.169 C 
HETATM    9  O   UNL     1      45.975  -8.430   7.986  1.00  0.00    -0.291 OA
BRANCH   8  10
HETATM   10  C   UNL     1      44.439  -9.702   9.227  1.00  0.00     0.011 A 
HETATM   11  C   UNL     1      44.812 -10.273  10.450  1.00  0.00     0.017 A 
HETATM   12  C   UNL     1      43.877 -10.472  11.473  1.00  0.00     0.031 A 
HETATM   13  C   UNL     1      42.560 -10.068  11.234  1.00  0.00     0.045 A 
HETATM   14  N   UNL     1      41.449 -10.147  12.038  1.00  0.00    -0.336 N 
HETATM   15  C   UNL     1      42.153  -9.475  10.041  1.00  0.00     0.002 A 
HETATM   16  C   UNL     1      40.360  -9.620  11.405  1.00  0.00     0.147 A 
HETATM   17  H   UNL     1      41.427 -10.536  12.969  1.00  0.00     0.168 HD
HETATM   18  C   UNL     1      40.753  -9.184  10.155  1.00  0.00     0.001 A 
HETATM   19  C   UNL     1      39.915  -8.532   9.115  1.00  0.00     0.054 C 
HETATM   20  C   UNL     1      43.112  -9.285   9.024  1.00  0.00     0.029 A 
BRANCH  16  21
HETATM   21  O   UNL     1      39.194  -9.608  12.037  1.00  0.00    -0.346 OA
HETATM   22  H   UNL     1      39.005  -8.686  12.285  1.00  0.00     0.219 HD
ENDBRANCH  16  21
ENDBRANCH   8  10
ENDBRANCH   7   8
ENDBRANCH   6   7
ENDBRANCH   1   6
BRANCH   2  23
HETATM   23  C   UNL     1      42.288 -13.853   5.545  1.00  0.00     0.077 A 
HETATM   24  C   UNL     1      40.960 -13.663   5.962  1.00  0.00     0.095 A 
HETATM   25  C   UNL     1      40.266 -14.751   6.505  1.00  0.00     0.039 A 
HETATM   26  C   UNL     1      40.882 -15.999   6.639  1.00  0.00     0.003 A 
HETATM   27  C   UNL     1      42.204 -16.175   6.242  1.00  0.00     0.002 A 
HETATM   28  C   UNL     1      42.910 -15.105   5.699  1.00  0.00     0.033 A 
BRANCH  24  29
HETATM   29  O   UNL     1      40.455 -12.393   5.896  1.00  0.00    -0.354 OA
HETATM   30  C   UNL     1      39.453 -12.131   4.925  1.00  0.00     0.210 C 
ENDBRANCH  24  29
ENDBRANCH   2  23
BRANCH   3  31
HETATM   31  N   UNL     1      42.179 -12.863   2.615  1.00  0.00    -0.251 NA
HETATM   32  C   UNL     1      42.643 -14.068   1.912  1.00  0.00     0.098 C 
HETATM   33  C   UNL     1      41.482 -14.685   1.133  1.00  0.00     0.015 C 
HETATM   34  C   UNL     1      40.857 -13.674   0.174  1.00  0.00     0.002 C 
HETATM   35  C   UNL     1      40.465 -12.400   0.914  1.00  0.00     0.015 C 
HETATM   36  C   UNL     1      41.645 -11.834   1.703  1.00  0.00     0.098 C 
ENDBRANCH   3  31
TORSDOF 8
ENDMDL
MODEL 5
REMARK VINA RESULT:      -8.8      2.965      4.181
REMARK  8 active torsions:
REMARK  status: ('A' for Active; 'I' for Inactive)
REMARK    1  A    between atoms: C_3  and  O_4 
REMARK    2  A    between atoms: C_11  and  C_12 
REMARK    3  A    between atoms: C_12  and  C_13 
REMARK    4  A    between atoms: C_13  and  S_14 
REMARK    5  A    between atoms: S_14  and  C_15 
REMARK    6  A    between atoms: N_16  and  C_17 
REMARK    7  A    between atoms: C_18  and  O_19 
REMARK    8  A    between atoms: C_25  and  N_26 
ROOT
HETATM    1  C   UNL     1      43.597 -10.378   8.621  1.00  0.00     0.197 A 
HETATM    2  N   UNL     1      42.906  -9.441   9.371  1.00  0.00    -0.259 N 
HETATM    3  C   UNL     1      43.154  -9.830  10.696  1.00  0.00     0.211 A 
HETATM    4  N   UNL     1      43.940 -10.892  10.689  1.00  0.00    -0.116 NA
HETATM    5  N   UNL     1      44.236 -11.219   9.399  1.00  0.00    -0.121 NA
ENDROOT
BRANCH   1   6
HETATM    6  S   UNL     1      43.481 -10.564   6.895  1.00  0.00    -0.082 SA
BRANCH   6   7
HETATM    7  C   UNL     1      44.018 -12.294   6.756  1.00  0.00     0.166 C 
BRANCH   7   8
HETATM    8  C   UNL     1      42.943 -13.191   6.172  1.00  0.00     0.169 C 
HETATM    9  O   UNL     1      41.784 -12.831   5.972  1.00  0.00    -0.291 OA
BRANCH   8  10
HETATM   10  C   UNL     1      43.319 -14.605   5.853  1.00  0.00     0.011 A 
HETATM   11  C   UNL     1      43.915 -15.447   6.800  1.00  0.00     0.017 A 
HETATM   12  C   UNL     1      44.294 -16.754   6.472  1.00  0.00     0.031 A 
HETATM   13  C   UNL     1      44.047 -17.191   5.167  1.00  0.00     0.045 A 
HETATM   14  N   UNL     1      44.317 -18.400   4.571  1.00  0.00    -0.336 N 
HETATM   15  C   UNL     1      43.436 -16.394   4.202  1.00  0.00     0.002 A 
HETATM   16  C   UNL     1      43.893 -18.400   3.273  1.00  0.00     0.147 A 
HETATM   17  H   UNL     1      44.763 -19.186   5.019  1.00  0.00     0.168 HD
HETATM   18  C   UNL     1      43.334 -17.167   2.999  1.00  0.00     0.001 A 
HETATM   19  C   UNL     1      42.729 -16.708   1.721  1.00  0.00     0.054 C 
HETATM   20  C   UNL     1      43.062 -15.080   4.556  1.00  0.00     0.029 A 
BRANCH  16  21
HETATM   21  O   UNL     1      44.070 -19.492   2.541  1.00  0.00    -0.346 OA
HETATM   22  H   UNL     1      44.836 -19.335   1.962  1.00  0.00     0.219 HD
ENDBRANCH  16  21
ENDBRANCH   8  10
ENDBRANCH   7   8
ENDBRANCH   6   7
ENDBRANCH   1   6
BRANCH   2  23
HETATM   23  C   UNL     1      42.151  -8.338   8.890  1.00  0.00     0.077 A 
HETATM   24  C   UNL     1      40.754  -8.408   8.768  1.00  0.00     0.095 A 
HETATM   25  C   UNL     1      40.061  -7.267   8.343  1.00  0.00     0.039 A 
HETATM   26  C   UNL     1      40.744  -6.086   8.039  1.00  0.00     0.003 A 
HETATM   27  C   UNL     1      42.130  -6.030   8.143  1.00  0.00     0.002 A 
HETATM   28  C   UNL     1      42.837  -7.154   8.565  1.00  0.00     0.033 A 
BRANCH  24  29
HETATM   29  O   UNL     1      40.162  -9.622   8.983  1.00  0.00    -0.354 OA
HETATM   30  C   UNL     1      39.336  -9.760  10.130  1.00  0.00     0.210 C 
ENDBRANCH  24  29
ENDBRANCH   2  23
BRANCH   3  31
HETATM   31  N   UNL     1      42.673  -9.197  11.817  1.00  0.00    -0.251 NA
HETATM   32  C   UNL     1      43.568  -8.244  12.490  1.00  0.00     0.098 C 
HETATM   33  C   UNL     1      42.761  -7.383  13.462  1.00  0.00     0.015 C 
HETATM   34  C   UNL     1      41.996  -8.245  14.463  1.00  0.00     0.002 C 
HETATM   35  C   UNL     1      41.143  -9.283  13.741  1.00  0.00     0.015 C 
HETATM   36  C   UNL     1      41.981 -10.099  12.758  1.00  0.00     0.098 C 
ENDBRANCH   3  31
TORSDOF 8
ENDMDL
MODEL 6
REMARK VINA RESULT:      -8.4      2.724      4.081
REMARK  8 active torsions:
REMARK  status: ('A' for Active; 'I' for Inactive)
REMARK    1  A    between atoms: C_3  and  O_4 
REMARK    2  A    between atoms: C_11  and  C_12 
REMARK    3  A    between atoms: C_12  and  C_13 
REMARK    4  A    between atoms: C_13  and  S_14 
REMARK    5  A    between atoms: S_14  and  C_15 
REMARK    6  A    between atoms: N_16  and  C_17 
REMARK    7  A    between atoms: C_18  and  O_19 
REMARK    8  A    between atoms: C_25  and  N_26 
ROOT
HETATM    1  C   UNL     1      43.607 -10.561   7.983  1.00  0.00     0.197 A 
HETATM    2  N   UNL     1      42.812  -9.770   8.795  1.00  0.00    -0.259 N 
HETATM    3  C   UNL     1      43.307 -10.015  10.084  1.00  0.00     0.211 A 
HETATM    4  N   UNL     1      44.316 -10.864   9.999  1.00  0.00    -0.116 NA
HETATM    5  N   UNL     1      44.519 -11.186   8.690  1.00  0.00    -0.121 NA
ENDROOT
BRANCH   1   6
HETATM    6  S   UNL     1      43.325 -10.866   6.293  1.00  0.00    -0.082 SA
BRANCH   6   7
HETATM    7  C   UNL     1      43.778 -12.624   6.239  1.00  0.00     0.166 C 
BRANCH   7   8
HETATM    8  C   UNL     1      42.618 -13.512   5.832  1.00  0.00     0.169 C 
HETATM    9  O   UNL     1      41.505 -13.469   6.356  1.00  0.00    -0.291 OA
BRANCH   8  10
HETATM   10  C   UNL     1      42.862 -14.518   4.750  1.00  0.00     0.011 A 
HETATM   11  C   UNL     1      42.787 -14.184   3.393  1.00  0.00     0.017 A 
HETATM   12  C   UNL     1      42.981 -15.148   2.396  1.00  0.00     0.031 A 
HETATM   13  C   UNL     1      43.262 -16.454   2.806  1.00  0.00     0.045 A 
HETATM   14  N   UNL     1      43.485 -17.587   2.062  1.00  0.00    -0.336 N 
HETATM   15  C   UNL     1      43.369 -16.823   4.145  1.00  0.00     0.002 A 
HETATM   16  C   UNL     1      43.736 -18.655   2.876  1.00  0.00     0.147 A 
HETATM   17  H   UNL     1      43.470 -17.639   1.054  1.00  0.00     0.168 HD
HETATM   18  C   UNL     1      43.676 -18.224   4.187  1.00  0.00     0.001 A 
HETATM   19  C   UNL     1      43.893 -19.028   5.418  1.00  0.00     0.054 C 
HETATM   20  C   UNL     1      43.169 -15.835   5.132  1.00  0.00     0.029 A 
BRANCH  16  21
HETATM   21  O   UNL     1      43.978 -19.838   2.327  1.00  0.00    -0.346 OA
HETATM   22  H   UNL     1      43.292 -20.452   2.642  1.00  0.00     0.219 HD
ENDBRANCH  16  21
ENDBRANCH   8  10
ENDBRANCH   7   8
ENDBRANCH   6   7
ENDBRANCH   1   6
BRANCH   2  23
HETATM   23  C   UNL     1      41.762  -8.902   8.392  1.00  0.00     0.077 A 
HETATM   24  C   UNL     1      42.017  -7.575   8.010  1.00  0.00     0.095 A 
HETATM   25  C   UNL     1      40.948  -6.788   7.567  1.00  0.00     0.039 A 
HETATM   26  C   UNL     1      39.650  -7.307   7.513  1.00  0.00     0.003 A 
HETATM   27  C   UNL     1      39.401  -8.616   7.911  1.00  0.00     0.002 A 
HETATM   28  C   UNL     1      40.453  -9.415   8.354  1.00  0.00     0.033 A 
BRANCH  24  29
HETATM   29  O   UNL     1      43.289  -7.103   8.185  1.00  0.00    -0.354 OA
HETATM   30  C   UNL     1      43.541  -6.288   9.320  1.00  0.00     0.210 C 
ENDBRANCH  24  29
ENDBRANCH   2  23
BRANCH   3  31
HETATM   31  N   UNL     1      42.833  -9.450  11.243  1.00  0.00    -0.251 NA
HETATM   32  C   UNL     1      43.754  -8.589  12.000  1.00  0.00     0.098 C 
HETATM   33  C   UNL     1      42.966  -7.771  13.023  1.00  0.00     0.015 C 
HETATM   34  C   UNL     1      42.149  -8.673  13.944  1.00  0.00     0.002 C 
HETATM   35  C   UNL     1      41.267  -9.616  13.132  1.00  0.00     0.015 C 
HETATM   36  C   UNL     1      42.088 -10.389  12.102  1.00  0.00     0.098 C 
ENDBRANCH   3  31
TORSDOF 8
ENDMDL
MODEL 7
REMARK VINA RESULT:      -8.3      3.416      9.407
REMARK  8 active torsions:
REMARK  status: ('A' for Active; 'I' for Inactive)
REMARK    1  A    between atoms: C_3  and  O_4 
REMARK    2  A    between atoms: C_11  and  C_12 
REMARK    3  A    between atoms: C_12  and  C_13 
REMARK    4  A    between atoms: C_13  and  S_14 
REMARK    5  A    between atoms: S_14  and  C_15 
REMARK    6  A    between atoms: N_16  and  C_17 
REMARK    7  A    between atoms: C_18  and  O_19 
REMARK    8  A    between atoms: C_25  and  N_26 
ROOT
HETATM    1  C   UNL     1      43.806 -12.215   5.158  1.00  0.00     0.197 A 
HETATM    2  N   UNL     1      42.811 -12.998   4.598  1.00  0.00    -0.259 N 
HETATM    3  C   UNL     1      42.609 -12.423   3.334  1.00  0.00     0.211 A 
HETATM    4  N   UNL     1      43.442 -11.407   3.190  1.00  0.00    -0.116 NA
HETATM    5  N   UNL     1      44.204 -11.292   4.314  1.00  0.00    -0.121 NA
ENDROOT
BRANCH   1   6
HETATM    6  S   UNL     1      44.325 -12.288   6.817  1.00  0.00    -0.082 SA
BRANCH   6   7
HETATM    7  C   UNL     1      44.159 -10.531   7.247  1.00  0.00     0.166 C 
BRANCH   7   8
HETATM    8  C   UNL     1      44.599 -10.236   8.668  1.00  0.00     0.169 C 
HETATM    9  O   UNL     1      45.413 -10.918   9.290  1.00  0.00    -0.291 OA
BRANCH   8  10
HETATM   10  C   UNL     1      43.974  -9.062   9.357  1.00  0.00     0.011 A 
HETATM   11  C   UNL     1      43.806  -7.827   8.718  1.00  0.00     0.017 A 
HETATM   12  C   UNL     1      43.255  -6.731   9.392  1.00  0.00     0.031 A 
HETATM   13  C   UNL     1      42.869  -6.916  10.722  1.00  0.00     0.045 A 
HETATM   14  N   UNL     1      42.318  -6.030  11.617  1.00  0.00    -0.336 N 
HETATM   15  C   UNL     1      42.998  -8.133  11.388  1.00  0.00     0.002 A 
HETATM   16  C   UNL     1      42.086  -6.640  12.816  1.00  0.00     0.147 A 
HETATM   17  H   UNL     1      42.108  -5.061  11.427  1.00  0.00     0.168 HD
HETATM   18  C   UNL     1      42.493  -7.957  12.719  1.00  0.00     0.001 A 
HETATM   19  C   UNL     1      42.425  -9.009  13.767  1.00  0.00     0.054 C 
HETATM   20  C   UNL     1      43.556  -9.224  10.689  1.00  0.00     0.029 A 
BRANCH  16  21
HETATM   21  O   UNL     1      41.551  -5.934  13.803  1.00  0.00    -0.346 OA
HETATM   22  H   UNL     1      40.816  -6.456  14.170  1.00  0.00     0.219 HD
ENDBRANCH  16  21
ENDBRANCH   8  10
ENDBRANCH   7   8
ENDBRANCH   6   7
ENDBRANCH   1   6
BRANCH   2  23
HETATM   23  C   UNL     1      42.176 -14.129   5.176  1.00  0.00     0.077 A 
HETATM   24  C   UNL     1      40.965 -14.008   5.877  1.00  0.00     0.095 A 
HETATM   25  C   UNL     1      40.359 -15.168   6.373  1.00  0.00     0.039 A 
HETATM   26  C   UNL     1      40.949 -16.422   6.183  1.00  0.00     0.003 A 
HETATM   27  C   UNL     1      42.158 -16.533   5.505  1.00  0.00     0.002 A 
HETATM   28  C   UNL     1      42.776 -15.389   5.003  1.00  0.00     0.033 A 
BRANCH  24  29
HETATM   29  O   UNL     1      40.498 -12.744   6.114  1.00  0.00    -0.354 OA
HETATM   30  C   UNL     1      39.396 -12.291   5.342  1.00  0.00     0.210 C 
ENDBRANCH  24  29
ENDBRANCH   2  23
BRANCH   3  31
HETATM   31  N   UNL     1      41.707 -12.858   2.393  1.00  0.00    -0.251 NA
HETATM   32  C   UNL     1      42.095 -14.013   1.569  1.00  0.00     0.098 C 
HETATM   33  C   UNL     1      40.862 -14.575   0.863  1.00  0.00     0.015 C 
HETATM   34  C   UNL     1      40.157 -13.501   0.038  1.00  0.00     0.002 C 
HETATM   35  C   UNL     1      39.844 -12.280   0.895  1.00  0.00     0.015 C 
HETATM   36  C   UNL     1      41.096 -11.770   1.607  1.00  0.00     0.098 C 
ENDBRANCH   3  31
TORSDOF 8
ENDMDL
MODEL 8
REMARK VINA RESULT:      -8.3      3.165      8.927
REMARK  8 active torsions:
REMARK  status: ('A' for Active; 'I' for Inactive)
REMARK    1  A    between atoms: C_3  and  O_4 
REMARK    2  A    between atoms: C_11  and  C_12 
REMARK    3  A    between atoms: C_12  and  C_13 
REMARK    4  A    between atoms: C_13  and  S_14 
REMARK    5  A    between atoms: S_14  and  C_15 
REMARK    6  A    between atoms: N_16  and  C_17 
REMARK    7  A    between atoms: C_18  and  O_19 
REMARK    8  A    between atoms: C_25  and  N_26 
ROOT
HETATM    1  C   UNL     1      42.721 -12.144   3.536  1.00  0.00     0.197 A 
HETATM    2  N   UNL     1      42.264 -13.010   2.557  1.00  0.00    -0.259 N 
HETATM    3  C   UNL     1      41.721 -12.156   1.585  1.00  0.00     0.211 A 
HETATM    4  N   UNL     1      41.879 -10.905   1.982  1.00  0.00    -0.116 NA
HETATM    5  N   UNL     1      42.523 -10.895   3.183  1.00  0.00    -0.121 NA
ENDROOT
BRANCH   1   6
HETATM    6  S   UNL     1      43.287 -12.619   5.111  1.00  0.00    -0.082 SA
BRANCH   6   7
HETATM    7  C   UNL     1      43.581 -10.972   5.819  1.00  0.00     0.166 C 
BRANCH   7   8
HETATM    8  C   UNL     1      44.767 -10.950   6.765  1.00  0.00     0.169 C 
HETATM    9  O   UNL     1      45.879 -11.392   6.481  1.00  0.00    -0.291 OA
BRANCH   8  10
HETATM   10  C   UNL     1      44.549 -10.384   8.134  1.00  0.00     0.011 A 
HETATM   11  C   UNL     1      45.604 -10.185   9.033  1.00  0.00     0.017 A 
HETATM   12  C   UNL     1      45.375  -9.692  10.323  1.00  0.00     0.031 A 
HETATM   13  C   UNL     1      44.056  -9.394  10.677  1.00  0.00     0.045 A 
HETATM   14  N   UNL     1      43.543  -8.912  11.857  1.00  0.00    -0.336 N 
HETATM   15  C   UNL     1      42.982  -9.554   9.806  1.00  0.00     0.002 A 
HETATM   16  C   UNL     1      42.189  -8.755  11.764  1.00  0.00     0.147 A 
HETATM   17  H   UNL     1      44.079  -8.699  12.686  1.00  0.00     0.168 HD
HETATM   18  C   UNL     1      41.794  -9.141  10.497  1.00  0.00     0.001 A 
HETATM   19  C   UNL     1      40.420  -9.133   9.932  1.00  0.00     0.054 C 
HETATM   20  C   UNL     1      43.236 -10.054   8.511  1.00  0.00     0.029 A 
BRANCH  16  21
HETATM   21  O   UNL     1      41.523  -8.293  12.813  1.00  0.00    -0.346 OA
HETATM   22  H   UNL     1      42.132  -7.729  13.321  1.00  0.00     0.219 HD
ENDBRANCH  16  21
ENDBRANCH   8  10
ENDBRANCH   7   8
ENDBRANCH   6   7
ENDBRANCH   1   6
BRANCH   2  23
HETATM   23  C   UNL     1      42.357 -14.427   2.548  1.00  0.00     0.077 A 
HETATM   24  C   UNL     1      41.443 -15.224   3.256  1.00  0.00     0.095 A 
HETATM   25  C   UNL     1      41.553 -16.616   3.160  1.00  0.00     0.039 A 
HETATM   26  C   UNL     1      42.556 -17.204   2.382  1.00  0.00     0.003 A 
HETATM   27  C   UNL     1      43.470 -16.409   1.699  1.00  0.00     0.002 A 
HETATM   28  C   UNL     1      43.376 -15.022   1.781  1.00  0.00     0.033 A 
BRANCH  24  29
HETATM   29  O   UNL     1      40.554 -14.585   4.077  1.00  0.00    -0.354 OA
HETATM   30  C   UNL     1      40.501 -14.991   5.436  1.00  0.00     0.210 C 
ENDBRANCH  24  29
ENDBRANCH   2  23
BRANCH   3  31
HETATM   31  N   UNL     1      41.138 -12.554   0.406  1.00  0.00    -0.251 NA
HETATM   32  C   UNL     1      41.062 -11.563  -0.677  1.00  0.00     0.098 C 
HETATM   33  C   UNL     1      40.739 -12.268  -1.994  1.00  0.00     0.015 C 
HETATM   34  C   UNL     1      39.455 -13.088  -1.884  1.00  0.00     0.002 C 
HETATM   35  C   UNL     1      39.527 -14.045  -0.700  1.00  0.00     0.015 C 
HETATM   36  C   UNL     1      39.882 -13.305   0.588  1.00  0.00     0.098 C 
ENDBRANCH   3  31
TORSDOF 8
ENDMDL
MODEL 9
REMARK VINA RESULT:      -8.3      1.865      2.770
REMARK  8 active torsions:
REMARK  status: ('A' for Active; 'I' for Inactive)
REMARK    1  A    between atoms: C_3  and  O_4 
REMARK    2  A    between atoms: C_11  and  C_12 
REMARK    3  A    between atoms: C_12  and  C_13 
REMARK    4  A    between atoms: C_13  and  S_14 
REMARK    5  A    between atoms: S_14  and  C_15 
REMARK    6  A    between atoms: N_16  and  C_17 
REMARK    7  A    between atoms: C_18  and  O_19 
REMARK    8  A    between atoms: C_25  and  N_26 
ROOT
HETATM    1  C   UNL     1      43.313 -10.862   6.558  1.00  0.00     0.197 A 
HETATM    2  N   UNL     1      42.747  -9.985   7.468  1.00  0.00    -0.259 N 
HETATM    3  C   UNL     1      43.395 -10.292   8.673  1.00  0.00     0.211 A 
HETATM    4  N   UNL     1      44.273 -11.255   8.451  1.00  0.00    -0.116 NA
HETATM    5  N   UNL     1      44.240 -11.593   7.131  1.00  0.00    -0.121 NA
ENDROOT
BRANCH   1   6
HETATM    6  S   UNL     1      42.750 -11.124   4.933  1.00  0.00    -0.082 SA
BRANCH   6   7
HETATM    7  C   UNL     1      43.597 -12.693   4.585  1.00  0.00     0.166 C 
BRANCH   7   8
HETATM    8  C   UNL     1      42.711 -13.899   4.831  1.00  0.00     0.169 C 
HETATM    9  O   UNL     1      41.856 -13.953   5.714  1.00  0.00    -0.291 OA
BRANCH   8  10
HETATM   10  C   UNL     1      42.922 -15.102   3.964  1.00  0.00     0.011 A 
HETATM   11  C   UNL     1      42.822 -15.040   2.569  1.00  0.00     0.017 A 
HETATM   12  C   UNL     1      42.985 -16.183   1.778  1.00  0.00     0.031 A 
HETATM   13  C   UNL     1      43.261 -17.388   2.431  1.00  0.00     0.045 A 
HETATM   14  N   UNL     1      43.457 -18.648   1.921  1.00  0.00    -0.336 N 
HETATM   15  C   UNL     1      43.392 -17.488   3.814  1.00  0.00     0.002 A 
HETATM   16  C   UNL     1      43.714 -19.539   2.924  1.00  0.00     0.147 A 
HETATM   17  H   UNL     1      43.420 -18.896   0.943  1.00  0.00     0.168 HD
HETATM   18  C   UNL     1      43.686 -18.857   4.126  1.00  0.00     0.001 A 
HETATM   19  C   UNL     1      43.920 -19.407   5.487  1.00  0.00     0.054 C 
HETATM   20  C   UNL     1      43.224 -16.323   4.592  1.00  0.00     0.029 A 
BRANCH  16  21
HETATM   21  O   UNL     1      43.932 -20.809   2.614  1.00  0.00    -0.346 OA
HETATM   22  H   UNL     1      43.247 -21.340   3.057  1.00  0.00     0.219 HD
ENDBRANCH  16  21
ENDBRANCH   8  10
ENDBRANCH   7   8
ENDBRANCH   6   7
ENDBRANCH   1   6
BRANCH   2  23
HETATM   23  C   UNL     1      41.759  -8.996   7.213  1.00  0.00     0.077 A 
HETATM   24  C   UNL     1      40.389  -9.301   7.268  1.00  0.00     0.095 A 
HETATM   25  C   UNL     1      39.465  -8.269   7.064  1.00  0.00     0.039 A 
HETATM   26  C   UNL     1      39.894  -6.964   6.802  1.00  0.00     0.003 A 
HETATM   27  C   UNL     1      41.252  -6.674   6.729  1.00  0.00     0.002 A 
HETATM   28  C   UNL     1      42.187  -7.687   6.930  1.00  0.00     0.033 A 
BRANCH  24  29
HETATM   29  O   UNL     1      40.042 -10.614   7.427  1.00  0.00    -0.354 OA
HETATM   30  C   UNL     1      39.201 -11.199   6.443  1.00  0.00     0.210 C 
ENDBRANCH  24  29
ENDBRANCH   2  23
BRANCH   3  31
HETATM   31  N   UNL     1      43.168  -9.679   9.882  1.00  0.00    -0.251 NA
HETATM   32  C   UNL     1      43.664  -8.305  10.044  1.00  0.00     0.098 C 
HETATM   33  C   UNL     1      43.013  -7.668  11.272  1.00  0.00     0.015 C 
HETATM   34  C   UNL     1      43.251  -8.507  12.525  1.00  0.00     0.002 C 
HETATM   35  C   UNL     1      42.809  -9.949  12.299  1.00  0.00     0.015 C 
HETATM   36  C   UNL     1      43.457 -10.536  11.047  1.00  0.00     0.098 C 
ENDBRANCH   3  31
TORSDOF 8
ENDMDL
MODEL 10
REMARK VINA RESULT:      -8.3      3.219      4.971
REMARK  8 active torsions:
REMARK  status: ('A' for Active; 'I' for Inactive)
REMARK    1  A    between atoms: C_3  and  O_4 
REMARK    2  A    between atoms: C_11  and  C_12 
REMARK    3  A    between atoms: C_12  and  C_13 
REMARK    4  A    between atoms: C_13  and  S_14 
REMARK    5  A    between atoms: S_14  and  C_15 
REMARK    6  A    between atoms: N_16  and  C_17 
REMARK    7  A    between atoms: C_18  and  O_19 
REMARK    8  A    between atoms: C_25  and  N_26 
ROOT
HETATM    1  C   UNL     1      40.606  -9.561   7.812  1.00  0.00     0.197 A 
HETATM    2  N   UNL     1      41.529  -9.323   8.817  1.00  0.00    -0.259 N 
HETATM    3  C   UNL     1      40.735  -9.124   9.956  1.00  0.00     0.211 A 
HETATM    4  N   UNL     1      39.464  -9.258   9.619  1.00  0.00    -0.116 NA
HETATM    5  N   UNL     1      39.384  -9.555   8.291  1.00  0.00    -0.121 NA
ENDROOT
BRANCH   1   6
HETATM    6  S   UNL     1      40.971  -9.648   6.114  1.00  0.00    -0.082 SA
BRANCH   6   7
HETATM    7  C   UNL     1      41.036 -11.454   5.926  1.00  0.00     0.166 C 
BRANCH   7   8
HETATM    8  C   UNL     1      42.225 -11.911   5.103  1.00  0.00     0.169 C 
HETATM    9  O   UNL     1      42.776 -11.216   4.249  1.00  0.00    -0.291 OA
BRANCH   8  10
HETATM   10  C   UNL     1      42.730 -13.303   5.329  1.00  0.00     0.011 A 
HETATM   11  C   UNL     1      43.279 -13.706   6.552  1.00  0.00     0.017 A 
HETATM   12  C   UNL     1      43.780 -15.000   6.731  1.00  0.00     0.031 A 
HETATM   13  C   UNL     1      43.704 -15.879   5.647  1.00  0.00     0.045 A 
HETATM   14  N   UNL     1      44.118 -17.185   5.533  1.00  0.00    -0.336 N 
HETATM   15  C   UNL     1      43.145 -15.526   4.421  1.00  0.00     0.002 A 
HETATM   16  C   UNL     1      43.836 -17.672   4.289  1.00  0.00     0.147 A 
HETATM   17  H   UNL     1      44.568 -17.721   6.260  1.00  0.00     0.168 HD
HETATM   18  C   UNL     1      43.224 -16.670   3.560  1.00  0.00     0.001 A 
HETATM   19  C   UNL     1      42.728 -16.739   2.160  1.00  0.00     0.054 C 
HETATM   20  C   UNL     1      42.646 -14.216   4.263  1.00  0.00     0.029 A 
BRANCH  16  21
HETATM   21  O   UNL     1      44.164 -18.924   4.000  1.00  0.00    -0.346 OA
HETATM   22  H   UNL     1      45.110 -19.032   4.204  1.00  0.00     0.219 HD
ENDBRANCH  16  21
ENDBRANCH   8  10
ENDBRANCH   7   8
ENDBRANCH   6   7
ENDBRANCH   1   6
BRANCH   2  23
HETATM   23  C   UNL     1      42.945  -9.314   8.702  1.00  0.00     0.077 A 
HETATM   24  C   UNL     1      43.662  -8.110   8.610  1.00  0.00     0.095 A 
HETATM   25  C   UNL     1      45.060  -8.166   8.558  1.00  0.00     0.039 A 
HETATM   26  C   UNL     1      45.730  -9.393   8.588  1.00  0.00     0.003 A 
HETATM   27  C   UNL     1      45.012 -10.582   8.660  1.00  0.00     0.002 A 
HETATM   28  C   UNL     1      43.621 -10.547   8.714  1.00  0.00     0.033 A 
BRANCH  24  29
HETATM   29  O   UNL     1      42.940  -6.955   8.481  1.00  0.00    -0.354 OA
HETATM   30  C   UNL     1      42.892  -6.079   9.597  1.00  0.00     0.210 C 
ENDBRANCH  24  29
ENDBRANCH   2  23
BRANCH   3  31
HETATM   31  N   UNL     1      41.204  -8.851  11.219  1.00  0.00    -0.251 NA
HETATM   32  C   UNL     1      41.703  -9.984  12.012  1.00  0.00     0.098 C 
HETATM   33  C   UNL     1      42.507  -9.461  13.202  1.00  0.00     0.015 C 
HETATM   34  C   UNL     1      41.681  -8.497  14.049  1.00  0.00     0.002 C 
HETATM   35  C   UNL     1      41.103  -7.381  13.187  1.00  0.00     0.015 C 
HETATM   36  C   UNL     1      40.335  -7.946  11.994  1.00  0.00     0.098 C 
ENDBRANCH   3  31
TORSDOF 8
ENDMDL
