MODEL 1
REMARK VINA RESULT:      -8.3      0.000      0.000
REMARK  7 active torsions:
REMARK  status: ('A' for Active; 'I' for Inactive)
REMARK    1  A    between atoms: C_2  and  C_3 
REMARK    2  A    between atoms: C_3  and  C_4 
REMARK    3  A    between atoms: C_8  and  C_9 
REMARK       I    between atoms: C_9  and  N_10 
REMARK    4  A    between atoms: N_10  and  C_11 
REMARK    5  A    between atoms: C_11  and  C_12 
REMARK    6  A    between atoms: C_12  and  N_13 
REMARK    7  A    between atoms: C_16  and  C_17 
ROOT
HETATM    1  C   UNL     1      43.101 -11.852   6.072  1.00  0.00     0.150 C 
ENDROOT
BRANCH   1   2
HETATM    2  N   UNL     1      43.185 -11.686   7.515  1.00  0.00    -0.354 N 
HETATM    3  C   UNL     1      44.307 -11.110   8.093  1.00  0.00     0.272 C 
HETATM    4  O   UNL     1      45.410 -11.152   7.557  1.00  0.00    -0.266 OA
HETATM    5  H   UNL     1      42.336 -11.423   8.022  1.00  0.00     0.162 HD
BRANCH   3   6
HETATM    6  C   UNL     1      44.030 -10.454   9.375  1.00  0.00     0.146 A 
HETATM    7  N   UNL     1      43.969 -11.166  10.519  1.00  0.00    -0.169 NA
HETATM    8  N   UNL     1      43.659 -10.248  11.456  1.00  0.00    -0.282 N 
HETATM    9  C   UNL     1      43.492  -8.987  10.954  1.00  0.00     0.030 A 
HETATM   10  H   UNL     1      43.555 -10.553  12.420  1.00  0.00     0.189 HD
HETATM   11  C   UNL     1      43.755  -9.085   9.605  1.00  0.00     0.065 A 
BRANCH   9  12
HETATM   12  C   UNL     1      43.083  -7.835  11.806  1.00  0.00     0.058 C 
BRANCH  12  13
HETATM   13  C   UNL     1      42.966  -8.246  13.274  1.00  0.00     0.002 C 
HETATM   14  C   UNL     1      43.220  -7.073  14.207  1.00  0.00     0.005 C 
ENDBRANCH  12  13
ENDBRANCH   9  12
ENDBRANCH   3   6
ENDBRANCH   1   2
BRANCH   1  15
HETATM   15  C   UNL     1      42.818 -13.295   5.614  1.00  0.00     0.254 C 
BRANCH  15  16
HETATM   16  N   UNL     1      41.987 -14.017   6.662  1.00  0.00    -0.069 N 
HETATM   17  H   UNL     1      42.080 -13.439   7.511  1.00  0.00     0.280 HD
HETATM   18  C   UNL     1      42.504 -15.406   6.984  1.00  0.00     0.244 C 
HETATM   19  C   UNL     1      41.555 -16.365   6.254  1.00  0.00     0.046 C 
HETATM   20  C   UNL     1      40.219 -15.644   6.465  1.00  0.00     0.039 C 
HETATM   21  C   UNL     1      40.526 -14.162   6.310  1.00  0.00     0.235 C 
BRANCH  19  22
HETATM   22  C   UNL     1      42.011 -16.645   4.824  1.00  0.00    -0.046 A 
HETATM   23  C   UNL     1      43.122 -17.491   4.574  1.00  0.00    -0.055 A 
HETATM   24  C   UNL     1      43.881 -18.219   5.656  1.00  0.00     0.049 C 
HETATM   25  C   UNL     1      43.583 -17.663   3.255  1.00  0.00     0.007 A 
HETATM   26  C   UNL     1      42.937 -17.061   2.182  1.00  0.00     0.001 A 
HETATM   27  C   UNL     1      41.810 -16.285   2.409  1.00  0.00     0.001 A 
HETATM   28  C   UNL     1      41.349 -16.086   3.713  1.00  0.00     0.008 A 
ENDBRANCH  19  22
ENDBRANCH  15  16
ENDBRANCH   1  15
TORSDOF 7
ENDMDL
MODEL 2
REMARK VINA RESULT:      -8.1      1.843      3.219
REMARK  7 active torsions:
REMARK  status: ('A' for Active; 'I' for Inactive)
REMARK    1  A    between atoms: C_2  and  C_3 
REMARK    2  A    between atoms: C_3  and  C_4 
REMARK    3  A    between atoms: C_8  and  C_9 
REMARK       I    between atoms: C_9  and  N_10 
REMARK    4  A    between atoms: N_10  and  C_11 
REMARK    5  A    between atoms: C_11  and  C_12 
REMARK    6  A    between atoms: C_12  and  N_13 
REMARK    7  A    between atoms: C_16  and  C_17 
ROOT
HETATM    1  C   UNL     1      43.222 -12.123   3.248  1.00  0.00     0.150 C 
ENDROOT
BRANCH   1   2
HETATM    2  N   UNL     1      43.564 -12.231   4.658  1.00  0.00    -0.354 N 
HETATM    3  C   UNL     1      44.641 -11.525   5.176  1.00  0.00     0.272 C 
HETATM    4  O   UNL     1      45.595 -11.191   4.482  1.00  0.00    -0.266 OA
HETATM    5  H   UNL     1      42.803 -12.289   5.339  1.00  0.00     0.162 HD
BRANCH   3   6
HETATM    6  C   UNL     1      44.506 -11.225   6.605  1.00  0.00     0.146 A 
HETATM    7  N   UNL     1      43.329 -11.392   7.242  1.00  0.00    -0.169 NA
HETATM    8  N   UNL     1      43.579 -10.981   8.501  1.00  0.00    -0.282 N 
HETATM    9  C   UNL     1      44.857 -10.532   8.687  1.00  0.00     0.030 A 
HETATM   10  H   UNL     1      42.825 -11.013   9.182  1.00  0.00     0.189 HD
HETATM   11  C   UNL     1      45.493 -10.705   7.477  1.00  0.00     0.065 A 
BRANCH   9  12
HETATM   12  C   UNL     1      45.327  -9.971   9.985  1.00  0.00     0.058 C 
BRANCH  12  13
HETATM   13  C   UNL     1      44.245 -10.086  11.061  1.00  0.00     0.002 C 
HETATM   14  C   UNL     1      43.746  -8.720  11.502  1.00  0.00     0.005 C 
ENDBRANCH  12  13
ENDBRANCH   9  12
ENDBRANCH   3   6
ENDBRANCH   1   2
BRANCH   1  15
HETATM   15  C   UNL     1      42.994 -13.473   2.545  1.00  0.00     0.254 C 
BRANCH  15  16
HETATM   16  N   UNL     1      41.508 -13.694   2.316  1.00  0.00    -0.069 N 
HETATM   17  H   UNL     1      41.119 -12.745   2.199  1.00  0.00     0.280 HD
HETATM   18  C   UNL     1      40.809 -14.342   3.495  1.00  0.00     0.244 C 
HETATM   19  C   UNL     1      40.608 -15.806   3.084  1.00  0.00     0.046 C 
HETATM   20  C   UNL     1      40.265 -15.631   1.601  1.00  0.00     0.039 C 
HETATM   21  C   UNL     1      41.180 -14.524   1.098  1.00  0.00     0.235 C 
BRANCH  19  22
HETATM   22  C   UNL     1      41.806 -16.676   3.455  1.00  0.00    -0.046 A 
HETATM   23  C   UNL     1      42.199 -16.823   4.811  1.00  0.00    -0.055 A 
HETATM   24  C   UNL     1      41.452 -16.211   5.970  1.00  0.00     0.049 C 
HETATM   25  C   UNL     1      43.361 -17.554   5.124  1.00  0.00     0.007 A 
HETATM   26  C   UNL     1      44.105 -18.182   4.133  1.00  0.00     0.001 A 
HETATM   27  C   UNL     1      43.693 -18.100   2.811  1.00  0.00     0.001 A 
HETATM   28  C   UNL     1      42.553 -17.363   2.478  1.00  0.00     0.008 A 
ENDBRANCH  19  22
ENDBRANCH  15  16
ENDBRANCH   1  15
TORSDOF 7
ENDMDL
MODEL 3
REMARK VINA RESULT:      -7.8      2.268      3.906
REMARK  7 active torsions:
REMARK  status: ('A' for Active; 'I' for Inactive)
REMARK    1  A    between atoms: C_2  and  C_3 
REMARK    2  A    between atoms: C_3  and  C_4 
REMARK    3  A    between atoms: C_8  and  C_9 
REMARK       I    between atoms: C_9  and  N_10 
REMARK    4  A    between atoms: N_10  and  C_11 
REMARK    5  A    between atoms: C_11  and  C_12 
REMARK    6  A    between atoms: C_12  and  N_13 
REMARK    7  A    between atoms: C_16  and  C_17 
ROOT
HETATM    1  C   UNL     1      42.621 -12.237   3.007  1.00  0.00     0.150 C 
ENDROOT
BRANCH   1   2
HETATM    2  N   UNL     1      43.136 -11.401   4.081  1.00  0.00    -0.354 N 
HETATM    3  C   UNL     1      43.043 -11.816   5.401  1.00  0.00     0.272 C 
HETATM    4  O   UNL     1      42.169 -12.588   5.782  1.00  0.00    -0.266 OA
HETATM    5  H   UNL     1      44.005 -10.886   3.920  1.00  0.00     0.162 HD
BRANCH   3   6
HETATM    6  C   UNL     1      44.085 -11.251   6.264  1.00  0.00     0.146 A 
HETATM    7  N   UNL     1      45.350 -11.105   5.820  1.00  0.00    -0.169 NA
HETATM    8  N   UNL     1      46.013 -10.608   6.883  1.00  0.00    -0.282 N 
HETATM    9  C   UNL     1      45.230 -10.456   7.994  1.00  0.00     0.030 A 
HETATM   10  H   UNL     1      47.005 -10.412   6.790  1.00  0.00     0.189 HD
HETATM   11  C   UNL     1      43.963 -10.841   7.613  1.00  0.00     0.065 A 
BRANCH   9  12
HETATM   12  C   UNL     1      45.775  -9.983   9.298  1.00  0.00     0.058 C 
BRANCH  12  13
HETATM   13  C   UNL     1      44.794 -10.257  10.440  1.00  0.00     0.002 C 
HETATM   14  C   UNL     1      44.078  -8.990  10.880  1.00  0.00     0.005 C 
ENDBRANCH  12  13
ENDBRANCH   9  12
ENDBRANCH   3   6
ENDBRANCH   1   2
BRANCH   1  15
HETATM   15  C   UNL     1      43.255 -13.638   2.934  1.00  0.00     0.254 C 
BRANCH  15  16
HETATM   16  N   UNL     1      42.298 -14.605   2.256  1.00  0.00    -0.069 N 
HETATM   17  H   UNL     1      41.913 -14.074   1.459  1.00  0.00     0.280 HD
HETATM   18  C   UNL     1      41.141 -15.023   3.142  1.00  0.00     0.244 C 
HETATM   19  C   UNL     1      41.490 -16.440   3.612  1.00  0.00     0.046 C 
HETATM   20  C   UNL     1      42.121 -17.007   2.336  1.00  0.00     0.039 C 
HETATM   21  C   UNL     1      42.945 -15.871   1.749  1.00  0.00     0.235 C 
BRANCH  19  22
HETATM   22  C   UNL     1      42.323 -16.430   4.892  1.00  0.00    -0.046 A 
HETATM   23  C   UNL     1      41.721 -16.134   6.143  1.00  0.00    -0.055 A 
HETATM   24  C   UNL     1      40.245 -15.881   6.322  1.00  0.00     0.049 C 
HETATM   25  C   UNL     1      42.523 -16.039   7.296  1.00  0.00     0.007 A 
HETATM   26  C   UNL     1      43.890 -16.283   7.245  1.00  0.00     0.001 A 
HETATM   27  C   UNL     1      44.477 -16.638   6.039  1.00  0.00     0.001 A 
HETATM   28  C   UNL     1      43.702 -16.718   4.880  1.00  0.00     0.008 A 
ENDBRANCH  19  22
ENDBRANCH  15  16
ENDBRANCH   1  15
TORSDOF 7
ENDMDL
MODEL 4
REMARK VINA RESULT:      -7.7      4.082      7.350
REMARK  7 active torsions:
REMARK  status: ('A' for Active; 'I' for Inactive)
REMARK    1  A    between atoms: C_2  and  C_3 
REMARK    2  A    between atoms: C_3  and  C_4 
REMARK    3  A    between atoms: C_8  and  C_9 
REMARK       I    between atoms: C_9  and  N_10 
REMARK    4  A    between atoms: N_10  and  C_11 
REMARK    5  A    between atoms: C_11  and  C_12 
REMARK    6  A    between atoms: C_12  and  N_13 
REMARK    7  A    between atoms: C_16  and  C_17 
ROOT
HETATM    1  C   UNL     1      43.653 -13.175   6.839  1.00  0.00     0.150 C 
ENDROOT
BRANCH   1   2
HETATM    2  N   UNL     1      44.141 -14.521   6.584  1.00  0.00    -0.354 N 
HETATM    3  C   UNL     1      43.566 -15.611   7.222  1.00  0.00     0.272 C 
HETATM    4  O   UNL     1      43.007 -15.508   8.310  1.00  0.00    -0.266 OA
HETATM    5  H   UNL     1      44.422 -14.763   5.631  1.00  0.00     0.162 HD
BRANCH   3   6
HETATM    6  C   UNL     1      43.688 -16.861   6.466  1.00  0.00     0.146 A 
HETATM    7  N   UNL     1      43.200 -18.019   6.956  1.00  0.00    -0.169 NA
HETATM    8  N   UNL     1      43.532 -18.933   6.023  1.00  0.00    -0.282 N 
HETATM    9  C   UNL     1      44.236 -18.411   4.972  1.00  0.00     0.030 A 
HETATM   10  H   UNL     1      43.267 -19.901   6.174  1.00  0.00     0.189 HD
HETATM   11  C   UNL     1      44.329 -17.059   5.220  1.00  0.00     0.065 A 
BRANCH   9  12
HETATM   12  C   UNL     1      44.760 -19.257   3.862  1.00  0.00     0.058 C 
BRANCH  12  13
HETATM   13  C   UNL     1      43.731 -20.304   3.433  1.00  0.00     0.002 C 
HETATM   14  C   UNL     1      43.240 -20.060   2.014  1.00  0.00     0.005 C 
ENDBRANCH  12  13
ENDBRANCH   9  12
ENDBRANCH   3   6
ENDBRANCH   1   2
BRANCH   1  15
HETATM   15  C   UNL     1      43.268 -12.389   5.572  1.00  0.00     0.254 C 
BRANCH  15  16
HETATM   16  N   UNL     1      41.795 -12.019   5.619  1.00  0.00    -0.069 N 
HETATM   17  H   UNL     1      41.693 -11.467   6.485  1.00  0.00     0.280 HD
HETATM   18  C   UNL     1      40.878 -13.222   5.722  1.00  0.00     0.244 C 
HETATM   19  C   UNL     1      40.300 -13.406   4.313  1.00  0.00     0.046 C 
HETATM   20  C   UNL     1      40.105 -11.942   3.903  1.00  0.00     0.039 C 
HETATM   21  C   UNL     1      41.319 -11.201   4.443  1.00  0.00     0.235 C 
BRANCH  19  22
HETATM   22  C   UNL     1      41.186 -14.293   3.442  1.00  0.00    -0.046 A 
HETATM   23  C   UNL     1      41.238 -15.695   3.657  1.00  0.00    -0.055 A 
HETATM   24  C   UNL     1      40.400 -16.415   4.684  1.00  0.00     0.049 C 
HETATM   25  C   UNL     1      42.130 -16.482   2.905  1.00  0.00     0.007 A 
HETATM   26  C   UNL     1      42.926 -15.920   1.913  1.00  0.00     0.001 A 
HETATM   27  C   UNL     1      42.834 -14.562   1.649  1.00  0.00     0.001 A 
HETATM   28  C   UNL     1      41.969 -13.760   2.399  1.00  0.00     0.008 A 
ENDBRANCH  19  22
ENDBRANCH  15  16
ENDBRANCH   1  15
TORSDOF 7
ENDMDL
MODEL 5
REMARK VINA RESULT:      -7.6      5.446      8.667
REMARK  7 active torsions:
REMARK  status: ('A' for Active; 'I' for Inactive)
REMARK    1  A    between atoms: C_2  and  C_3 
REMARK    2  A    between atoms: C_3  and  C_4 
REMARK    3  A    between atoms: C_8  and  C_9 
REMARK       I    between atoms: C_9  and  N_10 
REMARK    4  A    between atoms: N_10  and  C_11 
REMARK    5  A    between atoms: C_11  and  C_12 
REMARK    6  A    between atoms: C_12  and  N_13 
REMARK    7  A    between atoms: C_16  and  C_17 
ROOT
HETATM    1  C   UNL     1      41.751 -13.892   4.526  1.00  0.00     0.150 C 
ENDROOT
BRANCH   1   2
HETATM    2  N   UNL     1      41.110 -13.508   3.278  1.00  0.00    -0.354 N 
HETATM    3  C   UNL     1      41.697 -13.820   2.061  1.00  0.00     0.272 C 
HETATM    4  O   UNL     1      42.909 -13.974   1.942  1.00  0.00    -0.266 OA
HETATM    5  H   UNL     1      40.090 -13.568   3.218  1.00  0.00     0.162 HD
BRANCH   3   6
HETATM    6  C   UNL     1      40.732 -13.953   0.965  1.00  0.00     0.146 A 
HETATM    7  N   UNL     1      40.293 -15.166   0.569  1.00  0.00    -0.169 NA
HETATM    8  N   UNL     1      39.472 -14.893  -0.464  1.00  0.00    -0.282 N 
HETATM    9  C   UNL     1      39.390 -13.560  -0.762  1.00  0.00     0.030 A 
HETATM   10  H   UNL     1      39.013 -15.665  -0.938  1.00  0.00     0.189 HD
HETATM   11  C   UNL     1      40.178 -12.921   0.170  1.00  0.00     0.065 A 
BRANCH   9  12
HETATM   12  C   UNL     1      38.590 -13.045  -1.909  1.00  0.00     0.058 C 
BRANCH  12  13
HETATM   13  C   UNL     1      39.056 -13.660  -3.229  1.00  0.00     0.002 C 
HETATM   14  C   UNL     1      38.103 -14.742  -3.711  1.00  0.00     0.005 C 
ENDBRANCH  12  13
ENDBRANCH   9  12
ENDBRANCH   3   6
ENDBRANCH   1   2
BRANCH   1  15
HETATM   15  C   UNL     1      41.834 -15.412   4.756  1.00  0.00     0.254 C 
BRANCH  15  16
HETATM   16  N   UNL     1      42.742 -15.709   5.937  1.00  0.00    -0.069 N 
HETATM   17  H   UNL     1      42.763 -14.830   6.477  1.00  0.00     0.280 HD
HETATM   18  C   UNL     1      44.165 -16.041   5.531  1.00  0.00     0.244 C 
HETATM   19  C   UNL     1      44.275 -17.565   5.670  1.00  0.00     0.046 C 
HETATM   20  C   UNL     1      43.444 -17.786   6.939  1.00  0.00     0.039 C 
HETATM   21  C   UNL     1      42.264 -16.832   6.825  1.00  0.00     0.235 C 
BRANCH  19  22
HETATM   22  C   UNL     1      43.857 -18.289   4.393  1.00  0.00    -0.046 A 
HETATM   23  C   UNL     1      43.917 -19.704   4.312  1.00  0.00    -0.055 A 
HETATM   24  C   UNL     1      44.319 -20.591   5.465  1.00  0.00     0.049 C 
HETATM   25  C   UNL     1      43.617 -20.346   3.097  1.00  0.00     0.007 A 
HETATM   26  C   UNL     1      43.208 -19.623   1.982  1.00  0.00     0.001 A 
HETATM   27  C   UNL     1      43.082 -18.245   2.069  1.00  0.00     0.001 A 
HETATM   28  C   UNL     1      43.396 -17.587   3.262  1.00  0.00     0.008 A 
ENDBRANCH  19  22
ENDBRANCH  15  16
ENDBRANCH   1  15
TORSDOF 7
ENDMDL
MODEL 6
REMARK VINA RESULT:      -7.5      1.213      1.925
REMARK  7 active torsions:
REMARK  status: ('A' for Active; 'I' for Inactive)
REMARK    1  A    between atoms: C_2  and  C_3 
REMARK    2  A    between atoms: C_3  and  C_4 
REMARK    3  A    between atoms: C_8  and  C_9 
REMARK       I    between atoms: C_9  and  N_10 
REMARK    4  A    between atoms: N_10  and  C_11 
REMARK    5  A    between atoms: C_11  and  C_12 
REMARK    6  A    between atoms: C_12  and  N_13 
REMARK    7  A    between atoms: C_16  and  C_17 
ROOT
HETATM    1  C   UNL     1      43.946 -12.347   6.694  1.00  0.00     0.150 C 
ENDROOT
BRANCH   1   2
HETATM    2  N   UNL     1      43.635 -11.821   8.014  1.00  0.00    -0.354 N 
HETATM    3  C   UNL     1      44.521 -10.970   8.659  1.00  0.00     0.272 C 
HETATM    4  O   UNL     1      45.726 -10.990   8.431  1.00  0.00    -0.266 OA
HETATM    5  H   UNL     1      42.666 -11.562   8.217  1.00  0.00     0.162 HD
BRANCH   3   6
HETATM    6  C   UNL     1      43.870 -10.064   9.611  1.00  0.00     0.146 A 
HETATM    7  N   UNL     1      42.923  -9.194   9.204  1.00  0.00    -0.169 NA
HETATM    8  N   UNL     1      42.599  -8.517  10.324  1.00  0.00    -0.282 N 
HETATM    9  C   UNL     1      43.321  -8.900  11.421  1.00  0.00     0.030 A 
HETATM   10  H   UNL     1      41.892  -7.791  10.266  1.00  0.00     0.189 HD
HETATM   11  C   UNL     1      44.136  -9.924  10.994  1.00  0.00     0.065 A 
BRANCH   9  12
HETATM   12  C   UNL     1      43.170  -8.236  12.748  1.00  0.00     0.058 C 
BRANCH  12  13
HETATM   13  C   UNL     1      42.391  -9.121  13.722  1.00  0.00     0.002 C 
HETATM   14  C   UNL     1      41.737  -8.301  14.824  1.00  0.00     0.005 C 
ENDBRANCH  12  13
ENDBRANCH   9  12
ENDBRANCH   3   6
ENDBRANCH   1   2
BRANCH   1  15
HETATM   15  C   UNL     1      43.357 -13.741   6.411  1.00  0.00     0.254 C 
BRANCH  15  16
HETATM   16  N   UNL     1      41.841 -13.659   6.340  1.00  0.00    -0.069 N 
HETATM   17  H   UNL     1      41.580 -13.025   7.111  1.00  0.00     0.280 HD
HETATM   18  C   UNL     1      41.157 -14.991   6.579  1.00  0.00     0.244 C 
HETATM   19  C   UNL     1      40.723 -15.471   5.188  1.00  0.00     0.046 C 
HETATM   20  C   UNL     1      40.290 -14.142   4.561  1.00  0.00     0.039 C 
HETATM   21  C   UNL     1      41.305 -13.115   5.039  1.00  0.00     0.235 C 
BRANCH  19  22
HETATM   22  C   UNL     1      41.815 -16.280   4.494  1.00  0.00    -0.046 A 
HETATM   23  C   UNL     1      41.755 -16.526   3.097  1.00  0.00    -0.055 A 
HETATM   24  C   UNL     1      40.680 -15.970   2.196  1.00  0.00     0.049 C 
HETATM   25  C   UNL     1      42.722 -17.351   2.493  1.00  0.00     0.007 A 
HETATM   26  C   UNL     1      43.771 -17.889   3.229  1.00  0.00     0.001 A 
HETATM   27  C   UNL     1      43.877 -17.601   4.581  1.00  0.00     0.001 A 
HETATM   28  C   UNL     1      42.915 -16.800   5.203  1.00  0.00     0.008 A 
ENDBRANCH  19  22
ENDBRANCH  15  16
ENDBRANCH   1  15
TORSDOF 7
ENDMDL
MODEL 7
REMARK VINA RESULT:      -7.3      4.725      8.304
REMARK  7 active torsions:
REMARK  status: ('A' for Active; 'I' for Inactive)
REMARK    1  A    between atoms: C_2  and  C_3 
REMARK    2  A    between atoms: C_3  and  C_4 
REMARK    3  A    between atoms: C_8  and  C_9 
REMARK       I    between atoms: C_9  and  N_10 
REMARK    4  A    between atoms: N_10  and  C_11 
REMARK    5  A    between atoms: C_11  and  C_12 
REMARK    6  A    between atoms: C_12  and  N_13 
REMARK    7  A    between atoms: C_16  and  C_17 
ROOT
HETATM    1  C   UNL     1      40.035 -13.465   5.540  1.00  0.00     0.150 C 
ENDROOT
BRANCH   1   2
HETATM    2  N   UNL     1      39.423 -13.478   4.220  1.00  0.00    -0.354 N 
HETATM    3  C   UNL     1      39.266 -12.299   3.506  1.00  0.00     0.272 C 
HETATM    4  O   UNL     1      39.168 -11.209   4.062  1.00  0.00    -0.266 OA
HETATM    5  H   UNL     1      39.638 -14.258   3.594  1.00  0.00     0.162 HD
BRANCH   3   6
HETATM    6  C   UNL     1      39.240 -12.496   2.053  1.00  0.00     0.146 A 
HETATM    7  N   UNL     1      38.245 -11.983   1.301  1.00  0.00    -0.169 NA
HETATM    8  N   UNL     1      38.533 -12.399   0.052  1.00  0.00    -0.282 N 
HETATM    9  C   UNL     1      39.655 -13.179  -0.019  1.00  0.00     0.030 A 
HETATM   10  H   UNL     1      37.912 -12.133  -0.705  1.00  0.00     0.189 HD
HETATM   11  C   UNL     1      40.152 -13.236   1.264  1.00  0.00     0.065 A 
BRANCH   9  12
HETATM   12  C   UNL     1      40.118 -13.799  -1.293  1.00  0.00     0.058 C 
BRANCH  12  13
HETATM   13  C   UNL     1      39.042 -14.709  -1.888  1.00  0.00     0.002 C 
HETATM   14  C   UNL     1      38.473 -14.136  -3.177  1.00  0.00     0.005 C 
ENDBRANCH  12  13
ENDBRANCH   9  12
ENDBRANCH   3   6
ENDBRANCH   1   2
BRANCH   1  15
HETATM   15  C   UNL     1      40.493 -14.847   6.041  1.00  0.00     0.254 C 
BRANCH  15  16
HETATM   16  N   UNL     1      41.760 -14.705   6.869  1.00  0.00    -0.069 N 
HETATM   17  H   UNL     1      41.495 -14.075   7.642  1.00  0.00     0.280 HD
HETATM   18  C   UNL     1      42.902 -14.057   6.110  1.00  0.00     0.244 C 
HETATM   19  C   UNL     1      43.841 -15.212   5.740  1.00  0.00     0.046 C 
HETATM   20  C   UNL     1      43.745 -16.063   7.010  1.00  0.00     0.039 C 
HETATM   21  C   UNL     1      42.285 -16.002   7.434  1.00  0.00     0.235 C 
BRANCH  19  22
HETATM   22  C   UNL     1      43.463 -15.853   4.406  1.00  0.00    -0.046 A 
HETATM   23  C   UNL     1      43.101 -15.047   3.295  1.00  0.00    -0.055 A 
HETATM   24  C   UNL     1      43.126 -13.539   3.312  1.00  0.00     0.049 C 
HETATM   25  C   UNL     1      42.668 -15.658   2.104  1.00  0.00     0.007 A 
HETATM   26  C   UNL     1      42.636 -17.042   1.974  1.00  0.00     0.001 A 
HETATM   27  C   UNL     1      43.051 -17.838   3.031  1.00  0.00     0.001 A 
HETATM   28  C   UNL     1      43.465 -17.250   4.229  1.00  0.00     0.008 A 
ENDBRANCH  19  22
ENDBRANCH  15  16
ENDBRANCH   1  15
TORSDOF 7
ENDMDL
MODEL 8
REMARK VINA RESULT:      -7.3      2.669      3.930
REMARK  7 active torsions:
REMARK  status: ('A' for Active; 'I' for Inactive)
REMARK    1  A    between atoms: C_2  and  C_3 
REMARK    2  A    between atoms: C_3  and  C_4 
REMARK    3  A    between atoms: C_8  and  C_9 
REMARK       I    between atoms: C_9  and  N_10 
REMARK    4  A    between atoms: N_10  and  C_11 
REMARK    5  A    between atoms: C_11  and  C_12 
REMARK    6  A    between atoms: C_12  and  N_13 
REMARK    7  A    between atoms: C_16  and  C_17 
ROOT
HETATM    1  C   UNL     1      41.865 -14.767   3.171  1.00  0.00     0.150 C 
ENDROOT
BRANCH   1   2
HETATM    2  N   UNL     1      42.453 -13.643   3.884  1.00  0.00    -0.354 N 
HETATM    3  C   UNL     1      41.666 -12.834   4.691  1.00  0.00     0.272 C 
HETATM    4  O   UNL     1      40.463 -12.694   4.499  1.00  0.00    -0.266 OA
HETATM    5  H   UNL     1      43.389 -13.757   4.282  1.00  0.00     0.162 HD
BRANCH   3   6
HETATM    6  C   UNL     1      42.414 -12.191   5.777  1.00  0.00     0.146 A 
HETATM    7  N   UNL     1      43.156 -12.921   6.635  1.00  0.00    -0.169 NA
HETATM    8  N   UNL     1      43.646 -12.009   7.498  1.00  0.00    -0.282 N 
HETATM    9  C   UNL     1      43.224 -10.733   7.243  1.00  0.00     0.030 A 
HETATM   10  H   UNL     1      44.247 -12.327   8.253  1.00  0.00     0.189 HD
HETATM   11  C   UNL     1      42.443 -10.817   6.112  1.00  0.00     0.065 A 
BRANCH   9  12
HETATM   12  C   UNL     1      43.593  -9.580   8.114  1.00  0.00     0.058 C 
BRANCH  12  13
HETATM   13  C   UNL     1      44.673  -9.973   9.123  1.00  0.00     0.002 C 
HETATM   14  C   UNL     1      45.936  -9.147   8.943  1.00  0.00     0.005 C 
ENDBRANCH  12  13
ENDBRANCH   9  12
ENDBRANCH   3   6
ENDBRANCH   1   2
BRANCH   1  15
HETATM   15  C   UNL     1      41.558 -15.989   4.054  1.00  0.00     0.254 C 
BRANCH  15  16
HETATM   16  N   UNL     1      42.471 -15.993   5.269  1.00  0.00    -0.069 N 
HETATM   17  H   UNL     1      42.374 -15.048   5.670  1.00  0.00     0.280 HD
HETATM   18  C   UNL     1      43.931 -16.206   4.920  1.00  0.00     0.244 C 
HETATM   19  C   UNL     1      44.221 -17.667   5.288  1.00  0.00     0.046 C 
HETATM   20  C   UNL     1      43.397 -17.796   6.574  1.00  0.00     0.039 C 
HETATM   21  C   UNL     1      42.113 -17.021   6.316  1.00  0.00     0.235 C 
BRANCH  19  22
HETATM   22  C   UNL     1      43.919 -18.619   4.133  1.00  0.00    -0.046 A 
HETATM   23  C   UNL     1      43.964 -20.024   4.326  1.00  0.00    -0.055 A 
HETATM   24  C   UNL     1      44.235 -20.678   5.658  1.00  0.00     0.049 C 
HETATM   25  C   UNL     1      43.774 -20.884   3.228  1.00  0.00     0.007 A 
HETATM   26  C   UNL     1      43.489 -20.384   1.962  1.00  0.00     0.001 A 
HETATM   27  C   UNL     1      43.377 -19.014   1.777  1.00  0.00     0.001 A 
HETATM   28  C   UNL     1      43.583 -18.144   2.851  1.00  0.00     0.008 A 
ENDBRANCH  19  22
ENDBRANCH  15  16
ENDBRANCH   1  15
TORSDOF 7
ENDMDL
MODEL 9
REMARK VINA RESULT:      -7.1      2.150      9.352
REMARK  7 active torsions:
REMARK  status: ('A' for Active; 'I' for Inactive)
REMARK    1  A    between atoms: C_2  and  C_3 
REMARK    2  A    between atoms: C_3  and  C_4 
REMARK    3  A    between atoms: C_8  and  C_9 
REMARK       I    between atoms: C_9  and  N_10 
REMARK    4  A    between atoms: N_10  and  C_11 
REMARK    5  A    between atoms: C_11  and  C_12 
REMARK    6  A    between atoms: C_12  and  N_13 
REMARK    7  A    between atoms: C_16  and  C_17 
ROOT
HETATM    1  C   UNL     1      41.897 -11.640   6.065  1.00  0.00     0.150 C 
ENDROOT
BRANCH   1   2
HETATM    2  N   UNL     1      42.244 -13.038   6.271  1.00  0.00    -0.354 N 
HETATM    3  C   UNL     1      41.680 -14.027   5.478  1.00  0.00     0.272 C 
HETATM    4  O   UNL     1      40.586 -13.886   4.941  1.00  0.00    -0.266 OA
HETATM    5  H   UNL     1      43.213 -13.267   6.507  1.00  0.00     0.162 HD
BRANCH   3   6
HETATM    6  C   UNL     1      42.520 -15.222   5.351  1.00  0.00     0.146 A 
HETATM    7  N   UNL     1      43.646 -15.359   6.082  1.00  0.00    -0.169 NA
HETATM    8  N   UNL     1      44.160 -16.535   5.670  1.00  0.00    -0.282 N 
HETATM    9  C   UNL     1      43.425 -17.139   4.687  1.00  0.00     0.030 A 
HETATM   10  H   UNL     1      45.029 -16.859   6.085  1.00  0.00     0.189 HD
HETATM   11  C   UNL     1      42.337 -16.321   4.479  1.00  0.00     0.065 A 
BRANCH   9  12
HETATM   12  C   UNL     1      43.848 -18.414   4.042  1.00  0.00     0.058 C 
BRANCH  12  13
HETATM   13  C   UNL     1      43.399 -18.470   2.581  1.00  0.00     0.002 C 
HETATM   14  C   UNL     1      43.299 -19.903   2.079  1.00  0.00     0.005 C 
ENDBRANCH  12  13
ENDBRANCH   9  12
ENDBRANCH   3   6
ENDBRANCH   1   2
BRANCH   1  15
HETATM   15  C   UNL     1      42.663 -10.656   6.967  1.00  0.00     0.254 C 
BRANCH  15  16
HETATM   16  N   UNL     1      43.996 -11.260   7.378  1.00  0.00    -0.069 N 
HETATM   17  H   UNL     1      43.996 -12.200   6.955  1.00  0.00     0.280 HD
HETATM   18  C   UNL     1      44.143 -11.422   8.879  1.00  0.00     0.244 C 
HETATM   19  C   UNL     1      45.065 -10.277   9.316  1.00  0.00     0.046 C 
HETATM   20  C   UNL     1      46.047 -10.250   8.140  1.00  0.00     0.039 C 
HETATM   21  C   UNL     1      45.204 -10.492   6.898  1.00  0.00     0.235 C 
BRANCH  19  22
HETATM   22  C   UNL     1      44.285  -9.005   9.640  1.00  0.00    -0.046 A 
HETATM   23  C   UNL     1      43.488  -8.926  10.812  1.00  0.00    -0.055 A 
HETATM   24  C   UNL     1      43.400 -10.027  11.840  1.00  0.00     0.049 C 
HETATM   25  C   UNL     1      42.704  -7.780  11.045  1.00  0.00     0.007 A 
HETATM   26  C   UNL     1      42.735  -6.697  10.175  1.00  0.00     0.001 A 
HETATM   27  C   UNL     1      43.561  -6.737   9.061  1.00  0.00     0.001 A 
HETATM   28  C   UNL     1      44.331  -7.874   8.802  1.00  0.00     0.008 A 
ENDBRANCH  19  22
ENDBRANCH  15  16
ENDBRANCH   1  15
TORSDOF 7
ENDMDL
MODEL 10
REMARK VINA RESULT:      -7.1      2.015      3.328
REMARK  7 active torsions:
REMARK  status: ('A' for Active; 'I' for Inactive)
REMARK    1  A    between atoms: C_2  and  C_3 
REMARK    2  A    between atoms: C_3  and  C_4 
REMARK    3  A    between atoms: C_8  and  C_9 
REMARK       I    between atoms: C_9  and  N_10 
REMARK    4  A    between atoms: N_10  and  C_11 
REMARK    5  A    between atoms: C_11  and  C_12 
REMARK    6  A    between atoms: C_12  and  N_13 
REMARK    7  A    between atoms: C_16  and  C_17 
ROOT
HETATM    1  C   UNL     1      43.387 -12.030   3.598  1.00  0.00     0.150 C 
ENDROOT
BRANCH   1   2
HETATM    2  N   UNL     1      43.573 -11.196   4.776  1.00  0.00    -0.354 N 
HETATM    3  C   UNL     1      42.514 -10.467   5.296  1.00  0.00     0.272 C 
HETATM    4  O   UNL     1      41.573 -10.099   4.600  1.00  0.00    -0.266 OA
HETATM    5  H   UNL     1      44.181 -11.541   5.523  1.00  0.00     0.162 HD
BRANCH   3   6
HETATM    6  C   UNL     1      42.639 -10.202   6.733  1.00  0.00     0.146 A 
HETATM    7  N   UNL     1      43.466 -10.937   7.504  1.00  0.00    -0.169 NA
HETATM    8  N   UNL     1      43.282 -10.440   8.744  1.00  0.00    -0.282 N 
HETATM    9  C   UNL     1      42.351  -9.440   8.799  1.00  0.00     0.030 A 
HETATM   10  H   UNL     1      43.808 -10.844   9.513  1.00  0.00     0.189 HD
HETATM   11  C   UNL     1      41.935  -9.244   7.501  1.00  0.00     0.065 A 
BRANCH   9  12
HETATM   12  C   UNL     1      41.945  -8.795  10.081  1.00  0.00     0.058 C 
BRANCH  12  13
HETATM   13  C   UNL     1      42.583  -9.499  11.279  1.00  0.00     0.002 C 
HETATM   14  C   UNL     1      43.601  -8.610  11.975  1.00  0.00     0.005 C 
ENDBRANCH  12  13
ENDBRANCH   9  12
ENDBRANCH   3   6
ENDBRANCH   1   2
BRANCH   1  15
HETATM   15  C   UNL     1      42.792 -13.419   3.892  1.00  0.00     0.254 C 
BRANCH  15  16
HETATM   16  N   UNL     1      42.390 -14.097   2.592  1.00  0.00    -0.069 N 
HETATM   17  H   UNL     1      42.002 -13.337   2.013  1.00  0.00     0.280 HD
HETATM   18  C   UNL     1      41.309 -15.145   2.773  1.00  0.00     0.244 C 
HETATM   19  C   UNL     1      42.041 -16.491   2.696  1.00  0.00     0.046 C 
HETATM   20  C   UNL     1      43.065 -16.186   1.597  1.00  0.00     0.039 C 
HETATM   21  C   UNL     1      43.529 -14.760   1.856  1.00  0.00     0.235 C 
BRANCH  19  22
HETATM   22  C   UNL     1      42.554 -16.943   4.061  1.00  0.00    -0.046 A 
HETATM   23  C   UNL     1      43.504 -17.992   4.164  1.00  0.00    -0.055 A 
HETATM   24  C   UNL     1      44.121 -18.682   2.973  1.00  0.00     0.049 C 
HETATM   25  C   UNL     1      43.894 -18.456   5.435  1.00  0.00     0.007 A 
HETATM   26  C   UNL     1      43.407 -17.869   6.597  1.00  0.00     0.001 A 
HETATM   27  C   UNL     1      42.529 -16.799   6.506  1.00  0.00     0.001 A 
HETATM   28  C   UNL     1      42.114 -16.337   5.254  1.00  0.00     0.008 A 
ENDBRANCH  19  22
ENDBRANCH  15  16
ENDBRANCH   1  15
TORSDOF 7
ENDMDL
