MODEL 1
REMARK VINA RESULT:     -10.2      0.000      0.000
REMARK  6 active torsions:
REMARK  status: ('A' for Active; 'I' for Inactive)
REMARK    1  A    between atoms: C_9  and  O_10 
REMARK    2  A    between atoms: O_10  and  C_11 
REMARK    3  A    between atoms: C_11  and  C_12 
REMARK       I    between atoms: C_12  and  N_13 
REMARK    4  A    between atoms: N_13  and  C_14 
REMARK    5  A    between atoms: N_15  and  C_16 
REMARK    6  A    between atoms: C_27  and  C_28 
ROOT
HETATM    1  C   UNL     1      40.692 -12.977   2.151  1.00  0.00     0.152 A 
HETATM    2  N   UNL     1      41.026 -14.312   1.963  1.00  0.00    -0.044 N 
HETATM    3  N   UNL     1      40.493 -14.825   0.810  1.00  0.00    -0.150 NA
HETATM    4  C   UNL     1      39.825 -13.800   0.267  1.00  0.00     0.099 A 
HETATM    5  C   UNL     1      39.895 -12.647   1.075  1.00  0.00     0.086 A 
ENDROOT
BRANCH   1   6
HETATM    6  N   UNL     1      41.151 -12.213   3.219  1.00  0.00    -0.309 N 
HETATM    7  C   UNL     1      42.105 -11.221   3.064  1.00  0.00     0.247 C 
HETATM    8  O   UNL     1      42.542 -10.811   1.989  1.00  0.00    -0.271 OA
HETATM    9  H   UNL     1      40.777 -12.398   4.153  1.00  0.00     0.170 HD
BRANCH   7  10
HETATM   10  C   UNL     1      42.713 -10.725   4.374  1.00  0.00     0.278 C 
BRANCH  10  11
HETATM   11  O   UNL     1      43.747 -11.545   4.898  1.00  0.00    -0.342 OA
BRANCH  11  12
HETATM   12  C   UNL     1      44.218 -11.153   6.130  1.00  0.00     0.070 A 
HETATM   13  C   UNL     1      45.538 -11.280   6.564  1.00  0.00     0.037 A 
HETATM   14  C   UNL     1      45.912 -10.832   7.835  1.00  0.00     0.015 A 
HETATM   15  C   UNL     1      44.972 -10.253   8.696  1.00  0.00    -0.026 A 
HETATM   16  C   UNL     1      45.342  -9.789   9.968  1.00  0.00     0.012 A 
HETATM   17  C   UNL     1      43.629 -10.134   8.270  1.00  0.00    -0.023 A 
HETATM   18  C   UNL     1      44.398  -9.210  10.817  1.00  0.00     0.001 A 
HETATM   19  C   UNL     1      43.076  -9.090  10.403  1.00  0.00     0.001 A 
HETATM   20  C   UNL     1      42.692  -9.550   9.140  1.00  0.00     0.012 A 
HETATM   21  C   UNL     1      43.268 -10.596   6.991  1.00  0.00     0.049 A 
ENDBRANCH  11  12
ENDBRANCH  10  11
ENDBRANCH   7  10
ENDBRANCH   1   6
BRANCH   2  22
HETATM   22  C   UNL     1      41.825 -15.144   2.769  1.00  0.00     0.732 A 
HETATM   23  N   UNL     1      42.287 -14.798   3.935  1.00  0.00    -0.067 NA
HETATM   24  C   UNL     1      43.042 -15.765   4.541  1.00  0.00     0.065 A 
HETATM   25  C   UNL     1      43.318 -16.973   4.046  1.00  0.00     0.036 A 
HETATM   26  C   UNL     1      43.671 -15.580   5.881  1.00  0.00     0.061 C 
HETATM   27  C   UNL     1      44.161 -17.804   4.934  1.00  0.00     0.047 C 
HETATM   28  C   UNL     1      42.792 -17.346   2.734  1.00  0.00     0.268 A 
HETATM   29  C   UNL     1      44.646 -16.767   5.955  1.00  0.00     0.011 C 
HETATM   30  O   UNL     1      43.005 -18.434   2.220  1.00  0.00    -0.267 OA
HETATM   31  N   UNL     1      42.047 -16.359   2.156  1.00  0.00    -0.152 N 
HETATM   32  H   UNL     1      41.641 -16.526   1.241  1.00  0.00     0.188 HD
ENDBRANCH   2  22
BRANCH   4  33
HETATM   33  C   UNL     1      39.130 -13.915  -1.058  1.00  0.00     0.035 A 
HETATM   34  S   UNL     1      38.119 -12.706  -1.723  1.00  0.00    -0.100 SA
HETATM   35  C   UNL     1      37.843 -13.625  -3.140  1.00  0.00     0.050 A 
HETATM   36  C   UNL     1      38.500 -14.833  -3.106  1.00  0.00     0.008 A 
HETATM   37  C   UNL     1      39.244 -15.003  -1.900  1.00  0.00     0.022 A 
ENDBRANCH   4  33
TORSDOF 6
ENDMDL
MODEL 2
REMARK VINA RESULT:     -10.2      3.250      7.948
REMARK  6 active torsions:
REMARK  status: ('A' for Active; 'I' for Inactive)
REMARK    1  A    between atoms: C_9  and  O_10 
REMARK    2  A    between atoms: O_10  and  C_11 
REMARK    3  A    between atoms: C_11  and  C_12 
REMARK       I    between atoms: C_12  and  N_13 
REMARK    4  A    between atoms: N_13  and  C_14 
REMARK    5  A    between atoms: N_15  and  C_16 
REMARK    6  A    between atoms: C_27  and  C_28 
ROOT
HETATM    1  C   UNL     1      41.236 -11.502   5.889  1.00  0.00     0.152 A 
HETATM    2  N   UNL     1      40.872 -11.266   4.570  1.00  0.00    -0.044 N 
HETATM    3  N   UNL     1      40.727  -9.930   4.300  1.00  0.00    -0.150 NA
HETATM    4  C   UNL     1      41.010  -9.325   5.459  1.00  0.00     0.099 A 
HETATM    5  C   UNL     1      41.300 -10.257   6.477  1.00  0.00     0.086 A 
ENDROOT
BRANCH   1   6
HETATM    6  N   UNL     1      41.494 -12.770   6.400  1.00  0.00    -0.309 N 
HETATM    7  C   UNL     1      42.763 -13.323   6.402  1.00  0.00     0.247 C 
HETATM    8  O   UNL     1      43.801 -12.735   6.099  1.00  0.00    -0.271 OA
HETATM    9  H   UNL     1      40.716 -13.317   6.778  1.00  0.00     0.170 HD
BRANCH   7  10
HETATM   10  C   UNL     1      42.794 -14.821   6.694  1.00  0.00     0.278 C 
BRANCH  10  11
HETATM   11  O   UNL     1      43.955 -15.495   6.227  1.00  0.00    -0.342 OA
BRANCH  11  12
HETATM   12  C   UNL     1      43.736 -16.338   5.163  1.00  0.00     0.070 A 
HETATM   13  C   UNL     1      43.261 -15.947   3.910  1.00  0.00     0.037 A 
HETATM   14  C   UNL     1      43.090 -16.890   2.891  1.00  0.00     0.015 A 
HETATM   15  C   UNL     1      43.388 -18.241   3.108  1.00  0.00    -0.026 A 
HETATM   16  C   UNL     1      43.233 -19.191   2.086  1.00  0.00     0.012 A 
HETATM   17  C   UNL     1      43.856 -18.648   4.378  1.00  0.00    -0.023 A 
HETATM   18  C   UNL     1      43.536 -20.534   2.311  1.00  0.00     0.001 A 
HETATM   19  C   UNL     1      43.997 -20.940   3.559  1.00  0.00     0.001 A 
HETATM   20  C   UNL     1      44.155 -20.006   4.586  1.00  0.00     0.012 A 
HETATM   21  C   UNL     1      44.016 -17.688   5.394  1.00  0.00     0.049 A 
ENDBRANCH  11  12
ENDBRANCH  10  11
ENDBRANCH   7  10
ENDBRANCH   1   6
BRANCH   2  22
HETATM   22  C   UNL     1      40.668 -12.193   3.530  1.00  0.00     0.732 A 
HETATM   23  N   UNL     1      40.250 -13.411   3.716  1.00  0.00    -0.067 NA
HETATM   24  C   UNL     1      40.126 -14.135   2.562  1.00  0.00     0.065 A 
HETATM   25  C   UNL     1      40.386 -13.701   1.328  1.00  0.00     0.036 A 
HETATM   26  C   UNL     1      39.664 -15.554   2.543  1.00  0.00     0.061 C 
HETATM   27  C   UNL     1      40.155 -14.716   0.276  1.00  0.00     0.047 C 
HETATM   28  C   UNL     1      40.856 -12.330   1.136  1.00  0.00     0.268 A 
HETATM   29  C   UNL     1      40.009 -15.995   1.111  1.00  0.00     0.011 C 
HETATM   30  O   UNL     1      41.113 -11.866   0.035  1.00  0.00    -0.267 OA
HETATM   31  N   UNL     1      40.972 -11.636   2.306  1.00  0.00    -0.152 N 
HETATM   32  H   UNL     1      41.294 -10.674   2.274  1.00  0.00     0.188 HD
ENDBRANCH   2  22
BRANCH   4  33
HETATM   33  C   UNL     1      41.029  -7.830   5.593  1.00  0.00     0.035 A 
HETATM   34  S   UNL     1      40.095  -6.764   4.635  1.00  0.00    -0.100 SA
HETATM   35  C   UNL     1      40.692  -5.391   5.462  1.00  0.00     0.050 A 
HETATM   36  C   UNL     1      41.593  -5.734   6.445  1.00  0.00     0.008 A 
HETATM   37  C   UNL     1      41.790  -7.146   6.520  1.00  0.00     0.022 A 
ENDBRANCH   4  33
TORSDOF 6
ENDMDL
MODEL 3
REMARK VINA RESULT:     -10.1      2.889      8.923
REMARK  6 active torsions:
REMARK  status: ('A' for Active; 'I' for Inactive)
REMARK    1  A    between atoms: C_9  and  O_10 
REMARK    2  A    between atoms: O_10  and  C_11 
REMARK    3  A    between atoms: C_11  and  C_12 
REMARK       I    between atoms: C_12  and  N_13 
REMARK    4  A    between atoms: N_13  and  C_14 
REMARK    5  A    between atoms: N_15  and  C_16 
REMARK    6  A    between atoms: C_27  and  C_28 
ROOT
HETATM    1  C   UNL     1      42.185 -11.785   5.606  1.00  0.00     0.152 A 
HETATM    2  N   UNL     1      43.055 -12.815   5.937  1.00  0.00    -0.044 N 
HETATM    3  N   UNL     1      43.841 -12.507   7.017  1.00  0.00    -0.150 NA
HETATM    4  C   UNL     1      43.452 -11.276   7.369  1.00  0.00     0.099 A 
HETATM    5  C   UNL     1      42.453 -10.778   6.508  1.00  0.00     0.086 A 
ENDROOT
BRANCH   1   6
HETATM    6  N   UNL     1      41.249 -11.870   4.581  1.00  0.00    -0.309 N 
HETATM    7  C   UNL     1      39.957 -12.320   4.793  1.00  0.00     0.247 C 
HETATM    8  O   UNL     1      39.451 -12.554   5.890  1.00  0.00    -0.271 OA
HETATM    9  H   UNL     1      41.529 -11.601   3.634  1.00  0.00     0.170 HD
BRANCH   7  10
HETATM   10  C   UNL     1      39.189 -12.650   3.515  1.00  0.00     0.278 C 
BRANCH  10  11
HETATM   11  O   UNL     1      39.688 -12.023   2.342  1.00  0.00    -0.342 OA
BRANCH  11  12
HETATM   12  C   UNL     1      39.615 -12.795   1.206  1.00  0.00     0.070 A 
HETATM   13  C   UNL     1      40.330 -13.974   0.986  1.00  0.00     0.037 A 
HETATM   14  C   UNL     1      40.167 -14.690  -0.203  1.00  0.00     0.015 A 
HETATM   15  C   UNL     1      39.289 -14.240  -1.197  1.00  0.00    -0.026 A 
HETATM   16  C   UNL     1      39.110 -14.961  -2.388  1.00  0.00     0.012 A 
HETATM   17  C   UNL     1      38.571 -13.040  -0.989  1.00  0.00    -0.023 A 
HETATM   18  C   UNL     1      38.229 -14.505  -3.370  1.00  0.00     0.001 A 
HETATM   19  C   UNL     1      37.521 -13.325  -3.171  1.00  0.00     0.001 A 
HETATM   20  C   UNL     1      37.690 -12.596  -1.991  1.00  0.00     0.012 A 
HETATM   21  C   UNL     1      38.752 -12.327   0.211  1.00  0.00     0.049 A 
ENDBRANCH  11  12
ENDBRANCH  10  11
ENDBRANCH   7  10
ENDBRANCH   1   6
BRANCH   2  22
HETATM   22  C   UNL     1      43.198 -14.080   5.335  1.00  0.00     0.732 A 
HETATM   23  N   UNL     1      43.009 -14.304   4.068  1.00  0.00    -0.067 NA
HETATM   24  C   UNL     1      43.202 -15.609   3.702  1.00  0.00     0.065 A 
HETATM   25  C   UNL     1      43.555 -16.609   4.512  1.00  0.00     0.036 A 
HETATM   26  C   UNL     1      43.036 -16.090   2.300  1.00  0.00     0.061 C 
HETATM   27  C   UNL     1      43.690 -17.913   3.826  1.00  0.00     0.047 C 
HETATM   28  C   UNL     1      43.764 -16.340   5.933  1.00  0.00     0.268 A 
HETATM   29  C   UNL     1      43.031 -17.617   2.472  1.00  0.00     0.011 C 
HETATM   30  O   UNL     1      44.088 -17.206   6.731  1.00  0.00    -0.267 OA
HETATM   31  N   UNL     1      43.560 -15.031   6.265  1.00  0.00    -0.152 N 
HETATM   32  H   UNL     1      43.679 -14.748   7.232  1.00  0.00     0.188 HD
ENDBRANCH   2  22
BRANCH   4  33
HETATM   33  C   UNL     1      44.026 -10.571   8.564  1.00  0.00     0.035 A 
HETATM   34  S   UNL     1      43.089  -9.893   9.825  1.00  0.00    -0.100 SA
HETATM   35  C   UNL     1      44.484  -9.393  10.681  1.00  0.00     0.050 A 
HETATM   36  C   UNL     1      45.642  -9.727  10.017  1.00  0.00     0.008 A 
HETATM   37  C   UNL     1      45.378 -10.407   8.790  1.00  0.00     0.022 A 
ENDBRANCH   4  33
TORSDOF 6
ENDMDL
MODEL 4
REMARK VINA RESULT:      -9.9      5.399      9.956
REMARK  6 active torsions:
REMARK  status: ('A' for Active; 'I' for Inactive)
REMARK    1  A    between atoms: C_9  and  O_10 
REMARK    2  A    between atoms: O_10  and  C_11 
REMARK    3  A    between atoms: C_11  and  C_12 
REMARK       I    between atoms: C_12  and  N_13 
REMARK    4  A    between atoms: N_13  and  C_14 
REMARK    5  A    between atoms: N_15  and  C_16 
REMARK    6  A    between atoms: C_27  and  C_28 
ROOT
HETATM    1  C   UNL     1      43.605  -9.341  10.067  1.00  0.00     0.152 A 
HETATM    2  N   UNL     1      42.321  -8.975   9.684  1.00  0.00    -0.044 N 
HETATM    3  N   UNL     1      41.676  -8.250  10.651  1.00  0.00    -0.150 NA
HETATM    4  C   UNL     1      42.566  -8.154  11.645  1.00  0.00     0.099 A 
HETATM    5  C   UNL     1      43.761  -8.839  11.342  1.00  0.00     0.086 A 
ENDROOT
BRANCH   1   6
HETATM    6  N   UNL     1      44.484 -10.037   9.245  1.00  0.00    -0.309 N 
HETATM    7  C   UNL     1      45.353  -9.397   8.379  1.00  0.00     0.247 C 
HETATM    8  O   UNL     1      45.553  -8.183   8.333  1.00  0.00    -0.271 OA
HETATM    9  H   UNL     1      44.479 -11.061   9.273  1.00  0.00     0.170 HD
BRANCH   7  10
HETATM   10  C   UNL     1      45.993 -10.314   7.339  1.00  0.00     0.278 C 
BRANCH  10  11
HETATM   11  O   UNL     1      45.455 -11.627   7.291  1.00  0.00    -0.342 OA
BRANCH  11  12
HETATM   12  C   UNL     1      44.557 -11.840   6.271  1.00  0.00     0.070 A 
HETATM   13  C   UNL     1      44.746 -11.462   4.940  1.00  0.00     0.037 A 
HETATM   14  C   UNL     1      43.771 -11.744   3.979  1.00  0.00     0.015 A 
HETATM   15  C   UNL     1      42.588 -12.405   4.330  1.00  0.00    -0.026 A 
HETATM   16  C   UNL     1      41.610 -12.702   3.367  1.00  0.00     0.012 A 
HETATM   17  C   UNL     1      42.381 -12.778   5.677  1.00  0.00    -0.023 A 
HETATM   18  C   UNL     1      40.436 -13.365   3.727  1.00  0.00     0.001 A 
HETATM   19  C   UNL     1      40.228 -13.735   5.052  1.00  0.00     0.001 A 
HETATM   20  C   UNL     1      41.191 -13.443   6.021  1.00  0.00     0.012 A 
HETATM   21  C   UNL     1      43.370 -12.482   6.634  1.00  0.00     0.049 A 
ENDBRANCH  11  12
ENDBRANCH  10  11
ENDBRANCH   7  10
ENDBRANCH   1   6
BRANCH   2  22
HETATM   22  C   UNL     1      41.654  -9.233   8.472  1.00  0.00     0.732 A 
HETATM   23  N   UNL     1      42.110  -8.883   7.305  1.00  0.00    -0.067 NA
HETATM   24  C   UNL     1      41.294  -9.234   6.264  1.00  0.00     0.065 A 
HETATM   25  C   UNL     1      40.130  -9.879   6.360  1.00  0.00     0.036 A 
HETATM   26  C   UNL     1      41.621  -8.930   4.841  1.00  0.00     0.061 C 
HETATM   27  C   UNL     1      39.473 -10.122   5.056  1.00  0.00     0.047 C 
HETATM   28  C   UNL     1      39.632 -10.265   7.678  1.00  0.00     0.268 A 
HETATM   29  C   UNL     1      40.289  -9.213   4.127  1.00  0.00     0.011 C 
HETATM   30  O   UNL     1      38.575 -10.856   7.840  1.00  0.00    -0.267 OA
HETATM   31  N   UNL     1      40.466  -9.897   8.694  1.00  0.00    -0.152 N 
HETATM   32  H   UNL     1      40.203 -10.120   9.649  1.00  0.00     0.188 HD
ENDBRANCH   2  22
BRANCH   4  33
HETATM   33  C   UNL     1      42.283  -7.375  12.896  1.00  0.00     0.035 A 
HETATM   34  S   UNL     1      41.148  -6.100  13.001  1.00  0.00    -0.100 SA
HETATM   35  C   UNL     1      41.458  -5.872  14.668  1.00  0.00     0.050 A 
HETATM   36  C   UNL     1      42.414  -6.745  15.137  1.00  0.00     0.008 A 
HETATM   37  C   UNL     1      42.894  -7.613  14.111  1.00  0.00     0.022 A 
ENDBRANCH   4  33
TORSDOF 6
ENDMDL
MODEL 5
REMARK VINA RESULT:      -9.8      2.634      5.343
REMARK  6 active torsions:
REMARK  status: ('A' for Active; 'I' for Inactive)
REMARK    1  A    between atoms: C_9  and  O_10 
REMARK    2  A    between atoms: O_10  and  C_11 
REMARK    3  A    between atoms: C_11  and  C_12 
REMARK       I    between atoms: C_12  and  N_13 
REMARK    4  A    between atoms: N_13  and  C_14 
REMARK    5  A    between atoms: N_15  and  C_16 
REMARK    6  A    between atoms: C_27  and  C_28 
ROOT
HETATM    1  C   UNL     1      42.767 -14.744   3.577  1.00  0.00     0.152 A 
HETATM    2  N   UNL     1      42.266 -15.056   2.319  1.00  0.00    -0.044 N 
HETATM    3  N   UNL     1      42.455 -16.374   1.995  1.00  0.00    -0.150 NA
HETATM    4  C   UNL     1      43.072 -16.894   3.063  1.00  0.00     0.099 A 
HETATM    5  C   UNL     1      43.312 -15.918   4.052  1.00  0.00     0.086 A 
ENDROOT
BRANCH   1   6
HETATM    6  N   UNL     1      42.655 -13.486   4.158  1.00  0.00    -0.309 N 
HETATM    7  C   UNL     1      41.592 -13.140   4.976  1.00  0.00     0.247 C 
HETATM    8  O   UNL     1      40.728 -13.911   5.391  1.00  0.00    -0.271 OA
HETATM    9  H   UNL     1      43.378 -12.788   3.965  1.00  0.00     0.170 HD
BRANCH   7  10
HETATM   10  C   UNL     1      41.472 -11.642   5.249  1.00  0.00     0.278 C 
BRANCH  10  11
HETATM   11  O   UNL     1      42.686 -10.916   5.128  1.00  0.00    -0.342 OA
BRANCH  11  12
HETATM   12  C   UNL     1      43.379 -10.761   6.306  1.00  0.00     0.070 A 
HETATM   13  C   UNL     1      44.668 -11.238   6.550  1.00  0.00     0.037 A 
HETATM   14  C   UNL     1      45.286 -11.008   7.783  1.00  0.00     0.015 A 
HETATM   15  C   UNL     1      44.626 -10.302   8.796  1.00  0.00    -0.026 A 
HETATM   16  C   UNL     1      45.244 -10.057  10.032  1.00  0.00     0.012 A 
HETATM   17  C   UNL     1      43.315  -9.828   8.563  1.00  0.00    -0.023 A 
HETATM   18  C   UNL     1      44.579  -9.349  11.033  1.00  0.00     0.001 A 
HETATM   19  C   UNL     1      43.289  -8.880  10.809  1.00  0.00     0.001 A 
HETATM   20  C   UNL     1      42.659  -9.119   9.584  1.00  0.00     0.012 A 
HETATM   21  C   UNL     1      42.704 -10.073   7.318  1.00  0.00     0.049 A 
ENDBRANCH  11  12
ENDBRANCH  10  11
ENDBRANCH   7  10
ENDBRANCH   1   6
BRANCH   2  22
HETATM   22  C   UNL     1      41.604 -14.221   1.400  1.00  0.00     0.732 A 
HETATM   23  N   UNL     1      41.769 -12.932   1.342  1.00  0.00    -0.067 NA
HETATM   24  C   UNL     1      41.022 -12.321   0.372  1.00  0.00     0.065 A 
HETATM   25  C   UNL     1      40.187 -12.925  -0.475  1.00  0.00     0.036 A 
HETATM   26  C   UNL     1      41.055 -10.849   0.132  1.00  0.00     0.061 C 
HETATM   27  C   UNL     1      39.519 -12.000  -1.416  1.00  0.00     0.047 C 
HETATM   28  C   UNL     1      40.012 -14.374  -0.397  1.00  0.00     0.268 A 
HETATM   29  C   UNL     1      39.843 -10.637  -0.790  1.00  0.00     0.011 C 
HETATM   30  O   UNL     1      39.265 -14.992  -1.139  1.00  0.00    -0.267 OA
HETATM   31  N   UNL     1      40.768 -14.951   0.583  1.00  0.00    -0.152 N 
HETATM   32  H   UNL     1      40.712 -15.957   0.715  1.00  0.00     0.188 HD
ENDBRANCH   2  22
BRANCH   4  33
HETATM   33  C   UNL     1      43.416 -18.352   3.153  1.00  0.00     0.035 A 
HETATM   34  S   UNL     1      44.116 -19.095   4.526  1.00  0.00    -0.100 SA
HETATM   35  C   UNL     1      44.103 -20.635   3.782  1.00  0.00     0.050 A 
HETATM   36  C   UNL     1      43.583 -20.587   2.508  1.00  0.00     0.008 A 
HETATM   37  C   UNL     1      43.187 -19.265   2.143  1.00  0.00     0.022 A 
ENDBRANCH   4  33
TORSDOF 6
ENDMDL
MODEL 6
REMARK VINA RESULT:      -9.6      4.992      9.856
REMARK  6 active torsions:
REMARK  status: ('A' for Active; 'I' for Inactive)
REMARK    1  A    between atoms: C_9  and  O_10 
REMARK    2  A    between atoms: O_10  and  C_11 
REMARK    3  A    between atoms: C_11  and  C_12 
REMARK       I    between atoms: C_12  and  N_13 
REMARK    4  A    between atoms: N_13  and  C_14 
REMARK    5  A    between atoms: N_15  and  C_16 
REMARK    6  A    between atoms: C_27  and  C_28 
ROOT
HETATM    1  C   UNL     1      43.326 -10.392   9.547  1.00  0.00     0.152 A 
HETATM    2  N   UNL     1      42.176  -9.675   9.242  1.00  0.00    -0.044 N 
HETATM    3  N   UNL     1      41.714  -8.953  10.311  1.00  0.00    -0.150 NA
HETATM    4  C   UNL     1      42.586  -9.215  11.291  1.00  0.00     0.099 A 
HETATM    5  C   UNL     1      43.582 -10.122  10.874  1.00  0.00     0.086 A 
ENDROOT
BRANCH   1   6
HETATM    6  N   UNL     1      44.019 -11.163   8.619  1.00  0.00    -0.309 N 
HETATM    7  C   UNL     1      45.012 -10.635   7.812  1.00  0.00     0.247 C 
HETATM    8  O   UNL     1      45.487  -9.503   7.908  1.00  0.00    -0.271 OA
HETATM    9  H   UNL     1      43.778 -12.153   8.523  1.00  0.00     0.170 HD
BRANCH   7  10
HETATM   10  C   UNL     1      45.422 -11.537   6.650  1.00  0.00     0.278 C 
BRANCH  10  11
HETATM   11  O   UNL     1      44.954 -11.116   5.377  1.00  0.00    -0.342 OA
BRANCH  11  12
HETATM   12  C   UNL     1      43.732 -11.636   5.018  1.00  0.00     0.070 A 
HETATM   13  C   UNL     1      42.947 -12.472   5.814  1.00  0.00     0.037 A 
HETATM   14  C   UNL     1      41.709 -12.931   5.355  1.00  0.00     0.015 A 
HETATM   15  C   UNL     1      41.234 -12.565   4.089  1.00  0.00    -0.026 A 
HETATM   16  C   UNL     1      39.986 -13.011   3.626  1.00  0.00     0.012 A 
HETATM   17  C   UNL     1      42.027 -11.731   3.270  1.00  0.00    -0.023 A 
HETATM   18  C   UNL     1      39.520 -12.637   2.365  1.00  0.00     0.001 A 
HETATM   19  C   UNL     1      40.297 -11.816   1.555  1.00  0.00     0.001 A 
HETATM   20  C   UNL     1      41.542 -11.366   2.002  1.00  0.00     0.012 A 
HETATM   21  C   UNL     1      43.274 -11.283   3.745  1.00  0.00     0.049 A 
ENDBRANCH  11  12
ENDBRANCH  10  11
ENDBRANCH   7  10
ENDBRANCH   1   6
BRANCH   2  22
HETATM   22  C   UNL     1      41.484  -9.593   8.019  1.00  0.00     0.732 A 
HETATM   23  N   UNL     1      41.923  -8.947   6.979  1.00  0.00    -0.067 NA
HETATM   24  C   UNL     1      41.083  -9.000   5.900  1.00  0.00     0.065 A 
HETATM   25  C   UNL     1      39.914  -9.639   5.843  1.00  0.00     0.036 A 
HETATM   26  C   UNL     1      41.388  -8.328   4.603  1.00  0.00     0.061 C 
HETATM   27  C   UNL     1      39.230  -9.519   4.537  1.00  0.00     0.047 C 
HETATM   28  C   UNL     1      39.435 -10.360   7.021  1.00  0.00     0.268 A 
HETATM   29  C   UNL     1      40.040  -8.400   3.868  1.00  0.00     0.011 C 
HETATM   30  O   UNL     1      38.374 -10.966   7.040  1.00  0.00    -0.267 OA
HETATM   31  N   UNL     1      40.292 -10.284   8.080  1.00  0.00    -0.152 N 
HETATM   32  H   UNL     1      40.044 -10.753   8.945  1.00  0.00     0.188 HD
ENDBRANCH   2  22
BRANCH   4  33
HETATM   33  C   UNL     1      42.484  -8.569  12.642  1.00  0.00     0.035 A 
HETATM   34  S   UNL     1      41.289  -8.949  13.805  1.00  0.00    -0.100 SA
HETATM   35  C   UNL     1      41.941  -7.842  14.934  1.00  0.00     0.050 A 
HETATM   36  C   UNL     1      43.043  -7.187  14.435  1.00  0.00     0.008 A 
HETATM   37  C   UNL     1      43.357  -7.605  13.107  1.00  0.00     0.022 A 
ENDBRANCH   4  33
TORSDOF 6
ENDMDL
MODEL 7
REMARK VINA RESULT:      -9.5      4.119      6.532
REMARK  6 active torsions:
REMARK  status: ('A' for Active; 'I' for Inactive)
REMARK    1  A    between atoms: C_9  and  O_10 
REMARK    2  A    between atoms: O_10  and  C_11 
REMARK    3  A    between atoms: C_11  and  C_12 
REMARK       I    between atoms: C_12  and  N_13 
REMARK    4  A    between atoms: N_13  and  C_14 
REMARK    5  A    between atoms: N_15  and  C_16 
REMARK    6  A    between atoms: C_27  and  C_28 
ROOT
HETATM    1  C   UNL     1      43.373 -13.140   6.558  1.00  0.00     0.152 A 
HETATM    2  N   UNL     1      42.306 -13.024   5.676  1.00  0.00    -0.044 N 
HETATM    3  N   UNL     1      42.184 -14.118   4.860  1.00  0.00    -0.150 NA
HETATM    4  C   UNL     1      43.178 -14.929   5.240  1.00  0.00     0.099 A 
HETATM    5  C   UNL     1      43.956 -14.354   6.265  1.00  0.00     0.086 A 
ENDROOT
BRANCH   1   6
HETATM    6  N   UNL     1      43.679 -12.188   7.524  1.00  0.00    -0.309 N 
HETATM    7  C   UNL     1      44.714 -11.282   7.370  1.00  0.00     0.247 C 
HETATM    8  O   UNL     1      45.373 -11.116   6.343  1.00  0.00    -0.271 OA
HETATM    9  H   UNL     1      43.125 -12.164   8.385  1.00  0.00     0.170 HD
BRANCH   7  10
HETATM   10  C   UNL     1      45.101 -10.546   8.651  1.00  0.00     0.278 C 
BRANCH  10  11
HETATM   11  O   UNL     1      44.371 -10.936   9.805  1.00  0.00    -0.342 OA
BRANCH  11  12
HETATM   12  C   UNL     1      43.822  -9.892  10.513  1.00  0.00     0.070 A 
HETATM   13  C   UNL     1      43.383  -9.960  11.836  1.00  0.00     0.037 A 
HETATM   14  C   UNL     1      42.854  -8.829  12.466  1.00  0.00     0.015 A 
HETATM   15  C   UNL     1      42.751  -7.611  11.783  1.00  0.00    -0.026 A 
HETATM   16  C   UNL     1      42.234  -6.468  12.413  1.00  0.00     0.012 A 
HETATM   17  C   UNL     1      43.180  -7.536  10.439  1.00  0.00    -0.023 A 
HETATM   18  C   UNL     1      42.139  -5.257  11.725  1.00  0.00     0.001 A 
HETATM   19  C   UNL     1      42.560  -5.178  10.402  1.00  0.00     0.001 A 
HETATM   20  C   UNL     1      43.076  -6.309   9.761  1.00  0.00     0.012 A 
HETATM   21  C   UNL     1      43.704  -8.685   9.818  1.00  0.00     0.049 A 
ENDBRANCH  11  12
ENDBRANCH  10  11
ENDBRANCH   7  10
ENDBRANCH   1   6
BRANCH   2  22
HETATM   22  C   UNL     1      41.375 -11.976   5.549  1.00  0.00     0.732 A 
HETATM   23  N   UNL     1      41.466 -11.030   4.660  1.00  0.00    -0.067 NA
HETATM   24  C   UNL     1      40.450 -10.115   4.721  1.00  0.00     0.065 A 
HETATM   25  C   UNL     1      39.429 -10.129   5.579  1.00  0.00     0.036 A 
HETATM   26  C   UNL     1      40.357  -8.947   3.797  1.00  0.00     0.061 C 
HETATM   27  C   UNL     1      38.483  -9.005   5.399  1.00  0.00     0.047 C 
HETATM   28  C   UNL     1      39.342 -11.198   6.571  1.00  0.00     0.268 A 
HETATM   29  C   UNL     1      39.278  -8.081   4.468  1.00  0.00     0.011 C 
HETATM   30  O   UNL     1      38.435 -11.273   7.387  1.00  0.00    -0.267 OA
HETATM   31  N   UNL     1      40.371 -12.091   6.486  1.00  0.00    -0.152 N 
HETATM   32  H   UNL     1      40.398 -12.870   7.138  1.00  0.00     0.188 HD
ENDBRANCH   2  22
BRANCH   4  33
HETATM   33  C   UNL     1      43.373 -16.287   4.632  1.00  0.00     0.035 A 
HETATM   34  S   UNL     1      44.005 -17.637   5.472  1.00  0.00    -0.100 SA
HETATM   35  C   UNL     1      43.830 -18.652   4.106  1.00  0.00     0.050 A 
HETATM   36  C   UNL     1      43.309 -17.977   3.026  1.00  0.00     0.008 A 
HETATM   37  C   UNL     1      43.046 -16.607   3.330  1.00  0.00     0.022 A 
ENDBRANCH   4  33
TORSDOF 6
ENDMDL
MODEL 8
REMARK VINA RESULT:      -9.4      3.367      6.240
REMARK  6 active torsions:
REMARK  status: ('A' for Active; 'I' for Inactive)
REMARK    1  A    between atoms: C_9  and  O_10 
REMARK    2  A    between atoms: O_10  and  C_11 
REMARK    3  A    between atoms: C_11  and  C_12 
REMARK       I    between atoms: C_12  and  N_13 
REMARK    4  A    between atoms: N_13  and  C_14 
REMARK    5  A    between atoms: N_15  and  C_16 
REMARK    6  A    between atoms: C_27  and  C_28 
ROOT
HETATM    1  C   UNL     1      43.347 -13.953   6.453  1.00  0.00     0.152 A 
HETATM    2  N   UNL     1      42.343 -13.988   5.494  1.00  0.00    -0.044 N 
HETATM    3  N   UNL     1      42.298 -15.187   4.831  1.00  0.00    -0.150 NA
HETATM    4  C   UNL     1      43.277 -15.911   5.387  1.00  0.00     0.099 A 
HETATM    5  C   UNL     1      43.971 -15.179   6.372  1.00  0.00     0.086 A 
ENDROOT
BRANCH   1   6
HETATM    6  N   UNL     1      43.567 -12.868   7.295  1.00  0.00    -0.309 N 
HETATM    7  C   UNL     1      44.404 -11.820   6.949  1.00  0.00     0.247 C 
HETATM    8  O   UNL     1      44.922 -11.652   5.846  1.00  0.00    -0.271 OA
HETATM    9  H   UNL     1      43.103 -12.849   8.207  1.00  0.00     0.170 HD
BRANCH   7  10
HETATM   10  C   UNL     1      44.773 -10.901   8.112  1.00  0.00     0.278 C 
BRANCH  10  11
HETATM   11  O   UNL     1      44.154 -11.228   9.348  1.00  0.00    -0.342 OA
BRANCH  11  12
HETATM   12  C   UNL     1      43.783 -10.142  10.106  1.00  0.00     0.070 A 
HETATM   13  C   UNL     1      43.829  -8.812   9.684  1.00  0.00     0.037 A 
HETATM   14  C   UNL     1      43.411  -7.784  10.534  1.00  0.00     0.015 A 
HETATM   15  C   UNL     1      42.943  -8.066  11.823  1.00  0.00    -0.026 A 
HETATM   16  C   UNL     1      42.509  -7.040  12.678  1.00  0.00     0.012 A 
HETATM   17  C   UNL     1      42.906  -9.408  12.265  1.00  0.00    -0.023 A 
HETATM   18  C   UNL     1      42.040  -7.332  13.959  1.00  0.00     0.001 A 
HETATM   19  C   UNL     1      42.002  -8.651  14.399  1.00  0.00     0.001 A 
HETATM   20  C   UNL     1      42.433  -9.682  13.560  1.00  0.00     0.012 A 
HETATM   21  C   UNL     1      43.337 -10.430  11.399  1.00  0.00     0.049 A 
ENDBRANCH  11  12
ENDBRANCH  10  11
ENDBRANCH   7  10
ENDBRANCH   1   6
BRANCH   2  22
HETATM   22  C   UNL     1      41.405 -12.994   5.159  1.00  0.00     0.732 A 
HETATM   23  N   UNL     1      40.911 -12.147   6.014  1.00  0.00    -0.067 NA
HETATM   24  C   UNL     1      40.014 -11.269   5.467  1.00  0.00     0.065 A 
HETATM   25  C   UNL     1      39.637 -11.224   4.189  1.00  0.00     0.036 A 
HETATM   26  C   UNL     1      39.324 -10.215   6.266  1.00  0.00     0.061 C 
HETATM   27  C   UNL     1      38.650 -10.161   3.895  1.00  0.00     0.047 C 
HETATM   28  C   UNL     1      40.201 -12.182   3.241  1.00  0.00     0.268 A 
HETATM   29  C   UNL     1      38.219  -9.743   5.307  1.00  0.00     0.011 C 
HETATM   30  O   UNL     1      39.901 -12.199   2.057  1.00  0.00    -0.267 OA
HETATM   31  N   UNL     1      41.089 -13.045   3.818  1.00  0.00    -0.152 N 
HETATM   32  H   UNL     1      41.532 -13.750   3.238  1.00  0.00     0.188 HD
ENDBRANCH   2  22
BRANCH   4  33
HETATM   33  C   UNL     1      43.538 -17.334   4.990  1.00  0.00     0.035 A 
HETATM   34  S   UNL     1      43.664 -17.876   3.372  1.00  0.00    -0.100 SA
HETATM   35  C   UNL     1      43.983 -19.483   3.865  1.00  0.00     0.050 A 
HETATM   36  C   UNL     1      43.987 -19.610   5.236  1.00  0.00     0.008 A 
HETATM   37  C   UNL     1      43.726 -18.366   5.887  1.00  0.00     0.022 A 
ENDBRANCH   4  33
TORSDOF 6
ENDMDL
MODEL 9
REMARK VINA RESULT:      -9.4      3.195      5.643
REMARK  6 active torsions:
REMARK  status: ('A' for Active; 'I' for Inactive)
REMARK    1  A    between atoms: C_9  and  O_10 
REMARK    2  A    between atoms: O_10  and  C_11 
REMARK    3  A    between atoms: C_11  and  C_12 
REMARK       I    between atoms: C_12  and  N_13 
REMARK    4  A    between atoms: N_13  and  C_14 
REMARK    5  A    between atoms: N_15  and  C_16 
REMARK    6  A    between atoms: C_27  and  C_28 
ROOT
HETATM    1  C   UNL     1      40.362 -12.127   5.968  1.00  0.00     0.152 A 
HETATM    2  N   UNL     1      41.701 -12.221   5.613  1.00  0.00    -0.044 N 
HETATM    3  N   UNL     1      41.887 -12.944   4.464  1.00  0.00    -0.150 NA
HETATM    4  C   UNL     1      40.652 -13.299   4.092  1.00  0.00     0.099 A 
HETATM    5  C   UNL     1      39.681 -12.842   5.007  1.00  0.00     0.086 A 
ENDROOT
BRANCH   1   6
HETATM    6  N   UNL     1      39.906 -11.403   7.065  1.00  0.00    -0.309 N 
HETATM    7  C   UNL     1      39.387 -10.125   6.945  1.00  0.00     0.247 C 
HETATM    8  O   UNL     1      39.140  -9.549   5.886  1.00  0.00    -0.271 OA
HETATM    9  H   UNL     1      39.967 -11.827   7.994  1.00  0.00     0.170 HD
BRANCH   7  10
HETATM   10  C   UNL     1      39.248  -9.377   8.270  1.00  0.00     0.278 C 
BRANCH  10  11
HETATM   11  O   UNL     1      38.786 -10.169   9.354  1.00  0.00    -0.342 OA
BRANCH  11  12
HETATM   12  C   UNL     1      39.444  -9.951  10.542  1.00  0.00     0.070 A 
HETATM   13  C   UNL     1      39.134 -10.563  11.758  1.00  0.00     0.037 A 
HETATM   14  C   UNL     1      39.882 -10.279  12.905  1.00  0.00     0.015 A 
HETATM   15  C   UNL     1      40.951  -9.375  12.858  1.00  0.00    -0.026 A 
HETATM   16  C   UNL     1      41.715  -9.094  14.002  1.00  0.00     0.012 A 
HETATM   17  C   UNL     1      41.263  -8.740  11.635  1.00  0.00    -0.023 A 
HETATM   18  C   UNL     1      42.780  -8.195  13.944  1.00  0.00     0.001 A 
HETATM   19  C   UNL     1      43.091  -7.567  12.742  1.00  0.00     0.001 A 
HETATM   20  C   UNL     1      42.338  -7.835  11.596  1.00  0.00     0.012 A 
HETATM   21  C   UNL     1      40.496  -9.032  10.491  1.00  0.00     0.049 A 
ENDBRANCH  11  12
ENDBRANCH  10  11
ENDBRANCH   7  10
ENDBRANCH   1   6
BRANCH   2  22
HETATM   22  C   UNL     1      42.826 -11.668   6.255  1.00  0.00     0.732 A 
HETATM   23  N   UNL     1      42.805 -11.178   7.460  1.00  0.00    -0.067 NA
HETATM   24  C   UNL     1      44.014 -10.693   7.881  1.00  0.00     0.065 A 
HETATM   25  C   UNL     1      45.148 -10.692   7.180  1.00  0.00     0.036 A 
HETATM   26  C   UNL     1      44.217 -10.085   9.228  1.00  0.00     0.061 C 
HETATM   27  C   UNL     1      46.296 -10.099   7.902  1.00  0.00     0.047 C 
HETATM   28  C   UNL     1      45.155 -11.245   5.827  1.00  0.00     0.268 A 
HETATM   29  C   UNL     1      45.596  -9.419   9.085  1.00  0.00     0.011 C 
HETATM   30  O   UNL     1      46.157 -11.276   5.129  1.00  0.00    -0.267 OA
HETATM   31  N   UNL     1      43.934 -11.717   5.437  1.00  0.00    -0.152 N 
HETATM   32  H   UNL     1      43.840 -12.119   4.509  1.00  0.00     0.188 HD
ENDBRANCH   2  22
BRANCH   4  33
HETATM   33  C   UNL     1      40.390 -14.066   2.829  1.00  0.00     0.035 A 
HETATM   34  S   UNL     1      40.357 -13.368   1.267  1.00  0.00    -0.100 SA
HETATM   35  C   UNL     1      40.057 -14.880   0.526  1.00  0.00     0.050 A 
HETATM   36  C   UNL     1      39.975 -15.899   1.448  1.00  0.00     0.008 A 
HETATM   37  C   UNL     1      40.165 -15.427   2.782  1.00  0.00     0.022 A 
ENDBRANCH   4  33
TORSDOF 6
ENDMDL
MODEL 10
REMARK VINA RESULT:      -9.3      4.282      8.142
REMARK  6 active torsions:
REMARK  status: ('A' for Active; 'I' for Inactive)
REMARK    1  A    between atoms: C_9  and  O_10 
REMARK    2  A    between atoms: O_10  and  C_11 
REMARK    3  A    between atoms: C_11  and  C_12 
REMARK       I    between atoms: C_12  and  N_13 
REMARK    4  A    between atoms: N_13  and  C_14 
REMARK    5  A    between atoms: N_15  and  C_16 
REMARK    6  A    between atoms: C_27  and  C_28 
ROOT
HETATM    1  C   UNL     1      41.969 -13.387   2.574  1.00  0.00     0.152 A 
HETATM    2  N   UNL     1      41.402 -14.049   1.493  1.00  0.00    -0.044 N 
HETATM    3  N   UNL     1      41.734 -15.378   1.462  1.00  0.00    -0.150 NA
HETATM    4  C   UNL     1      42.511 -15.551   2.538  1.00  0.00     0.099 A 
HETATM    5  C   UNL     1      42.708 -14.343   3.238  1.00  0.00     0.086 A 
ENDROOT
BRANCH   1   6
HETATM    6  N   UNL     1      41.744 -12.045   2.858  1.00  0.00    -0.309 N 
HETATM    7  C   UNL     1      40.663 -11.618   3.611  1.00  0.00     0.247 C 
HETATM    8  O   UNL     1      39.881 -12.349   4.218  1.00  0.00    -0.271 OA
HETATM    9  H   UNL     1      42.394 -11.346   2.488  1.00  0.00     0.170 HD
BRANCH   7  10
HETATM   10  C   UNL     1      40.402 -10.115   3.540  1.00  0.00     0.278 C 
BRANCH  10  11
HETATM   11  O   UNL     1      41.217  -9.413   2.612  1.00  0.00    -0.342 OA
BRANCH  11  12
HETATM   12  C   UNL     1      40.603  -9.127   1.416  1.00  0.00     0.070 A 
HETATM   13  C   UNL     1      39.424  -8.392   1.271  1.00  0.00     0.037 A 
HETATM   14  C   UNL     1      38.895  -8.146   0.000  1.00  0.00     0.015 A 
HETATM   15  C   UNL     1      39.531  -8.633  -1.149  1.00  0.00    -0.026 A 
HETATM   16  C   UNL     1      39.013  -8.379  -2.428  1.00  0.00     0.012 A 
HETATM   17  C   UNL     1      40.717  -9.390  -1.011  1.00  0.00    -0.023 A 
HETATM   18  C   UNL     1      39.657  -8.865  -3.566  1.00  0.00     0.001 A 
HETATM   19  C   UNL     1      40.824  -9.610  -3.436  1.00  0.00     0.001 A 
HETATM   20  C   UNL     1      41.351  -9.873  -2.169  1.00  0.00     0.012 A 
HETATM   21  C   UNL     1      41.233  -9.634   0.276  1.00  0.00     0.049 A 
ENDBRANCH  11  12
ENDBRANCH  10  11
ENDBRANCH   7  10
ENDBRANCH   1   6
BRANCH   2  22
HETATM   22  C   UNL     1      40.552 -13.540   0.492  1.00  0.00     0.732 A 
HETATM   23  N   UNL     1      39.529 -12.772   0.731  1.00  0.00    -0.067 NA
HETATM   24  C   UNL     1      38.844 -12.398  -0.393  1.00  0.00     0.065 A 
HETATM   25  C   UNL     1      39.140 -12.744  -1.646  1.00  0.00     0.036 A 
HETATM   26  C   UNL     1      37.637 -11.522  -0.350  1.00  0.00     0.061 C 
HETATM   27  C   UNL     1      38.215 -12.182  -2.655  1.00  0.00     0.047 C 
HETATM   28  C   UNL     1      40.292 -13.607  -1.898  1.00  0.00     0.268 A 
HETATM   29  C   UNL     1      37.069 -11.673  -1.771  1.00  0.00     0.011 C 
HETATM   30  O   UNL     1      40.621 -13.963  -3.019  1.00  0.00    -0.267 OA
HETATM   31  N   UNL     1      40.951 -13.965  -0.757  1.00  0.00    -0.152 N 
HETATM   32  H   UNL     1      41.766 -14.566  -0.831  1.00  0.00     0.188 HD
ENDBRANCH   2  22
BRANCH   4  33
HETATM   33  C   UNL     1      43.053 -16.897   2.921  1.00  0.00     0.035 A 
HETATM   34  S   UNL     1      43.734 -17.264   4.446  1.00  0.00    -0.100 SA
HETATM   35  C   UNL     1      44.007 -18.895   4.006  1.00  0.00     0.050 A 
HETATM   36  C   UNL     1      43.596 -19.156   2.718  1.00  0.00     0.008 A 
HETATM   37  C   UNL     1      43.046 -17.999   2.089  1.00  0.00     0.022 A 
ENDBRANCH   4  33
TORSDOF 6
ENDMDL
