MODEL 1
REMARK VINA RESULT:      -8.3      0.000      0.000
REMARK  7 active torsions:
REMARK  status: ('A' for Active; 'I' for Inactive)
REMARK       I    between atoms: N_2  and  C_3 
REMARK    1  A    between atoms: N_2  and  C_17 
REMARK       I    between atoms: C_3  and  N_4 
REMARK    2  A    between atoms: N_4  and  C_5 
REMARK    3  A    between atoms: N_6  and  C_7 
REMARK    4  A    between atoms: C_17  and  C_18 
REMARK    5  A    between atoms: C_18  and  C_19 
REMARK    6  A    between atoms: C_19  and  O_20 
REMARK    7  A    between atoms: C_19  and  C_21 
ROOT
HETATM    1  C   UNL     1      42.277 -13.775   4.947  1.00  0.00     0.154 C 
HETATM    2  N   UNL     1      43.061 -13.612   6.162  1.00  0.00    -0.343 N 
HETATM    3  C   UNL     1      43.551 -12.332   6.434  1.00  0.00     0.301 C 
HETATM    4  N   UNL     1      44.363 -12.263   7.558  1.00  0.00    -0.194 NA
HETATM    5  O   UNL     1      43.295 -11.376   5.703  1.00  0.00    -0.254 OA
HETATM    6  H   UNL     1      45.015 -13.040   7.546  1.00  0.00     0.140 HD
ENDROOT
BRANCH   2   7
HETATM    7  C   UNL     1      42.938 -14.663   7.173  1.00  0.00     0.129 C 
BRANCH   7   8
HETATM    8  C   UNL     1      42.512 -16.030   6.621  1.00  0.00     0.056 C 
BRANCH   8   9
HETATM    9  C   UNL     1      43.647 -17.040   6.381  1.00  0.00     0.152 C 
BRANCH   9  10
HETATM   10  O   UNL     1      44.893 -16.344   6.490  1.00  0.00    -0.391 OA
HETATM   11  H   UNL     1      44.809 -15.717   7.229  1.00  0.00     0.210 HD
ENDBRANCH   9  10
BRANCH   9  12
HETATM   12  C   UNL     1      43.657 -17.853   5.099  1.00  0.00    -0.030 A 
HETATM   13  C   UNL     1      43.330 -17.221   3.884  1.00  0.00     0.010 A 
HETATM   14  C   UNL     1      43.362 -17.913   2.672  1.00  0.00     0.001 A 
HETATM   15  C   UNL     1      43.726 -19.253   2.649  1.00  0.00     0.000 A 
HETATM   16  C   UNL     1      44.071 -19.895   3.836  1.00  0.00     0.001 A 
HETATM   17  C   UNL     1      44.050 -19.197   5.048  1.00  0.00     0.010 A 
ENDBRANCH   9  12
ENDBRANCH   8   9
ENDBRANCH   7   8
ENDBRANCH   2   7
BRANCH   4  18
HETATM   18  C   UNL     1      44.963 -11.039   7.822  1.00  0.00     0.109 A 
HETATM   19  N   UNL     1      44.380  -9.986   8.504  1.00  0.00    -0.254 N 
HETATM   20  N   UNL     1      45.192  -8.899   8.539  1.00  0.00    -0.183 NA
HETATM   21  C   UNL     1      46.311  -9.304   7.939  1.00  0.00     0.142 A 
HETATM   22  C   UNL     1      46.242 -10.640   7.517  1.00  0.00     0.065 A 
BRANCH  19  23
HETATM   23  C   UNL     1      43.219 -10.059   9.398  1.00  0.00     0.111 C 
HETATM   24  C   UNL     1      43.581 -10.212  10.896  1.00  0.00     0.027 C 
HETATM   25  C   UNL     1      43.960  -8.898  11.587  1.00  0.00     0.002 C 
HETATM   26  C   UNL     1      42.941  -7.793  11.332  1.00  0.00     0.000 C 
HETATM   27  C   UNL     1      42.668  -7.611   9.845  1.00  0.00     0.002 C 
HETATM   28  C   UNL     1      42.212  -8.919   9.207  1.00  0.00     0.027 C 
ENDBRANCH  19  23
ENDBRANCH   4  18
TORSDOF 7
ENDMDL
MODEL 2
REMARK VINA RESULT:      -8.0      5.909      8.938
REMARK  7 active torsions:
REMARK  status: ('A' for Active; 'I' for Inactive)
REMARK       I    between atoms: N_2  and  C_3 
REMARK    1  A    between atoms: N_2  and  C_17 
REMARK       I    between atoms: C_3  and  N_4 
REMARK    2  A    between atoms: N_4  and  C_5 
REMARK    3  A    between atoms: N_6  and  C_7 
REMARK    4  A    between atoms: C_17  and  C_18 
REMARK    5  A    between atoms: C_18  and  C_19 
REMARK    6  A    between atoms: C_19  and  O_20 
REMARK    7  A    between atoms: C_19  and  C_21 
ROOT
HETATM    1  C   UNL     1      41.073 -13.614   3.499  1.00  0.00     0.154 C 
HETATM    2  N   UNL     1      41.475 -13.971   2.146  1.00  0.00    -0.343 N 
HETATM    3  C   UNL     1      40.585 -13.655   1.115  1.00  0.00     0.301 C 
HETATM    4  N   UNL     1      40.988 -14.100  -0.136  1.00  0.00    -0.194 NA
HETATM    5  O   UNL     1      39.529 -13.064   1.335  1.00  0.00    -0.254 OA
HETATM    6  H   UNL     1      41.323 -15.054  -0.059  1.00  0.00     0.140 HD
ENDROOT
BRANCH   2   7
HETATM    7  C   UNL     1      42.896 -14.247   1.932  1.00  0.00     0.129 C 
BRANCH   7   8
HETATM    8  C   UNL     1      43.251 -15.739   1.871  1.00  0.00     0.056 C 
BRANCH   8   9
HETATM    9  C   UNL     1      42.999 -16.542   3.159  1.00  0.00     0.152 C 
BRANCH   9  10
HETATM   10  O   UNL     1      43.700 -15.900   4.229  1.00  0.00    -0.391 OA
HETATM   11  H   UNL     1      44.109 -15.096   3.864  1.00  0.00     0.210 HD
ENDBRANCH   9  10
BRANCH   9  12
HETATM   12  C   UNL     1      43.328 -18.023   3.185  1.00  0.00    -0.030 A 
HETATM   13  C   UNL     1      43.887 -18.582   4.351  1.00  0.00     0.010 A 
HETATM   14  C   UNL     1      44.171 -19.946   4.441  1.00  0.00     0.001 A 
HETATM   15  C   UNL     1      43.898 -20.782   3.366  1.00  0.00     0.000 A 
HETATM   16  C   UNL     1      43.330 -20.256   2.209  1.00  0.00     0.001 A 
HETATM   17  C   UNL     1      43.034 -18.891   2.125  1.00  0.00     0.010 A 
ENDBRANCH   9  12
ENDBRANCH   8   9
ENDBRANCH   7   8
ENDBRANCH   2   7
BRANCH   4  18
HETATM   18  C   UNL     1      40.098 -13.907  -1.184  1.00  0.00     0.109 A 
HETATM   19  N   UNL     1      40.014 -12.773  -1.972  1.00  0.00    -0.254 N 
HETATM   20  N   UNL     1      38.997 -12.858  -2.868  1.00  0.00    -0.183 NA
HETATM   21  C   UNL     1      38.496 -14.078  -2.682  1.00  0.00     0.142 A 
HETATM   22  C   UNL     1      39.173 -14.792  -1.683  1.00  0.00     0.065 A 
BRANCH  19  23
HETATM   23  C   UNL     1      41.045 -11.742  -2.133  1.00  0.00     0.111 C 
HETATM   24  C   UNL     1      40.945 -10.946  -3.457  1.00  0.00     0.027 C 
HETATM   25  C   UNL     1      39.903  -9.822  -3.436  1.00  0.00     0.002 C 
HETATM   26  C   UNL     1      40.042  -8.924  -2.213  1.00  0.00     0.000 C 
HETATM   27  C   UNL     1      40.056  -9.730  -0.921  1.00  0.00     0.002 C 
HETATM   28  C   UNL     1      41.158 -10.782  -0.942  1.00  0.00     0.027 C 
ENDBRANCH  19  23
ENDBRANCH   4  18
TORSDOF 7
ENDMDL
MODEL 3
REMARK VINA RESULT:      -7.9      1.101      1.539
REMARK  7 active torsions:
REMARK  status: ('A' for Active; 'I' for Inactive)
REMARK       I    between atoms: N_2  and  C_3 
REMARK    1  A    between atoms: N_2  and  C_17 
REMARK       I    between atoms: C_3  and  N_4 
REMARK    2  A    between atoms: N_4  and  C_5 
REMARK    3  A    between atoms: N_6  and  C_7 
REMARK    4  A    between atoms: C_17  and  C_18 
REMARK    5  A    between atoms: C_18  and  C_19 
REMARK    6  A    between atoms: C_19  and  O_20 
REMARK    7  A    between atoms: C_19  and  C_21 
ROOT
HETATM    1  C   UNL     1      40.691 -11.897   4.452  1.00  0.00     0.154 C 
HETATM    2  N   UNL     1      41.573 -12.399   5.495  1.00  0.00    -0.343 N 
HETATM    3  C   UNL     1      42.501 -11.499   6.028  1.00  0.00     0.301 C 
HETATM    4  N   UNL     1      43.368 -12.064   6.954  1.00  0.00    -0.194 NA
HETATM    5  O   UNL     1      42.541 -10.325   5.665  1.00  0.00    -0.254 OA
HETATM    6  H   UNL     1      43.703 -12.953   6.597  1.00  0.00     0.140 HD
ENDROOT
BRANCH   2   7
HETATM    7  C   UNL     1      41.166 -13.634   6.164  1.00  0.00     0.129 C 
BRANCH   7   8
HETATM    8  C   UNL     1      41.343 -14.904   5.320  1.00  0.00     0.056 C 
BRANCH   8   9
HETATM    9  C   UNL     1      42.560 -15.778   5.669  1.00  0.00     0.152 C 
BRANCH   9  10
HETATM   10  O   UNL     1      43.645 -14.912   6.019  1.00  0.00    -0.391 OA
HETATM   11  H   UNL     1      43.363 -14.002   5.819  1.00  0.00     0.210 HD
ENDBRANCH   9  10
BRANCH   9  12
HETATM   12  C   UNL     1      43.058 -16.793   4.658  1.00  0.00    -0.030 A 
HETATM   13  C   UNL     1      43.952 -17.798   5.077  1.00  0.00     0.010 A 
HETATM   14  C   UNL     1      44.410 -18.779   4.195  1.00  0.00     0.001 A 
HETATM   15  C   UNL     1      43.979 -18.778   2.875  1.00  0.00     0.000 A 
HETATM   16  C   UNL     1      43.082 -17.806   2.442  1.00  0.00     0.001 A 
HETATM   17  C   UNL     1      42.615 -16.831   3.329  1.00  0.00     0.010 A 
ENDBRANCH   9  12
ENDBRANCH   8   9
ENDBRANCH   7   8
ENDBRANCH   2   7
BRANCH   4  18
HETATM   18  C   UNL     1      44.378 -11.246   7.442  1.00  0.00     0.109 A 
HETATM   19  N   UNL     1      44.250 -10.340   8.480  1.00  0.00    -0.254 N 
HETATM   20  N   UNL     1      45.395  -9.638   8.678  1.00  0.00    -0.183 NA
HETATM   21  C   UNL     1      46.257 -10.163   7.809  1.00  0.00     0.142 A 
HETATM   22  C   UNL     1      45.694 -11.198   7.050  1.00  0.00     0.065 A 
BRANCH  19  23
HETATM   23  C   UNL     1      43.196 -10.323   9.501  1.00  0.00     0.111 C 
HETATM   24  C   UNL     1      43.724 -10.294  10.956  1.00  0.00     0.027 C 
HETATM   25  C   UNL     1      44.142  -8.902  11.444  1.00  0.00     0.002 C 
HETATM   26  C   UNL     1      43.073  -7.849  11.179  1.00  0.00     0.000 C 
HETATM   27  C   UNL     1      42.633  -7.847   9.721  1.00  0.00     0.002 C 
HETATM   28  C   UNL     1      42.144  -9.226   9.294  1.00  0.00     0.027 C 
ENDBRANCH  19  23
ENDBRANCH   4  18
TORSDOF 7
ENDMDL
MODEL 4
REMARK VINA RESULT:      -7.9      5.443      8.342
REMARK  7 active torsions:
REMARK  status: ('A' for Active; 'I' for Inactive)
REMARK       I    between atoms: N_2  and  C_3 
REMARK    1  A    between atoms: N_2  and  C_17 
REMARK       I    between atoms: C_3  and  N_4 
REMARK    2  A    between atoms: N_4  and  C_5 
REMARK    3  A    between atoms: N_6  and  C_7 
REMARK    4  A    between atoms: C_17  and  C_18 
REMARK    5  A    between atoms: C_18  and  C_19 
REMARK    6  A    between atoms: C_19  and  O_20 
REMARK    7  A    between atoms: C_19  and  C_21 
ROOT
HETATM    1  C   UNL     1      41.207 -14.481   5.252  1.00  0.00     0.154 C 
HETATM    2  N   UNL     1      40.477 -14.599   3.999  1.00  0.00    -0.343 N 
HETATM    3  C   UNL     1      40.232 -13.416   3.294  1.00  0.00     0.301 C 
HETATM    4  N   UNL     1      39.457 -13.587   2.155  1.00  0.00    -0.194 NA
HETATM    5  O   UNL     1      40.652 -12.331   3.692  1.00  0.00    -0.254 OA
HETATM    6  H   UNL     1      38.673 -14.193   2.374  1.00  0.00     0.140 HD
ENDROOT
BRANCH   2   7
HETATM    7  C   UNL     1      40.415 -15.929   3.394  1.00  0.00     0.129 C 
BRANCH   7   8
HETATM    8  C   UNL     1      41.329 -16.117   2.175  1.00  0.00     0.056 C 
BRANCH   8   9
HETATM    9  C   UNL     1      42.807 -16.410   2.484  1.00  0.00     0.152 C 
BRANCH   9  10
HETATM   10  O   UNL     1      43.582 -16.051   1.334  1.00  0.00    -0.391 OA
HETATM   11  H   UNL     1      44.413 -16.555   1.379  1.00  0.00     0.210 HD
ENDBRANCH   9  10
BRANCH   9  12
HETATM   12  C   UNL     1      43.210 -17.805   2.923  1.00  0.00    -0.030 A 
HETATM   13  C   UNL     1      42.959 -18.893   2.064  1.00  0.00     0.010 A 
HETATM   14  C   UNL     1      43.345 -20.192   2.403  1.00  0.00     0.001 A 
HETATM   15  C   UNL     1      43.995 -20.429   3.608  1.00  0.00     0.000 A 
HETATM   16  C   UNL     1      44.269 -19.366   4.465  1.00  0.00     0.001 A 
HETATM   17  C   UNL     1      43.892 -18.064   4.119  1.00  0.00     0.010 A 
ENDBRANCH   9  12
ENDBRANCH   8   9
ENDBRANCH   7   8
ENDBRANCH   2   7
BRANCH   4  18
HETATM   18  C   UNL     1      39.093 -12.436   1.469  1.00  0.00     0.109 A 
HETATM   19  N   UNL     1      39.712 -11.946   0.332  1.00  0.00    -0.254 N 
HETATM   20  N   UNL     1      39.173 -10.765  -0.063  1.00  0.00    -0.183 NA
HETATM   21  C   UNL     1      38.169 -10.559   0.788  1.00  0.00     0.142 A 
HETATM   22  C   UNL     1      38.043 -11.590   1.731  1.00  0.00     0.065 A 
BRANCH  19  23
HETATM   23  C   UNL     1      40.581 -12.695  -0.582  1.00  0.00     0.111 C 
HETATM   24  C   UNL     1      40.207 -14.190  -0.729  1.00  0.00     0.027 C 
HETATM   25  C   UNL     1      39.051 -14.454  -1.700  1.00  0.00     0.002 C 
HETATM   26  C   UNL     1      39.248 -13.756  -3.041  1.00  0.00     0.000 C 
HETATM   27  C   UNL     1      39.534 -12.271  -2.866  1.00  0.00     0.002 C 
HETATM   28  C   UNL     1      40.741 -12.047  -1.963  1.00  0.00     0.027 C 
ENDBRANCH  19  23
ENDBRANCH   4  18
TORSDOF 7
ENDMDL
MODEL 5
REMARK VINA RESULT:      -7.8      2.012      9.076
REMARK  7 active torsions:
REMARK  status: ('A' for Active; 'I' for Inactive)
REMARK       I    between atoms: N_2  and  C_3 
REMARK    1  A    between atoms: N_2  and  C_17 
REMARK       I    between atoms: C_3  and  N_4 
REMARK    2  A    between atoms: N_4  and  C_5 
REMARK    3  A    between atoms: N_6  and  C_7 
REMARK    4  A    between atoms: C_17  and  C_18 
REMARK    5  A    between atoms: C_18  and  C_19 
REMARK    6  A    between atoms: C_19  and  O_20 
REMARK    7  A    between atoms: C_19  and  C_21 
ROOT
HETATM    1  C   UNL     1      46.315  -9.305   8.029  1.00  0.00     0.154 C 
HETATM    2  N   UNL     1      45.152 -10.158   8.220  1.00  0.00    -0.343 N 
HETATM    3  C   UNL     1      44.715 -10.893   7.114  1.00  0.00     0.301 C 
HETATM    4  N   UNL     1      43.551 -11.616   7.339  1.00  0.00    -0.194 NA
HETATM    5  O   UNL     1      45.312 -10.854   6.039  1.00  0.00    -0.254 OA
HETATM    6  H   UNL     1      42.883 -11.029   7.826  1.00  0.00     0.140 HD
ENDROOT
BRANCH   2   7
HETATM    7  C   UNL     1      44.792 -10.483   9.600  1.00  0.00     0.129 C 
BRANCH   7   8
HETATM    8  C   UNL     1      43.923  -9.427  10.297  1.00  0.00     0.056 C 
BRANCH   8   9
HETATM    9  C   UNL     1      42.988  -9.949  11.402  1.00  0.00     0.152 C 
BRANCH   9  10
HETATM   10  O   UNL     1      41.711 -10.220  10.814  1.00  0.00    -0.391 OA
HETATM   11  H   UNL     1      41.395 -11.061  11.188  1.00  0.00     0.210 HD
ENDBRANCH   9  10
BRANCH   9  12
HETATM   12  C   UNL     1      42.778  -9.113  12.651  1.00  0.00    -0.030 A 
HETATM   13  C   UNL     1      43.488  -7.905  12.796  1.00  0.00     0.010 A 
HETATM   14  C   UNL     1      43.303  -7.080  13.907  1.00  0.00     0.001 A 
HETATM   15  C   UNL     1      42.398  -7.445  14.897  1.00  0.00     0.000 A 
HETATM   16  C   UNL     1      41.672  -8.626  14.767  1.00  0.00     0.001 A 
HETATM   17  C   UNL     1      41.851  -9.445  13.647  1.00  0.00     0.010 A 
ENDBRANCH   9  12
ENDBRANCH   8   9
ENDBRANCH   7   8
ENDBRANCH   2   7
BRANCH   4  18
HETATM   18  C   UNL     1      43.010 -12.284   6.248  1.00  0.00     0.109 A 
HETATM   19  N   UNL     1      43.261 -13.601   5.904  1.00  0.00    -0.254 N 
HETATM   20  N   UNL     1      42.642 -13.944   4.746  1.00  0.00    -0.183 NA
HETATM   21  C   UNL     1      41.946 -12.858   4.410  1.00  0.00     0.142 A 
HETATM   22  C   UNL     1      42.100 -11.814   5.333  1.00  0.00     0.065 A 
BRANCH  19  23
HETATM   23  C   UNL     1      43.803 -14.645   6.781  1.00  0.00     0.111 C 
HETATM   24  C   UNL     1      42.742 -15.341   7.668  1.00  0.00     0.027 C 
HETATM   25  C   UNL     1      41.944 -16.435   6.949  1.00  0.00     0.002 C 
HETATM   26  C   UNL     1      42.844 -17.422   6.214  1.00  0.00     0.000 C 
HETATM   27  C   UNL     1      43.822 -16.711   5.288  1.00  0.00     0.002 C 
HETATM   28  C   UNL     1      44.657 -15.690   6.051  1.00  0.00     0.027 C 
ENDBRANCH  19  23
ENDBRANCH   4  18
TORSDOF 7
ENDMDL
MODEL 6
REMARK VINA RESULT:      -7.7      1.666      2.229
REMARK  7 active torsions:
REMARK  status: ('A' for Active; 'I' for Inactive)
REMARK       I    between atoms: N_2  and  C_3 
REMARK    1  A    between atoms: N_2  and  C_17 
REMARK       I    between atoms: C_3  and  N_4 
REMARK    2  A    between atoms: N_4  and  C_5 
REMARK    3  A    between atoms: N_6  and  C_7 
REMARK    4  A    between atoms: C_17  and  C_18 
REMARK    5  A    between atoms: C_18  and  C_19 
REMARK    6  A    between atoms: C_19  and  O_20 
REMARK    7  A    between atoms: C_19  and  C_21 
ROOT
HETATM    1  C   UNL     1      41.467 -14.505   6.237  1.00  0.00     0.154 C 
HETATM    2  N   UNL     1      42.150 -13.331   5.714  1.00  0.00    -0.343 N 
HETATM    3  C   UNL     1      43.203 -12.817   6.476  1.00  0.00     0.301 C 
HETATM    4  N   UNL     1      43.753 -11.649   5.966  1.00  0.00    -0.194 NA
HETATM    5  O   UNL     1      43.565 -13.358   7.520  1.00  0.00    -0.254 OA
HETATM    6  H   UNL     1      43.004 -11.023   5.687  1.00  0.00     0.140 HD
ENDROOT
BRANCH   2   7
HETATM    7  C   UNL     1      41.960 -13.036   4.294  1.00  0.00     0.129 C 
BRANCH   7   8
HETATM    8  C   UNL     1      41.602 -14.256   3.433  1.00  0.00     0.056 C 
BRANCH   8   9
HETATM    9  C   UNL     1      42.778 -14.940   2.716  1.00  0.00     0.152 C 
BRANCH   9  10
HETATM   10  O   UNL     1      42.498 -14.954   1.312  1.00  0.00    -0.391 OA
HETATM   11  H   UNL     1      43.132 -14.351   0.886  1.00  0.00     0.210 HD
ENDBRANCH   9  10
BRANCH   9  12
HETATM   12  C   UNL     1      43.194 -16.336   3.140  1.00  0.00    -0.030 A 
HETATM   13  C   UNL     1      43.122 -17.387   2.205  1.00  0.00     0.010 A 
HETATM   14  C   UNL     1      43.529 -18.682   2.533  1.00  0.00     0.001 A 
HETATM   15  C   UNL     1      44.021 -18.952   3.803  1.00  0.00     0.000 A 
HETATM   16  C   UNL     1      44.118 -17.926   4.739  1.00  0.00     0.001 A 
HETATM   17  C   UNL     1      43.721 -16.627   4.405  1.00  0.00     0.010 A 
ENDBRANCH   9  12
ENDBRANCH   8   9
ENDBRANCH   7   8
ENDBRANCH   2   7
BRANCH   4  18
HETATM   18  C   UNL     1      44.734 -11.034   6.733  1.00  0.00     0.109 A 
HETATM   19  N   UNL     1      44.509 -10.114   7.742  1.00  0.00    -0.254 N 
HETATM   20  N   UNL     1      45.672  -9.641   8.258  1.00  0.00    -0.183 NA
HETATM   21  C   UNL     1      46.619 -10.323   7.616  1.00  0.00     0.142 A 
HETATM   22  C   UNL     1      46.092 -11.237   6.693  1.00  0.00     0.065 A 
BRANCH  19  23
HETATM   23  C   UNL     1      43.248  -9.894   8.460  1.00  0.00     0.111 C 
HETATM   24  C   UNL     1      43.364 -10.017   9.999  1.00  0.00     0.027 C 
HETATM   25  C   UNL     1      43.912  -8.762  10.688  1.00  0.00     0.002 C 
HETATM   26  C   UNL     1      43.189  -7.494  10.246  1.00  0.00     0.000 C 
HETATM   27  C   UNL     1      43.162  -7.361   8.729  1.00  0.00     0.002 C 
HETATM   28  C   UNL     1      42.535  -8.590   8.081  1.00  0.00     0.027 C 
ENDBRANCH  19  23
ENDBRANCH   4  18
TORSDOF 7
ENDMDL
MODEL 7
REMARK VINA RESULT:      -7.6      5.228      8.422
REMARK  7 active torsions:
REMARK  status: ('A' for Active; 'I' for Inactive)
REMARK       I    between atoms: N_2  and  C_3 
REMARK    1  A    between atoms: N_2  and  C_17 
REMARK       I    between atoms: C_3  and  N_4 
REMARK    2  A    between atoms: N_4  and  C_5 
REMARK    3  A    between atoms: N_6  and  C_7 
REMARK    4  A    between atoms: C_17  and  C_18 
REMARK    5  A    between atoms: C_18  and  C_19 
REMARK    6  A    between atoms: C_19  and  O_20 
REMARK    7  A    between atoms: C_19  and  C_21 
ROOT
HETATM    1  C   UNL     1      39.590 -12.270   4.978  1.00  0.00     0.154 C 
HETATM    2  N   UNL     1      40.576 -12.422   3.919  1.00  0.00    -0.343 N 
HETATM    3  C   UNL     1      40.392 -11.655   2.765  1.00  0.00     0.301 C 
HETATM    4  N   UNL     1      41.316 -11.913   1.761  1.00  0.00    -0.194 NA
HETATM    5  O   UNL     1      39.463 -10.856   2.665  1.00  0.00    -0.254 OA
HETATM    6  H   UNL     1      41.432 -12.916   1.665  1.00  0.00     0.140 HD
ENDROOT
BRANCH   2   7
HETATM    7  C   UNL     1      41.854 -13.031   4.291  1.00  0.00     0.129 C 
BRANCH   7   8
HETATM    8  C   UNL     1      41.743 -14.466   4.826  1.00  0.00     0.056 C 
BRANCH   8   9
HETATM    9  C   UNL     1      41.383 -15.543   3.788  1.00  0.00     0.152 C 
BRANCH   9  10
HETATM   10  O   UNL     1      40.094 -16.070   4.122  1.00  0.00    -0.391 OA
HETATM   11  H   UNL     1      39.811 -16.631   3.379  1.00  0.00     0.210 HD
ENDBRANCH   9  10
BRANCH   9  12
HETATM   12  C   UNL     1      42.336 -16.701   3.561  1.00  0.00    -0.030 A 
HETATM   13  C   UNL     1      43.283 -17.015   4.555  1.00  0.00     0.010 A 
HETATM   14  C   UNL     1      44.157 -18.095   4.413  1.00  0.00     0.001 A 
HETATM   15  C   UNL     1      44.099 -18.887   3.273  1.00  0.00     0.000 A 
HETATM   16  C   UNL     1      43.159 -18.607   2.285  1.00  0.00     0.001 A 
HETATM   17  C   UNL     1      42.277 -17.532   2.435  1.00  0.00     0.010 A 
ENDBRANCH   9  12
ENDBRANCH   8   9
ENDBRANCH   7   8
ENDBRANCH   2   7
BRANCH   4  18
HETATM   18  C   UNL     1      41.124 -11.257   0.553  1.00  0.00     0.109 A 
HETATM   19  N   UNL     1      40.392 -11.740  -0.518  1.00  0.00    -0.254 N 
HETATM   20  N   UNL     1      40.448 -10.901  -1.584  1.00  0.00    -0.183 NA
HETATM   21  C   UNL     1      41.157  -9.861  -1.147  1.00  0.00     0.142 A 
HETATM   22  C   UNL     1      41.561 -10.007   0.188  1.00  0.00     0.065 A 
BRANCH  19  23
HETATM   23  C   UNL     1      39.383 -12.804  -0.479  1.00  0.00     0.111 C 
HETATM   24  C   UNL     1      38.042 -12.432  -1.158  1.00  0.00     0.027 C 
HETATM   25  C   UNL     1      38.052 -12.574  -2.684  1.00  0.00     0.002 C 
HETATM   26  C   UNL     1      38.593 -13.925  -3.138  1.00  0.00     0.000 C 
HETATM   27  C   UNL     1      39.951 -14.226  -2.517  1.00  0.00     0.002 C 
HETATM   28  C   UNL     1      39.885 -14.159  -0.996  1.00  0.00     0.027 C 
ENDBRANCH  19  23
ENDBRANCH   4  18
TORSDOF 7
ENDMDL
MODEL 8
REMARK VINA RESULT:      -7.4     17.300     19.782
REMARK  7 active torsions:
REMARK  status: ('A' for Active; 'I' for Inactive)
REMARK       I    between atoms: N_2  and  C_3 
REMARK    1  A    between atoms: N_2  and  C_17 
REMARK       I    between atoms: C_3  and  N_4 
REMARK    2  A    between atoms: N_4  and  C_5 
REMARK    3  A    between atoms: N_6  and  C_7 
REMARK    4  A    between atoms: C_17  and  C_18 
REMARK    5  A    between atoms: C_18  and  C_19 
REMARK    6  A    between atoms: C_19  and  O_20 
REMARK    7  A    between atoms: C_19  and  C_21 
ROOT
HETATM    1  C   UNL     1      48.970 -28.544   3.674  1.00  0.00     0.154 C 
HETATM    2  N   UNL     1      48.296 -29.515   2.824  1.00  0.00    -0.343 N 
HETATM    3  C   UNL     1      47.133 -29.091   2.175  1.00  0.00     0.301 C 
HETATM    4  N   UNL     1      46.493 -30.089   1.452  1.00  0.00    -0.194 NA
HETATM    5  O   UNL     1      46.721 -27.937   2.281  1.00  0.00    -0.254 OA
HETATM    6  H   UNL     1      46.456 -30.933   2.012  1.00  0.00     0.140 HD
ENDROOT
BRANCH   2   7
HETATM    7  C   UNL     1      49.077 -30.680   2.408  1.00  0.00     0.129 C 
BRANCH   7   8
HETATM    8  C   UNL     1      50.349 -30.344   1.618  1.00  0.00     0.056 C 
BRANCH   8   9
HETATM    9  C   UNL     1      50.227 -30.417   0.086  1.00  0.00     0.152 C 
BRANCH   9  10
HETATM   10  O   UNL     1      48.936 -30.947  -0.233  1.00  0.00    -0.391 OA
HETATM   11  H   UNL     1      48.911 -31.862   0.095  1.00  0.00     0.210 HD
ENDBRANCH   9  10
BRANCH   9  12
HETATM   12  C   UNL     1      51.273 -31.180  -0.705  1.00  0.00    -0.030 A 
HETATM   13  C   UNL     1      51.543 -30.796  -2.033  1.00  0.00     0.010 A 
HETATM   14  C   UNL     1      52.523 -31.439  -2.792  1.00  0.00     0.001 A 
HETATM   15  C   UNL     1      53.257 -32.480  -2.236  1.00  0.00     0.000 A 
HETATM   16  C   UNL     1      53.019 -32.866  -0.920  1.00  0.00     0.001 A 
HETATM   17  C   UNL     1      52.046 -32.212  -0.157  1.00  0.00     0.010 A 
ENDBRANCH   9  12
ENDBRANCH   8   9
ENDBRANCH   7   8
ENDBRANCH   2   7
BRANCH   4  18
HETATM   18  C   UNL     1      45.277 -29.755   0.869  1.00  0.00     0.109 A 
HETATM   19  N   UNL     1      45.100 -29.326  -0.434  1.00  0.00    -0.254 N 
HETATM   20  N   UNL     1      43.804 -29.010  -0.686  1.00  0.00    -0.183 NA
HETATM   21  C   UNL     1      43.165 -29.314   0.443  1.00  0.00     0.142 A 
HETATM   22  C   UNL     1      44.023 -29.828   1.426  1.00  0.00     0.065 A 
BRANCH  19  23
HETATM   23  C   UNL     1      46.040 -29.497  -1.547  1.00  0.00     0.111 C 
HETATM   24  C   UNL     1      45.694 -30.672  -2.494  1.00  0.00     0.027 C 
HETATM   25  C   UNL     1      44.613 -30.345  -3.530  1.00  0.00     0.002 C 
HETATM   26  C   UNL     1      44.897 -29.046  -4.275  1.00  0.00     0.000 C 
HETATM   27  C   UNL     1      45.153 -27.891  -3.316  1.00  0.00     0.002 C 
HETATM   28  C   UNL     1      46.290 -28.218  -2.355  1.00  0.00     0.027 C 
ENDBRANCH  19  23
ENDBRANCH   4  18
TORSDOF 7
ENDMDL
MODEL 9
REMARK VINA RESULT:      -7.4      2.618      9.195
REMARK  7 active torsions:
REMARK  status: ('A' for Active; 'I' for Inactive)
REMARK       I    between atoms: N_2  and  C_3 
REMARK    1  A    between atoms: N_2  and  C_17 
REMARK       I    between atoms: C_3  and  N_4 
REMARK    2  A    between atoms: N_4  and  C_5 
REMARK    3  A    between atoms: N_6  and  C_7 
REMARK    4  A    between atoms: C_17  and  C_18 
REMARK    5  A    between atoms: C_18  and  C_19 
REMARK    6  A    between atoms: C_19  and  O_20 
REMARK    7  A    between atoms: C_19  and  C_21 
ROOT
HETATM    1  C   UNL     1      45.679  -9.297   8.529  1.00  0.00     0.154 C 
HETATM    2  N   UNL     1      44.427 -10.026   8.387  1.00  0.00    -0.343 N 
HETATM    3  C   UNL     1      44.452 -11.182   7.602  1.00  0.00     0.301 C 
HETATM    4  N   UNL     1      43.209 -11.780   7.436  1.00  0.00    -0.194 NA
HETATM    5  O   UNL     1      45.493 -11.591   7.091  1.00  0.00    -0.254 OA
HETATM    6  H   UNL     1      42.522 -11.064   7.225  1.00  0.00     0.140 HD
ENDROOT
BRANCH   2   7
HETATM    7  C   UNL     1      43.379  -9.734   9.366  1.00  0.00     0.129 C 
BRANCH   7   8
HETATM    8  C   UNL     1      43.890  -9.494  10.793  1.00  0.00     0.056 C 
BRANCH   8   9
HETATM    9  C   UNL     1      42.934  -9.902  11.926  1.00  0.00     0.152 C 
BRANCH   9  10
HETATM   10  O   UNL     1      41.680 -10.270  11.340  1.00  0.00    -0.391 OA
HETATM   11  H   UNL     1      41.504 -11.193  11.593  1.00  0.00     0.210 HD
ENDBRANCH   9  10
BRANCH   9  12
HETATM   12  C   UNL     1      42.671  -8.930  13.061  1.00  0.00    -0.030 A 
HETATM   13  C   UNL     1      41.692  -9.247  14.023  1.00  0.00     0.010 A 
HETATM   14  C   UNL     1      41.439  -8.405  15.108  1.00  0.00     0.001 A 
HETATM   15  C   UNL     1      42.163  -7.229  15.256  1.00  0.00     0.000 A 
HETATM   16  C   UNL     1      43.148  -6.904  14.327  1.00  0.00     0.001 A 
HETATM   17  C   UNL     1      43.408  -7.754  13.247  1.00  0.00     0.010 A 
ENDBRANCH   9  12
ENDBRANCH   8   9
ENDBRANCH   7   8
ENDBRANCH   2   7
BRANCH   4  18
HETATM   18  C   UNL     1      43.152 -12.873   6.582  1.00  0.00     0.109 A 
HETATM   19  N   UNL     1      42.772 -12.838   5.252  1.00  0.00    -0.254 N 
HETATM   20  N   UNL     1      42.749 -14.080   4.704  1.00  0.00    -0.183 NA
HETATM   21  C   UNL     1      43.186 -14.878   5.677  1.00  0.00     0.142 A 
HETATM   22  C   UNL     1      43.497 -14.176   6.850  1.00  0.00     0.065 A 
BRANCH  19  23
HETATM   23  C   UNL     1      42.733 -11.655   4.384  1.00  0.00     0.111 C 
HETATM   24  C   UNL     1      43.046 -11.949   2.897  1.00  0.00     0.027 C 
HETATM   25  C   UNL     1      41.856 -12.502   2.104  1.00  0.00     0.002 C 
HETATM   26  C   UNL     1      40.595 -11.667   2.292  1.00  0.00     0.000 C 
HETATM   27  C   UNL     1      40.268 -11.464   3.765  1.00  0.00     0.002 C 
HETATM   28  C   UNL     1      41.443 -10.835   4.506  1.00  0.00     0.027 C 
ENDBRANCH  19  23
ENDBRANCH   4  18
TORSDOF 7
ENDMDL
MODEL 10
REMARK VINA RESULT:      -7.4      2.318      8.638
REMARK  7 active torsions:
REMARK  status: ('A' for Active; 'I' for Inactive)
REMARK       I    between atoms: N_2  and  C_3 
REMARK    1  A    between atoms: N_2  and  C_17 
REMARK       I    between atoms: C_3  and  N_4 
REMARK    2  A    between atoms: N_4  and  C_5 
REMARK    3  A    between atoms: N_6  and  C_7 
REMARK    4  A    between atoms: C_17  and  C_18 
REMARK    5  A    between atoms: C_18  and  C_19 
REMARK    6  A    between atoms: C_19  and  O_20 
REMARK    7  A    between atoms: C_19  and  C_21 
ROOT
HETATM    1  C   UNL     1      41.934  -9.195   8.137  1.00  0.00     0.154 C 
HETATM    2  N   UNL     1      42.990 -10.023   7.575  1.00  0.00    -0.343 N 
HETATM    3  C   UNL     1      42.715 -10.669   6.366  1.00  0.00     0.301 C 
HETATM    4  N   UNL     1      43.730 -11.511   5.931  1.00  0.00    -0.194 NA
HETATM    5  O   UNL     1      41.645 -10.511   5.781  1.00  0.00    -0.254 OA
HETATM    6  H   UNL     1      44.061 -12.065   6.713  1.00  0.00     0.140 HD
ENDROOT
BRANCH   2   7
HETATM    7  C   UNL     1      44.344  -9.800   8.084  1.00  0.00     0.129 C 
BRANCH   7   8
HETATM    8  C   UNL     1      44.436  -8.769   9.217  1.00  0.00     0.056 C 
BRANCH   8   9
HETATM    9  C   UNL     1      44.711  -9.336  10.620  1.00  0.00     0.152 C 
BRANCH   9  10
HETATM   10  O   UNL     1      45.018 -10.728  10.486  1.00  0.00    -0.391 OA
HETATM   11  H   UNL     1      44.284 -11.224  10.887  1.00  0.00     0.210 HD
ENDBRANCH   9  10
BRANCH   9  12
HETATM   12  C   UNL     1      43.661  -9.174  11.703  1.00  0.00    -0.030 A 
HETATM   13  C   UNL     1      42.677 -10.170  11.860  1.00  0.00     0.010 A 
HETATM   14  C   UNL     1      41.713 -10.089  12.866  1.00  0.00     0.001 A 
HETATM   15  C   UNL     1      41.714  -9.010  13.741  1.00  0.00     0.000 A 
HETATM   16  C   UNL     1      42.687  -8.022  13.617  1.00  0.00     0.001 A 
HETATM   17  C   UNL     1      43.660  -8.111  12.616  1.00  0.00     0.010 A 
ENDBRANCH   9  12
ENDBRANCH   8   9
ENDBRANCH   7   8
ENDBRANCH   2   7
BRANCH   4  18
HETATM   18  C   UNL     1      43.474 -12.259   4.789  1.00  0.00     0.109 A 
HETATM   19  N   UNL     1      43.071 -13.583   4.768  1.00  0.00    -0.254 N 
HETATM   20  N   UNL     1      42.971 -14.056   3.499  1.00  0.00    -0.183 NA
HETATM   21  C   UNL     1      43.242 -13.002   2.732  1.00  0.00     0.142 A 
HETATM   22  C   UNL     1      43.513 -11.847   3.480  1.00  0.00     0.065 A 
BRANCH  19  23
HETATM   23  C   UNL     1      42.472 -14.334   5.877  1.00  0.00     0.111 C 
HETATM   24  C   UNL     1      41.568 -15.509   5.432  1.00  0.00     0.027 C 
HETATM   25  C   UNL     1      42.334 -16.782   5.057  1.00  0.00     0.002 C 
HETATM   26  C   UNL     1      43.349 -17.184   6.122  1.00  0.00     0.000 C 
HETATM   27  C   UNL     1      44.277 -16.030   6.479  1.00  0.00     0.002 C 
HETATM   28  C   UNL     1      43.484 -14.808   6.928  1.00  0.00     0.027 C 
ENDBRANCH  19  23
ENDBRANCH   4  18
TORSDOF 7
ENDMDL
