MODEL 1
REMARK VINA RESULT:      -8.1      0.000      0.000
REMARK  7 active torsions:
REMARK  status: ('A' for Active; 'I' for Inactive)
REMARK    1  A    between atoms: C_3  and  N_4 
REMARK       I    between atoms: N_4  and  C_5 
REMARK       I    between atoms: C_5  and  N_6 
REMARK    2  A    between atoms: N_6  and  C_7 
REMARK    3  A    between atoms: C_7  and  C_8 
REMARK    4  A    between atoms: C_8  and  N_9 
REMARK    5  A    between atoms: C_23  and  N_24 
REMARK       I    between atoms: N_24  and  C_25 
REMARK    6  A    between atoms: C_25  and  C_26 
REMARK    7  A    between atoms: C_26  and  O_27 
ROOT
HETATM    1  N   UNL     1      42.922 -10.948   5.147  1.00  0.00    -0.308 N 
HETATM    2  C   UNL     1      42.380 -12.051   4.566  1.00  0.00     0.320 C 
HETATM    3  N   UNL     1      42.952 -13.252   4.819  1.00  0.00    -0.340 N 
HETATM    4  O   UNL     1      41.460 -11.916   3.759  1.00  0.00    -0.247 OA
HETATM    5  H   UNL     1      42.573 -10.095   4.728  1.00  0.00     0.170 HD
HETATM    6  H   UNL     1      43.868 -13.185   5.245  1.00  0.00     0.164 HD
ENDROOT
BRANCH   1   7
HETATM    7  C   UNL     1      43.846 -10.783   6.203  1.00  0.00     0.044 A 
HETATM    8  C   UNL     1      43.406 -10.204   7.425  1.00  0.00    -0.008 A 
HETATM    9  C   UNL     1      41.990  -9.690   7.568  1.00  0.00     0.053 C 
HETATM   10  C   UNL     1      44.317 -10.092   8.509  1.00  0.00     0.043 A 
HETATM   11  C   UNL     1      45.638 -10.517   8.340  1.00  0.00     0.030 A 
HETATM   12  C   UNL     1      46.057 -11.092   7.144  1.00  0.00     0.005 A 
HETATM   13  C   UNL     1      45.163 -11.240   6.089  1.00  0.00     0.030 A 
BRANCH  10  14
HETATM   14  N   UNL     1      43.864  -9.579   9.746  1.00  0.00    -0.325 N 
HETATM   15  C   UNL     1      43.679 -10.251  10.945  1.00  0.00     0.245 C 
HETATM   16  O   UNL     1      43.944 -11.423  11.183  1.00  0.00    -0.271 OA
HETATM   17  H   UNL     1      43.608  -8.597   9.795  1.00  0.00     0.169 HD
BRANCH  15  18
HETATM   18  C   UNL     1      43.151  -9.312  12.037  1.00  0.00     0.270 C 
BRANCH  18  19
HETATM   19  O   UNL     1      42.425 -10.008  13.053  1.00  0.00    -0.387 OA
HETATM   20  C   UNL     1      41.023  -9.999  12.794  1.00  0.00     0.202 C 
ENDBRANCH  18  19
ENDBRANCH  15  18
ENDBRANCH  10  14
ENDBRANCH   1   7
BRANCH   3  21
HETATM   21  C   UNL     1      42.646 -14.566   4.245  1.00  0.00     0.163 C 
BRANCH  21  22
HETATM   22  C   UNL     1      43.020 -15.892   4.997  1.00  0.00     0.143 C 
HETATM   23  C   UNL     1      43.981 -15.572   6.175  1.00  0.00     0.041 C 
HETATM   24  C   UNL     1      43.305 -16.110   7.434  1.00  0.00     0.003 C 
HETATM   25  C   UNL     1      41.825 -16.065   7.108  1.00  0.00     0.003 C 
HETATM   26  C   UNL     1      41.771 -16.523   5.657  1.00  0.00     0.041 C 
BRANCH  22  27
HETATM   27  N   UNL     1      43.677 -16.887   4.042  1.00  0.00    -0.061 N 
HETATM   28  H   UNL     1      44.648 -16.512   3.957  1.00  0.00     0.281 HD
HETATM   29  C   UNL     1      43.190 -16.975   2.610  1.00  0.00     0.236 C 
HETATM   30  C   UNL     1      43.068 -18.463   2.325  1.00  0.00     0.029 C 
HETATM   31  C   UNL     1      44.065 -19.100   3.269  1.00  0.00     0.029 C 
HETATM   32  C   UNL     1      43.872 -18.303   4.540  1.00  0.00     0.236 C 
ENDBRANCH  22  27
ENDBRANCH  21  22
ENDBRANCH   3  21
TORSDOF 7
ENDMDL
MODEL 2
REMARK VINA RESULT:      -7.7      1.511      2.446
REMARK  7 active torsions:
REMARK  status: ('A' for Active; 'I' for Inactive)
REMARK    1  A    between atoms: C_3  and  N_4 
REMARK       I    between atoms: N_4  and  C_5 
REMARK       I    between atoms: C_5  and  N_6 
REMARK    2  A    between atoms: N_6  and  C_7 
REMARK    3  A    between atoms: C_7  and  C_8 
REMARK    4  A    between atoms: C_8  and  N_9 
REMARK    5  A    between atoms: C_23  and  N_24 
REMARK       I    between atoms: N_24  and  C_25 
REMARK    6  A    between atoms: C_25  and  C_26 
REMARK    7  A    between atoms: C_26  and  O_27 
ROOT
HETATM    1  N   UNL     1      43.505 -11.704   3.813  1.00  0.00    -0.308 N 
HETATM    2  C   UNL     1      43.133 -12.944   3.401  1.00  0.00     0.320 C 
HETATM    3  N   UNL     1      42.344 -13.679   4.220  1.00  0.00    -0.340 N 
HETATM    4  O   UNL     1      43.598 -13.396   2.354  1.00  0.00    -0.247 OA
HETATM    5  H   UNL     1      44.259 -11.332   3.248  1.00  0.00     0.170 HD
HETATM    6  H   UNL     1      42.288 -13.317   5.165  1.00  0.00     0.164 HD
ENDROOT
BRANCH   1   7
HETATM    7  C   UNL     1      43.038 -10.862   4.847  1.00  0.00     0.044 A 
HETATM    8  C   UNL     1      43.658 -10.922   6.125  1.00  0.00    -0.008 A 
HETATM    9  C   UNL     1      44.747 -11.935   6.406  1.00  0.00     0.053 C 
HETATM   10  C   UNL     1      43.230 -10.035   7.149  1.00  0.00     0.043 A 
HETATM   11  C   UNL     1      42.182  -9.148   6.890  1.00  0.00     0.030 A 
HETATM   12  C   UNL     1      41.587  -9.089   5.633  1.00  0.00     0.005 A 
HETATM   13  C   UNL     1      42.024  -9.928   4.614  1.00  0.00     0.030 A 
BRANCH  10  14
HETATM   14  N   UNL     1      43.891 -10.047   8.398  1.00  0.00    -0.325 N 
HETATM   15  C   UNL     1      44.837  -9.157   8.885  1.00  0.00     0.245 C 
HETATM   16  O   UNL     1      45.236  -8.134   8.341  1.00  0.00    -0.271 OA
HETATM   17  H   UNL     1      43.689 -10.806   9.043  1.00  0.00     0.169 HD
BRANCH  15  18
HETATM   18  C   UNL     1      45.311  -9.555  10.288  1.00  0.00     0.270 C 
BRANCH  18  19
HETATM   19  O   UNL     1      44.225  -9.837  11.173  1.00  0.00    -0.387 OA
HETATM   20  C   UNL     1      43.615  -8.640  11.653  1.00  0.00     0.202 C 
ENDBRANCH  18  19
ENDBRANCH  15  18
ENDBRANCH  10  14
ENDBRANCH   1   7
BRANCH   3  21
HETATM   21  C   UNL     1      41.894 -15.068   4.078  1.00  0.00     0.163 C 
BRANCH  21  22
HETATM   22  C   UNL     1      42.464 -16.208   4.994  1.00  0.00     0.143 C 
HETATM   23  C   UNL     1      43.836 -15.774   5.578  1.00  0.00     0.041 C 
HETATM   24  C   UNL     1      43.698 -15.856   7.096  1.00  0.00     0.003 C 
HETATM   25  C   UNL     1      42.218 -15.641   7.347  1.00  0.00     0.003 C 
HETATM   26  C   UNL     1      41.554 -16.431   6.226  1.00  0.00     0.041 C 
BRANCH  22  27
HETATM   27  N   UNL     1      42.619 -17.507   4.206  1.00  0.00    -0.061 N 
HETATM   28  H   UNL     1      41.816 -18.078   4.551  1.00  0.00     0.281 HD
HETATM   29  C   UNL     1      43.829 -18.386   4.453  1.00  0.00     0.236 C 
HETATM   30  C   UNL     1      44.323 -18.775   3.069  1.00  0.00     0.029 C 
HETATM   31  C   UNL     1      43.086 -18.694   2.202  1.00  0.00     0.029 C 
HETATM   32  C   UNL     1      42.408 -17.441   2.709  1.00  0.00     0.236 C 
ENDBRANCH  22  27
ENDBRANCH  21  22
ENDBRANCH   3  21
TORSDOF 7
ENDMDL
MODEL 3
REMARK VINA RESULT:      -7.6      2.871      8.115
REMARK  7 active torsions:
REMARK  status: ('A' for Active; 'I' for Inactive)
REMARK    1  A    between atoms: C_3  and  N_4 
REMARK       I    between atoms: N_4  and  C_5 
REMARK       I    between atoms: C_5  and  N_6 
REMARK    2  A    between atoms: N_6  and  C_7 
REMARK    3  A    between atoms: C_7  and  C_8 
REMARK    4  A    between atoms: C_8  and  N_9 
REMARK    5  A    between atoms: C_23  and  N_24 
REMARK       I    between atoms: N_24  and  C_25 
REMARK    6  A    between atoms: C_25  and  C_26 
REMARK    7  A    between atoms: C_26  and  O_27 
ROOT
HETATM    1  N   UNL     1      42.673 -16.825   6.242  1.00  0.00    -0.308 N 
HETATM    2  C   UNL     1      43.011 -15.718   6.952  1.00  0.00     0.320 C 
HETATM    3  N   UNL     1      43.791 -14.787   6.352  1.00  0.00    -0.340 N 
HETATM    4  O   UNL     1      42.686 -15.640   8.138  1.00  0.00    -0.247 OA
HETATM    5  H   UNL     1      42.286 -17.548   6.837  1.00  0.00     0.170 HD
HETATM    6  H   UNL     1      44.231 -15.114   5.500  1.00  0.00     0.164 HD
ENDROOT
BRANCH   1   7
HETATM    7  C   UNL     1      42.749 -17.136   4.866  1.00  0.00     0.044 A 
HETATM    8  C   UNL     1      41.835 -16.526   3.965  1.00  0.00    -0.008 A 
HETATM    9  C   UNL     1      40.736 -15.622   4.477  1.00  0.00     0.053 C 
HETATM   10  C   UNL     1      41.948 -16.791   2.573  1.00  0.00     0.043 A 
HETATM   11  C   UNL     1      42.931 -17.676   2.123  1.00  0.00     0.030 A 
HETATM   12  C   UNL     1      43.829 -18.261   3.011  1.00  0.00     0.005 A 
HETATM   13  C   UNL     1      43.750 -17.979   4.371  1.00  0.00     0.030 A 
BRANCH  10  14
HETATM   14  N   UNL     1      41.083 -16.133   1.670  1.00  0.00    -0.325 N 
HETATM   15  C   UNL     1      41.207 -14.864   1.122  1.00  0.00     0.245 C 
HETATM   16  O   UNL     1      42.143 -14.086   1.267  1.00  0.00    -0.271 OA
HETATM   17  H   UNL     1      40.236 -16.611   1.378  1.00  0.00     0.169 HD
BRANCH  15  18
HETATM   18  C   UNL     1      40.028 -14.534   0.199  1.00  0.00     0.270 C 
BRANCH  18  19
HETATM   19  O   UNL     1      39.752 -13.133   0.142  1.00  0.00    -0.387 OA
HETATM   20  C   UNL     1      38.884 -12.813  -0.943  1.00  0.00     0.202 C 
ENDBRANCH  18  19
ENDBRANCH  15  18
ENDBRANCH  10  14
ENDBRANCH   1   7
BRANCH   3  21
HETATM   21  C   UNL     1      44.388 -13.572   6.915  1.00  0.00     0.163 C 
BRANCH  21  22
HETATM   22  C   UNL     1      44.100 -12.159   6.294  1.00  0.00     0.143 C 
HETATM   23  C   UNL     1      43.363 -11.272   7.334  1.00  0.00     0.041 C 
HETATM   24  C   UNL     1      44.222 -10.022   7.513  1.00  0.00     0.003 C 
HETATM   25  C   UNL     1      45.627 -10.488   7.184  1.00  0.00     0.003 C 
HETATM   26  C   UNL     1      45.420 -11.411   5.990  1.00  0.00     0.041 C 
BRANCH  22  27
HETATM   27  N   UNL     1      43.258 -12.288   5.026  1.00  0.00    -0.061 N 
HETATM   28  H   UNL     1      43.285 -13.315   4.840  1.00  0.00     0.281 HD
HETATM   29  C   UNL     1      43.756 -11.666   3.737  1.00  0.00     0.236 C 
HETATM   30  C   UNL     1      42.548 -10.957   3.148  1.00  0.00     0.029 C 
HETATM   31  C   UNL     1      41.367 -11.720   3.706  1.00  0.00     0.029 C 
HETATM   32  C   UNL     1      41.782 -11.973   5.138  1.00  0.00     0.236 C 
ENDBRANCH  22  27
ENDBRANCH  21  22
ENDBRANCH   3  21
TORSDOF 7
ENDMDL
MODEL 4
REMARK VINA RESULT:      -7.6      2.778      8.662
REMARK  7 active torsions:
REMARK  status: ('A' for Active; 'I' for Inactive)
REMARK    1  A    between atoms: C_3  and  N_4 
REMARK       I    between atoms: N_4  and  C_5 
REMARK       I    between atoms: C_5  and  N_6 
REMARK    2  A    between atoms: N_6  and  C_7 
REMARK    3  A    between atoms: C_7  and  C_8 
REMARK    4  A    between atoms: C_8  and  N_9 
REMARK    5  A    between atoms: C_23  and  N_24 
REMARK       I    between atoms: N_24  and  C_25 
REMARK    6  A    between atoms: C_25  and  C_26 
REMARK    7  A    between atoms: C_26  and  O_27 
ROOT
HETATM    1  N   UNL     1      42.595 -16.783   6.077  1.00  0.00    -0.308 N 
HETATM    2  C   UNL     1      42.891 -15.696   6.836  1.00  0.00     0.320 C 
HETATM    3  N   UNL     1      43.589 -14.688   6.262  1.00  0.00    -0.340 N 
HETATM    4  O   UNL     1      42.609 -15.703   8.035  1.00  0.00    -0.247 OA
HETATM    5  H   UNL     1      42.276 -17.560   6.644  1.00  0.00     0.170 HD
HETATM    6  H   UNL     1      44.015 -14.939   5.378  1.00  0.00     0.164 HD
ENDROOT
BRANCH   1   7
HETATM    7  C   UNL     1      42.636 -17.014   4.684  1.00  0.00     0.044 A 
HETATM    8  C   UNL     1      41.703 -16.352   3.843  1.00  0.00    -0.008 A 
HETATM    9  C   UNL     1      40.619 -15.476   4.433  1.00  0.00     0.053 C 
HETATM   10  C   UNL     1      41.780 -16.536   2.436  1.00  0.00     0.043 A 
HETATM   11  C   UNL     1      42.749 -17.395   1.911  1.00  0.00     0.030 A 
HETATM   12  C   UNL     1      43.666 -18.033   2.742  1.00  0.00     0.005 A 
HETATM   13  C   UNL     1      43.621 -17.830   4.117  1.00  0.00     0.030 A 
BRANCH  10  14
HETATM   14  N   UNL     1      40.895 -15.825   1.593  1.00  0.00    -0.325 N 
HETATM   15  C   UNL     1      41.034 -14.544   1.078  1.00  0.00     0.245 C 
HETATM   16  O   UNL     1      41.999 -13.799   1.201  1.00  0.00    -0.271 OA
HETATM   17  H   UNL     1      40.021 -16.269   1.328  1.00  0.00     0.169 HD
BRANCH  15  18
HETATM   18  C   UNL     1      39.824 -14.152   0.221  1.00  0.00     0.270 C 
BRANCH  18  19
HETATM   19  O   UNL     1      39.478 -15.160  -0.731  1.00  0.00    -0.387 OA
HETATM   20  C   UNL     1      39.186 -14.598  -2.008  1.00  0.00     0.202 C 
ENDBRANCH  18  19
ENDBRANCH  15  18
ENDBRANCH  10  14
ENDBRANCH   1   7
BRANCH   3  21
HETATM   21  C   UNL     1      44.132 -13.469   6.870  1.00  0.00     0.163 C 
BRANCH  21  22
HETATM   22  C   UNL     1      43.547 -12.054   6.523  1.00  0.00     0.143 C 
HETATM   23  C   UNL     1      44.327 -11.445   5.326  1.00  0.00     0.041 C 
HETATM   24  C   UNL     1      43.287 -11.144   4.249  1.00  0.00     0.003 C 
HETATM   25  C   UNL     1      42.178 -12.144   4.515  1.00  0.00     0.003 C 
HETATM   26  C   UNL     1      42.083 -12.167   6.035  1.00  0.00     0.041 C 
BRANCH  22  27
HETATM   27  N   UNL     1      43.635 -11.123   7.731  1.00  0.00    -0.061 N 
HETATM   28  H   UNL     1      43.253 -11.715   8.501  1.00  0.00     0.281 HD
HETATM   29  C   UNL     1      42.778  -9.873   7.769  1.00  0.00     0.236 C 
HETATM   30  C   UNL     1      43.712  -8.769   8.235  1.00  0.00     0.029 C 
HETATM   31  C   UNL     1      44.767  -9.496   9.040  1.00  0.00     0.029 C 
HETATM   32  C   UNL     1      45.016 -10.738   8.212  1.00  0.00     0.236 C 
ENDBRANCH  22  27
ENDBRANCH  21  22
ENDBRANCH   3  21
TORSDOF 7
ENDMDL
MODEL 5
REMARK VINA RESULT:      -7.5      1.263      2.633
REMARK  7 active torsions:
REMARK  status: ('A' for Active; 'I' for Inactive)
REMARK    1  A    between atoms: C_3  and  N_4 
REMARK       I    between atoms: N_4  and  C_5 
REMARK       I    between atoms: C_5  and  N_6 
REMARK    2  A    between atoms: N_6  and  C_7 
REMARK    3  A    between atoms: C_7  and  C_8 
REMARK    4  A    between atoms: C_8  and  N_9 
REMARK    5  A    between atoms: C_23  and  N_24 
REMARK       I    between atoms: N_24  and  C_25 
REMARK    6  A    between atoms: C_25  and  C_26 
REMARK    7  A    between atoms: C_26  and  O_27 
ROOT
HETATM    1  N   UNL     1      43.118 -10.938   4.803  1.00  0.00    -0.308 N 
HETATM    2  C   UNL     1      42.225 -11.849   4.335  1.00  0.00     0.320 C 
HETATM    3  N   UNL     1      42.124 -13.034   4.982  1.00  0.00    -0.340 N 
HETATM    4  O   UNL     1      41.614 -11.613   3.292  1.00  0.00    -0.247 OA
HETATM    5  H   UNL     1      43.277 -10.193   4.135  1.00  0.00     0.170 HD
HETATM    6  H   UNL     1      42.886 -13.213   5.625  1.00  0.00     0.164 HD
ENDROOT
BRANCH   1   7
HETATM    7  C   UNL     1      43.832 -10.839   6.018  1.00  0.00     0.044 A 
HETATM    8  C   UNL     1      43.149 -10.421   7.192  1.00  0.00    -0.008 A 
HETATM    9  C   UNL     1      41.696 -10.003   7.131  1.00  0.00     0.053 C 
HETATM   10  C   UNL     1      43.850 -10.378   8.427  1.00  0.00     0.043 A 
HETATM   11  C   UNL     1      45.208 -10.709   8.455  1.00  0.00     0.030 A 
HETATM   12  C   UNL     1      45.866 -11.126   7.302  1.00  0.00     0.005 A 
HETATM   13  C   UNL     1      45.179 -11.208   6.096  1.00  0.00     0.030 A 
BRANCH  10  14
HETATM   14  N   UNL     1      43.155 -10.028   9.607  1.00  0.00    -0.325 N 
HETATM   15  C   UNL     1      43.365 -10.482  10.901  1.00  0.00     0.245 C 
HETATM   16  O   UNL     1      44.253 -11.235  11.284  1.00  0.00    -0.271 OA
HETATM   17  H   UNL     1      42.378  -9.378   9.534  1.00  0.00     0.169 HD
BRANCH  15  18
HETATM   18  C   UNL     1      42.367  -9.856  11.883  1.00  0.00     0.270 C 
BRANCH  18  19
HETATM   19  O   UNL     1      42.441  -8.429  11.903  1.00  0.00    -0.387 OA
HETATM   20  C   UNL     1      43.119  -7.955  13.064  1.00  0.00     0.202 C 
ENDBRANCH  18  19
ENDBRANCH  15  18
ENDBRANCH  10  14
ENDBRANCH   1   7
BRANCH   3  21
HETATM   21  C   UNL     1      41.337 -14.221   4.631  1.00  0.00     0.163 C 
BRANCH  21  22
HETATM   22  C   UNL     1      42.031 -15.587   4.289  1.00  0.00     0.143 C 
HETATM   23  C   UNL     1      41.056 -16.477   3.470  1.00  0.00     0.041 C 
HETATM   24  C   UNL     1      41.779 -16.814   2.168  1.00  0.00     0.003 C 
HETATM   25  C   UNL     1      42.730 -15.651   1.961  1.00  0.00     0.003 C 
HETATM   26  C   UNL     1      43.252 -15.369   3.364  1.00  0.00     0.041 C 
BRANCH  22  27
HETATM   27  N   UNL     1      42.453 -16.313   5.565  1.00  0.00    -0.061 N 
HETATM   28  H   UNL     1      42.133 -17.290   5.386  1.00  0.00     0.281 HD
HETATM   29  C   UNL     1      41.796 -15.945   6.881  1.00  0.00     0.236 C 
HETATM   30  C   UNL     1      42.939 -15.835   7.875  1.00  0.00     0.029 C 
HETATM   31  C   UNL     1      44.009 -16.743   7.309  1.00  0.00     0.029 C 
HETATM   32  C   UNL     1      43.937 -16.452   5.826  1.00  0.00     0.236 C 
ENDBRANCH  22  27
ENDBRANCH  21  22
ENDBRANCH   3  21
TORSDOF 7
ENDMDL
MODEL 6
REMARK VINA RESULT:      -7.5      1.846      2.786
REMARK  7 active torsions:
REMARK  status: ('A' for Active; 'I' for Inactive)
REMARK    1  A    between atoms: C_3  and  N_4 
REMARK       I    between atoms: N_4  and  C_5 
REMARK       I    between atoms: C_5  and  N_6 
REMARK    2  A    between atoms: N_6  and  C_7 
REMARK    3  A    between atoms: C_7  and  C_8 
REMARK    4  A    between atoms: C_8  and  N_9 
REMARK    5  A    between atoms: C_23  and  N_24 
REMARK       I    between atoms: N_24  and  C_25 
REMARK    6  A    between atoms: C_25  and  C_26 
REMARK    7  A    between atoms: C_26  and  O_27 
ROOT
HETATM    1  N   UNL     1      42.023 -11.094   4.649  1.00  0.00    -0.308 N 
HETATM    2  C   UNL     1      41.208 -12.130   4.321  1.00  0.00     0.320 C 
HETATM    3  N   UNL     1      41.592 -13.380   4.671  1.00  0.00    -0.340 N 
HETATM    4  O   UNL     1      40.206 -11.915   3.637  1.00  0.00    -0.247 OA
HETATM    5  H   UNL     1      41.766 -10.245   4.160  1.00  0.00     0.170 HD
HETATM    6  H   UNL     1      42.563 -13.444   4.952  1.00  0.00     0.164 HD
ENDROOT
BRANCH   1   7
HETATM    7  C   UNL     1      43.121 -10.986   5.532  1.00  0.00     0.044 A 
HETATM    8  C   UNL     1      42.925 -10.413   6.817  1.00  0.00    -0.008 A 
HETATM    9  C   UNL     1      41.579  -9.844   7.210  1.00  0.00     0.053 C 
HETATM   10  C   UNL     1      44.013 -10.358   7.729  1.00  0.00     0.043 A 
HETATM   11  C   UNL     1      45.265 -10.834   7.329  1.00  0.00     0.030 A 
HETATM   12  C   UNL     1      45.446 -11.403   6.071  1.00  0.00     0.005 A 
HETATM   13  C   UNL     1      44.377 -11.495   5.186  1.00  0.00     0.030 A 
BRANCH  10  14
HETATM   14  N   UNL     1      43.803  -9.851   9.031  1.00  0.00    -0.325 N 
HETATM   15  C   UNL     1      44.008  -8.561   9.500  1.00  0.00     0.245 C 
HETATM   16  O   UNL     1      44.352  -7.584   8.846  1.00  0.00    -0.271 OA
HETATM   17  H   UNL     1      43.480 -10.490   9.752  1.00  0.00     0.169 HD
BRANCH  15  18
HETATM   18  C   UNL     1      43.670  -8.447  10.992  1.00  0.00     0.270 C 
BRANCH  18  19
HETATM   19  O   UNL     1      43.594  -9.721  11.634  1.00  0.00    -0.387 OA
HETATM   20  C   UNL     1      42.401  -9.849  12.406  1.00  0.00     0.202 C 
ENDBRANCH  18  19
ENDBRANCH  15  18
ENDBRANCH  10  14
ENDBRANCH   1   7
BRANCH   3  21
HETATM   21  C   UNL     1      40.970 -14.668   4.349  1.00  0.00     0.163 C 
BRANCH  21  22
HETATM   22  C   UNL     1      41.374 -15.470   3.060  1.00  0.00     0.143 C 
HETATM   23  C   UNL     1      40.117 -15.716   2.182  1.00  0.00     0.041 C 
HETATM   24  C   UNL     1      40.428 -15.115   0.814  1.00  0.00     0.003 C 
HETATM   25  C   UNL     1      41.430 -14.016   1.111  1.00  0.00     0.003 C 
HETATM   26  C   UNL     1      42.330 -14.638   2.171  1.00  0.00     0.041 C 
BRANCH  22  27
HETATM   27  N   UNL     1      42.020 -16.803   3.434  1.00  0.00    -0.061 N 
HETATM   28  H   UNL     1      41.193 -17.431   3.543  1.00  0.00     0.281 HD
HETATM   29  C   UNL     1      42.754 -16.928   4.754  1.00  0.00     0.236 C 
HETATM   30  C   UNL     1      44.048 -17.650   4.417  1.00  0.00     0.029 C 
HETATM   31  C   UNL     1      43.711 -18.451   3.179  1.00  0.00     0.029 C 
HETATM   32  C   UNL     1      42.865 -17.484   2.380  1.00  0.00     0.236 C 
ENDBRANCH  22  27
ENDBRANCH  21  22
ENDBRANCH   3  21
TORSDOF 7
ENDMDL
MODEL 7
REMARK VINA RESULT:      -7.4      2.589      8.667
REMARK  7 active torsions:
REMARK  status: ('A' for Active; 'I' for Inactive)
REMARK    1  A    between atoms: C_3  and  N_4 
REMARK       I    between atoms: N_4  and  C_5 
REMARK       I    between atoms: C_5  and  N_6 
REMARK    2  A    between atoms: N_6  and  C_7 
REMARK    3  A    between atoms: C_7  and  C_8 
REMARK    4  A    between atoms: C_8  and  N_9 
REMARK    5  A    between atoms: C_23  and  N_24 
REMARK       I    between atoms: N_24  and  C_25 
REMARK    6  A    between atoms: C_25  and  C_26 
REMARK    7  A    between atoms: C_26  and  O_27 
ROOT
HETATM    1  N   UNL     1      44.304 -13.162   6.507  1.00  0.00    -0.308 N 
HETATM    2  C   UNL     1      44.351 -11.908   7.029  1.00  0.00     0.320 C 
HETATM    3  N   UNL     1      43.180 -11.269   7.262  1.00  0.00    -0.340 N 
HETATM    4  O   UNL     1      45.443 -11.359   7.178  1.00  0.00    -0.247 OA
HETATM    5  H   UNL     1      45.210 -13.460   6.167  1.00  0.00     0.170 HD
HETATM    6  H   UNL     1      42.382 -11.707   6.817  1.00  0.00     0.164 HD
ENDROOT
BRANCH   1   7
HETATM    7  C   UNL     1      43.256 -14.099   6.370  1.00  0.00     0.044 A 
HETATM    8  C   UNL     1      42.521 -14.145   5.154  1.00  0.00    -0.008 A 
HETATM    9  C   UNL     1      42.795 -13.148   4.050  1.00  0.00     0.053 C 
HETATM   10  C   UNL     1      41.506 -15.127   4.991  1.00  0.00     0.043 A 
HETATM   11  C   UNL     1      41.225 -16.001   6.044  1.00  0.00     0.030 A 
HETATM   12  C   UNL     1      41.957 -15.956   7.227  1.00  0.00     0.005 A 
HETATM   13  C   UNL     1      42.977 -15.023   7.382  1.00  0.00     0.030 A 
BRANCH  10  14
HETATM   14  N   UNL     1      40.820 -15.217   3.759  1.00  0.00    -0.325 N 
HETATM   15  C   UNL     1      41.028 -16.111   2.717  1.00  0.00     0.245 C 
HETATM   16  O   UNL     1      41.813 -17.051   2.697  1.00  0.00    -0.271 OA
HETATM   17  H   UNL     1      40.088 -14.541   3.564  1.00  0.00     0.169 HD
BRANCH  15  18
HETATM   18  C   UNL     1      40.069 -15.843   1.551  1.00  0.00     0.270 C 
BRANCH  18  19
HETATM   19  O   UNL     1      40.224 -14.531   1.005  1.00  0.00    -0.387 OA
HETATM   20  C   UNL     1      39.879 -14.494  -0.378  1.00  0.00     0.202 C 
ENDBRANCH  18  19
ENDBRANCH  15  18
ENDBRANCH  10  14
ENDBRANCH   1   7
BRANCH   3  21
HETATM   21  C   UNL     1      42.946  -9.892   7.706  1.00  0.00     0.163 C 
BRANCH  21  22
HETATM   22  C   UNL     1      43.062  -9.492   9.220  1.00  0.00     0.143 C 
HETATM   23  C   UNL     1      43.550 -10.712  10.047  1.00  0.00     0.041 C 
HETATM   24  C   UNL     1      44.823 -10.263  10.760  1.00  0.00     0.003 C 
HETATM   25  C   UNL     1      45.386  -9.178   9.863  1.00  0.00     0.003 C 
HETATM   26  C   UNL     1      44.148  -8.408   9.422  1.00  0.00     0.041 C 
BRANCH  22  27
HETATM   27  N   UNL     1      41.717  -9.003   9.754  1.00  0.00    -0.061 N 
HETATM   28  H   UNL     1      41.852  -7.969   9.794  1.00  0.00     0.281 HD
HETATM   29  C   UNL     1      41.298  -9.373  11.163  1.00  0.00     0.236 C 
HETATM   30  C   UNL     1      39.847  -9.810  11.041  1.00  0.00     0.029 C 
HETATM   31  C   UNL     1      39.343  -9.071   9.820  1.00  0.00     0.029 C 
HETATM   32  C   UNL     1      40.509  -9.183   8.862  1.00  0.00     0.236 C 
ENDBRANCH  22  27
ENDBRANCH  21  22
ENDBRANCH   3  21
TORSDOF 7
ENDMDL
MODEL 8
REMARK VINA RESULT:      -7.4      1.814      2.528
REMARK  7 active torsions:
REMARK  status: ('A' for Active; 'I' for Inactive)
REMARK    1  A    between atoms: C_3  and  N_4 
REMARK       I    between atoms: N_4  and  C_5 
REMARK       I    between atoms: C_5  and  N_6 
REMARK    2  A    between atoms: N_6  and  C_7 
REMARK    3  A    between atoms: C_7  and  C_8 
REMARK    4  A    between atoms: C_8  and  N_9 
REMARK    5  A    between atoms: C_23  and  N_24 
REMARK       I    between atoms: N_24  and  C_25 
REMARK    6  A    between atoms: C_25  and  C_26 
REMARK    7  A    between atoms: C_26  and  O_27 
ROOT
HETATM    1  N   UNL     1      42.273 -10.456   5.973  1.00  0.00    -0.308 N 
HETATM    2  C   UNL     1      41.348 -11.399   5.657  1.00  0.00     0.320 C 
HETATM    3  N   UNL     1      41.473 -12.628   6.212  1.00  0.00    -0.340 N 
HETATM    4  O   UNL     1      40.491 -11.143   4.810  1.00  0.00    -0.247 OA
HETATM    5  H   UNL     1      42.224  -9.660   5.349  1.00  0.00     0.170 HD
HETATM    6  H   UNL     1      42.376 -12.790   6.641  1.00  0.00     0.164 HD
ENDROOT
BRANCH   1   7
HETATM    7  C   UNL     1      43.252 -10.382   6.989  1.00  0.00     0.044 A 
HETATM    8  C   UNL     1      42.938  -9.720   8.207  1.00  0.00    -0.008 A 
HETATM    9  C   UNL     1      41.606  -9.025   8.386  1.00  0.00     0.053 C 
HETATM   10  C   UNL     1      43.899  -9.696   9.254  1.00  0.00     0.043 A 
HETATM   11  C   UNL     1      45.147 -10.290   9.050  1.00  0.00     0.030 A 
HETATM   12  C   UNL     1      45.442 -10.945   7.858  1.00  0.00     0.005 A 
HETATM   13  C   UNL     1      44.495 -11.006   6.841  1.00  0.00     0.030 A 
BRANCH  10  14
HETATM   14  N   UNL     1      43.564  -9.097  10.489  1.00  0.00    -0.325 N 
HETATM   15  C   UNL     1      43.320  -9.710  11.710  1.00  0.00     0.245 C 
HETATM   16  O   UNL     1      43.418 -10.903  11.968  1.00  0.00    -0.271 OA
HETATM   17  H   UNL     1      43.456  -8.087  10.522  1.00  0.00     0.169 HD
BRANCH  15  18
HETATM   18  C   UNL     1      42.969  -8.682  12.793  1.00  0.00     0.270 C 
BRANCH  18  19
HETATM   19  O   UNL     1      42.378  -9.283  13.946  1.00  0.00    -0.387 OA
HETATM   20  C   UNL     1      40.977  -9.025  14.012  1.00  0.00     0.202 C 
ENDBRANCH  18  19
ENDBRANCH  15  18
ENDBRANCH  10  14
ENDBRANCH   1   7
BRANCH   3  21
HETATM   21  C   UNL     1      40.694 -13.845   5.962  1.00  0.00     0.163 C 
BRANCH  21  22
HETATM   22  C   UNL     1      41.120 -14.873   4.854  1.00  0.00     0.143 C 
HETATM   23  C   UNL     1      42.644 -14.749   4.584  1.00  0.00     0.041 C 
HETATM   24  C   UNL     1      43.234 -16.136   4.828  1.00  0.00     0.003 C 
HETATM   25  C   UNL     1      42.288 -16.771   5.828  1.00  0.00     0.003 C 
HETATM   26  C   UNL     1      40.914 -16.327   5.343  1.00  0.00     0.041 C 
BRANCH  22  27
HETATM   27  N   UNL     1      40.339 -14.630   3.564  1.00  0.00    -0.061 N 
HETATM   28  H   UNL     1      39.488 -14.132   3.906  1.00  0.00     0.281 HD
HETATM   29  C   UNL     1      39.788 -15.815   2.796  1.00  0.00     0.236 C 
HETATM   30  C   UNL     1      40.134 -15.537   1.342  1.00  0.00     0.029 C 
HETATM   31  C   UNL     1      40.227 -14.028   1.269  1.00  0.00     0.029 C 
HETATM   32  C   UNL     1      40.944 -13.679   2.555  1.00  0.00     0.236 C 
ENDBRANCH  22  27
ENDBRANCH  21  22
ENDBRANCH   3  21
TORSDOF 7
ENDMDL
MODEL 9
REMARK VINA RESULT:      -7.4     18.007     21.261
REMARK  7 active torsions:
REMARK  status: ('A' for Active; 'I' for Inactive)
REMARK    1  A    between atoms: C_3  and  N_4 
REMARK       I    between atoms: N_4  and  C_5 
REMARK       I    between atoms: C_5  and  N_6 
REMARK    2  A    between atoms: N_6  and  C_7 
REMARK    3  A    between atoms: C_7  and  C_8 
REMARK    4  A    between atoms: C_8  and  N_9 
REMARK    5  A    between atoms: C_23  and  N_24 
REMARK       I    between atoms: N_24  and  C_25 
REMARK    6  A    between atoms: C_25  and  C_26 
REMARK    7  A    between atoms: C_26  and  O_27 
ROOT
HETATM    1  N   UNL     1      44.700 -30.323  -0.538  1.00  0.00    -0.308 N 
HETATM    2  C   UNL     1      45.647 -30.708   0.356  1.00  0.00     0.320 C 
HETATM    3  N   UNL     1      46.929 -30.802  -0.071  1.00  0.00    -0.340 N 
HETATM    4  O   UNL     1      45.303 -31.054   1.487  1.00  0.00    -0.247 OA
HETATM    5  H   UNL     1      43.765 -30.496  -0.191  1.00  0.00     0.170 HD
HETATM    6  H   UNL     1      47.024 -30.787  -1.080  1.00  0.00     0.164 HD
ENDROOT
BRANCH   1   7
HETATM    7  C   UNL     1      44.782 -29.730  -1.818  1.00  0.00     0.044 A 
HETATM    8  C   UNL     1      44.466 -30.508  -2.965  1.00  0.00    -0.008 A 
HETATM    9  C   UNL     1      44.130 -31.978  -2.830  1.00  0.00     0.053 C 
HETATM   10  C   UNL     1      44.490 -29.899  -4.248  1.00  0.00     0.043 A 
HETATM   11  C   UNL     1      44.861 -28.556  -4.361  1.00  0.00     0.030 A 
HETATM   12  C   UNL     1      45.159 -27.799  -3.231  1.00  0.00     0.005 A 
HETATM   13  C   UNL     1      45.102 -28.377  -1.968  1.00  0.00     0.030 A 
BRANCH  10  14
HETATM   14  N   UNL     1      44.110 -30.653  -5.381  1.00  0.00    -0.325 N 
HETATM   15  C   UNL     1      44.923 -31.289  -6.308  1.00  0.00     0.245 C 
HETATM   16  O   UNL     1      46.145 -31.377  -6.281  1.00  0.00    -0.271 OA
HETATM   17  H   UNL     1      43.120 -30.745  -5.590  1.00  0.00     0.169 HD
BRANCH  15  18
HETATM   18  C   UNL     1      44.095 -31.982  -7.397  1.00  0.00     0.270 C 
BRANCH  18  19
HETATM   19  O   UNL     1      44.421 -31.520  -8.710  1.00  0.00    -0.387 OA
HETATM   20  C   UNL     1      44.082 -32.484  -9.704  1.00  0.00     0.202 C 
ENDBRANCH  18  19
ENDBRANCH  15  18
ENDBRANCH  10  14
ENDBRANCH   1   7
BRANCH   3  21
HETATM   21  C   UNL     1      48.112 -31.295   0.640  1.00  0.00     0.163 C 
BRANCH  21  22
HETATM   22  C   UNL     1      49.487 -30.539   0.559  1.00  0.00     0.143 C 
HETATM   23  C   UNL     1      50.637 -31.565   0.373  1.00  0.00     0.041 C 
HETATM   24  C   UNL     1      51.364 -31.162  -0.907  1.00  0.00     0.003 C 
HETATM   25  C   UNL     1      50.303 -30.457  -1.730  1.00  0.00     0.003 C 
HETATM   26  C   UNL     1      49.545 -29.635  -0.695  1.00  0.00     0.041 C 
BRANCH  22  27
HETATM   27  N   UNL     1      49.723 -29.712   1.822  1.00  0.00    -0.061 N 
HETATM   28  H   UNL     1      50.112 -28.822   1.440  1.00  0.00     0.281 HD
HETATM   29  C   UNL     1      50.764 -30.168   2.825  1.00  0.00     0.236 C 
HETATM   30  C   UNL     1      50.094 -30.025   4.181  1.00  0.00     0.029 C 
HETATM   31  C   UNL     1      49.063 -28.938   3.969  1.00  0.00     0.029 C 
HETATM   32  C   UNL     1      48.504 -29.275   2.604  1.00  0.00     0.236 C 
ENDBRANCH  22  27
ENDBRANCH  21  22
ENDBRANCH   3  21
TORSDOF 7
ENDMDL
MODEL 10
REMARK VINA RESULT:      -7.4      5.367      9.043
REMARK  7 active torsions:
REMARK  status: ('A' for Active; 'I' for Inactive)
REMARK    1  A    between atoms: C_3  and  N_4 
REMARK       I    between atoms: N_4  and  C_5 
REMARK       I    between atoms: C_5  and  N_6 
REMARK    2  A    between atoms: N_6  and  C_7 
REMARK    3  A    between atoms: C_7  and  C_8 
REMARK    4  A    between atoms: C_8  and  N_9 
REMARK    5  A    between atoms: C_23  and  N_24 
REMARK       I    between atoms: N_24  and  C_25 
REMARK    6  A    between atoms: C_25  and  C_26 
REMARK    7  A    between atoms: C_26  and  O_27 
ROOT
HETATM    1  N   UNL     1      41.901 -12.599   2.310  1.00  0.00    -0.308 N 
HETATM    2  C   UNL     1      41.113 -11.996   1.381  1.00  0.00     0.320 C 
HETATM    3  N   UNL     1      39.934 -12.584   1.066  1.00  0.00    -0.340 N 
HETATM    4  O   UNL     1      41.533 -11.002   0.788  1.00  0.00    -0.247 OA
HETATM    5  H   UNL     1      42.838 -12.215   2.312  1.00  0.00     0.170 HD
HETATM    6  H   UNL     1      39.853 -13.538   1.396  1.00  0.00     0.164 HD
ENDROOT
BRANCH   1   7
HETATM    7  C   UNL     1      41.653 -13.622   3.252  1.00  0.00     0.044 A 
HETATM    8  C   UNL     1      42.252 -14.897   3.065  1.00  0.00    -0.008 A 
HETATM    9  C   UNL     1      43.076 -15.188   1.829  1.00  0.00     0.053 C 
HETATM   10  C   UNL     1      42.053 -15.910   4.042  1.00  0.00     0.043 A 
HETATM   11  C   UNL     1      41.240 -15.644   5.147  1.00  0.00     0.030 A 
HETATM   12  C   UNL     1      40.665 -14.389   5.327  1.00  0.00     0.005 A 
HETATM   13  C   UNL     1      40.884 -13.380   4.395  1.00  0.00     0.030 A 
BRANCH  10  14
HETATM   14  N   UNL     1      42.703 -17.156   3.891  1.00  0.00    -0.325 N 
HETATM   15  C   UNL     1      43.884 -17.591   4.476  1.00  0.00     0.245 C 
HETATM   16  O   UNL     1      44.563 -16.993   5.301  1.00  0.00    -0.271 OA
HETATM   17  H   UNL     1      42.293 -17.841   3.263  1.00  0.00     0.169 HD
BRANCH  15  18
HETATM   18  C   UNL     1      44.242 -19.012   4.023  1.00  0.00     0.270 C 
BRANCH  18  19
HETATM   19  O   UNL     1      44.228 -19.153   2.601  1.00  0.00    -0.387 OA
HETATM   20  C   UNL     1      43.464 -20.287   2.194  1.00  0.00     0.202 C 
ENDBRANCH  18  19
ENDBRANCH  15  18
ENDBRANCH  10  14
ENDBRANCH   1   7
BRANCH   3  21
HETATM   21  C   UNL     1      38.959 -12.216   0.035  1.00  0.00     0.163 C 
BRANCH  21  22
HETATM   22  C   UNL     1      39.311 -12.311  -1.492  1.00  0.00     0.143 C 
HETATM   23  C   UNL     1      40.157 -13.586  -1.755  1.00  0.00     0.041 C 
HETATM   24  C   UNL     1      39.396 -14.395  -2.802  1.00  0.00     0.003 C 
HETATM   25  C   UNL     1      37.948 -13.993  -2.600  1.00  0.00     0.003 C 
HETATM   26  C   UNL     1      38.032 -12.494  -2.343  1.00  0.00     0.041 C 
BRANCH  22  27
HETATM   27  N   UNL     1      40.079 -11.071  -1.947  1.00  0.00    -0.061 N 
HETATM   28  H   UNL     1      40.871 -11.034  -1.267  1.00  0.00     0.281 HD
HETATM   29  C   UNL     1      39.427  -9.708  -1.828  1.00  0.00     0.236 C 
HETATM   30  C   UNL     1      39.708  -9.019  -3.153  1.00  0.00     0.029 C 
HETATM   31  C   UNL     1      40.980  -9.675  -3.645  1.00  0.00     0.029 C 
HETATM   32  C   UNL     1      40.756 -11.131  -3.299  1.00  0.00     0.236 C 
ENDBRANCH  22  27
ENDBRANCH  21  22
ENDBRANCH   3  21
TORSDOF 7
ENDMDL
