MODEL 1
REMARK VINA RESULT:     -10.1      0.000      0.000
REMARK  6 active torsions:
REMARK  status: ('A' for Active; 'I' for Inactive)
REMARK    1  A    between atoms: N_4  and  C_5 
REMARK    2  A    between atoms: C_13  and  C_14 
REMARK    3  A    between atoms: C_18  and  C_19 
REMARK       I    between atoms: C_19  and  N_20 
REMARK    4  A    between atoms: N_20  and  N_21 
REMARK    5  A    between atoms: C_22  and  C_23 
REMARK    6  A    between atoms: C_24  and  O_25 
ROOT
HETATM    1  C   UNL     1      44.166  -9.381   9.400  1.00  0.00     0.093 A 
HETATM    2  N   UNL     1      45.443  -9.762   9.496  1.00  0.00    -0.173 NA
HETATM    3  N   UNL     1      45.667 -10.434   8.357  1.00  0.00    -0.272 N 
HETATM    4  H   UNL     1      46.586 -10.833   8.189  1.00  0.00     0.189 HD
HETATM    5  C   UNL     1      44.576 -10.516   7.532  1.00  0.00     0.121 A 
HETATM    6  C   UNL     1      43.576  -9.828   8.195  1.00  0.00     0.071 A 
ENDROOT
BRANCH   5   7
HETATM    7  C   UNL     1      44.647 -11.232   6.283  1.00  0.00     0.289 C 
HETATM    8  N   UNL     1      43.535 -12.006   5.983  1.00  0.00    -0.242 N 
HETATM    9  H   UNL     1      42.746 -12.042   6.614  1.00  0.00     0.192 HD
HETATM   10  O   UNL     1      45.634 -11.149   5.557  1.00  0.00    -0.264 OA
BRANCH   8  11
HETATM   11  N   UNL     1      43.526 -12.759   4.848  1.00  0.00    -0.183 NA
HETATM   12  C   UNL     1      42.906 -13.896   4.917  1.00  0.00     0.153 C 
BRANCH  12  13
HETATM   13  C   UNL     1      42.858 -14.818   3.753  1.00  0.00     0.027 A 
HETATM   14  C   UNL     1      42.403 -14.331   2.513  1.00  0.00     0.078 A 
HETATM   15  C   UNL     1      42.391 -15.148   1.391  1.00  0.00     0.038 A 
HETATM   16  C   UNL     1      42.830 -16.464   1.490  1.00  0.00     0.015 A 
HETATM   17  C   UNL     1      43.277 -16.986   2.711  1.00  0.00    -0.025 A 
HETATM   18  C   UNL     1      43.298 -16.172   3.877  1.00  0.00    -0.012 A 
HETATM   19  C   UNL     1      43.704 -18.323   2.769  1.00  0.00     0.012 A 
HETATM   20  C   UNL     1      43.748 -16.786   5.076  1.00  0.00     0.013 A 
HETATM   21  C   UNL     1      44.165 -18.120   5.116  1.00  0.00     0.001 A 
HETATM   22  C   UNL     1      44.146 -18.888   3.961  1.00  0.00     0.001 A 
BRANCH  14  23
HETATM   23  O   UNL     1      41.955 -13.053   2.307  1.00  0.00    -0.360 OA
HETATM   24  H   UNL     1      41.051 -12.969   2.686  1.00  0.00     0.217 HD
ENDBRANCH  14  23
ENDBRANCH  12  13
ENDBRANCH   8  11
ENDBRANCH   5   7
BRANCH   1  25
HETATM   25  C   UNL     1      43.485  -8.632  10.455  1.00  0.00     0.045 C 
HETATM   26  C   UNL     1      43.038  -7.297  10.393  1.00  0.00     0.066 C 
HETATM   27  C   UNL     1      43.168  -6.302   9.299  1.00  0.00     0.073 C 
HETATM   28  N   UNL     1      42.403  -6.946  11.513  1.00  0.00    -0.171 NA
HETATM   29  N   UNL     1      42.572  -7.992  12.371  1.00  0.00    -0.237 N 
HETATM   30  C   UNL     1      43.118  -9.088  11.712  1.00  0.00     0.047 C 
HETATM   31  C   UNL     1      43.209 -10.469  12.255  1.00  0.00     0.071 C 
BRANCH  29  32
HETATM   32  C   UNL     1      42.185  -7.825  13.737  1.00  0.00     0.058 A 
HETATM   33  C   UNL     1      42.965  -7.000  14.569  1.00  0.00     0.031 A 
HETATM   34  C   UNL     1      42.624  -6.813  15.910  1.00  0.00     0.002 A 
HETATM   35  C   UNL     1      41.512  -7.457  16.442  1.00  0.00     0.000 A 
HETATM   36  C   UNL     1      40.748  -8.299  15.637  1.00  0.00     0.002 A 
HETATM   37  C   UNL     1      41.083  -8.488  14.292  1.00  0.00     0.031 A 
ENDBRANCH  29  32
ENDBRANCH   1  25
TORSDOF 6
ENDMDL
MODEL 2
REMARK VINA RESULT:     -10.0      3.243     11.668
REMARK  6 active torsions:
REMARK  status: ('A' for Active; 'I' for Inactive)
REMARK    1  A    between atoms: N_4  and  C_5 
REMARK    2  A    between atoms: C_13  and  C_14 
REMARK    3  A    between atoms: C_18  and  C_19 
REMARK       I    between atoms: C_19  and  N_20 
REMARK    4  A    between atoms: N_20  and  N_21 
REMARK    5  A    between atoms: C_22  and  C_23 
REMARK    6  A    between atoms: C_24  and  O_25 
ROOT
HETATM    1  C   UNL     1      40.887 -13.356   4.778  1.00  0.00     0.093 A 
HETATM    2  N   UNL     1      39.748 -13.009   4.171  1.00  0.00    -0.173 NA
HETATM    3  N   UNL     1      39.218 -12.083   4.985  1.00  0.00    -0.272 N 
HETATM    4  H   UNL     1      38.330 -11.656   4.738  1.00  0.00     0.189 HD
HETATM    5  C   UNL     1      39.964 -11.829   6.106  1.00  0.00     0.121 A 
HETATM    6  C   UNL     1      41.069 -12.652   5.991  1.00  0.00     0.071 A 
ENDROOT
BRANCH   5   7
HETATM    7  C   UNL     1      39.514 -10.881   7.093  1.00  0.00     0.289 C 
HETATM    8  N   UNL     1      40.488 -10.009   7.560  1.00  0.00    -0.242 N 
HETATM    9  H   UNL     1      41.435 -10.059   7.210  1.00  0.00     0.192 HD
HETATM   10  O   UNL     1      38.348 -10.868   7.480  1.00  0.00    -0.264 OA
BRANCH   8  11
HETATM   11  N   UNL     1      40.173  -9.106   8.531  1.00  0.00    -0.183 NA
HETATM   12  C   UNL     1      40.575  -9.390   9.731  1.00  0.00     0.153 C 
BRANCH  12  13
HETATM   13  C   UNL     1      40.262  -8.497  10.877  1.00  0.00     0.027 A 
HETATM   14  C   UNL     1      38.947  -8.018  11.032  1.00  0.00     0.078 A 
HETATM   15  C   UNL     1      38.605  -7.224  12.117  1.00  0.00     0.038 A 
HETATM   16  C   UNL     1      39.571  -6.889  13.061  1.00  0.00     0.015 A 
HETATM   17  C   UNL     1      40.892  -7.337  12.931  1.00  0.00    -0.025 A 
HETATM   18  C   UNL     1      41.271  -8.151  11.828  1.00  0.00    -0.012 A 
HETATM   19  C   UNL     1      41.838  -6.970  13.902  1.00  0.00     0.012 A 
HETATM   20  C   UNL     1      42.635  -8.545  11.764  1.00  0.00     0.013 A 
HETATM   21  C   UNL     1      43.564  -8.166  12.738  1.00  0.00     0.001 A 
HETATM   22  C   UNL     1      43.164  -7.382  13.809  1.00  0.00     0.001 A 
BRANCH  14  23
HETATM   23  O   UNL     1      37.923  -8.292  10.165  1.00  0.00    -0.360 OA
HETATM   24  H   UNL     1      38.301  -8.463   9.272  1.00  0.00     0.217 HD
ENDBRANCH  14  23
ENDBRANCH  12  13
ENDBRANCH   8  11
ENDBRANCH   5   7
BRANCH   1  25
HETATM   25  C   UNL     1      41.787 -14.377   4.242  1.00  0.00     0.045 C 
HETATM   26  C   UNL     1      42.841 -14.181   3.327  1.00  0.00     0.066 C 
HETATM   27  C   UNL     1      43.288 -12.942   2.644  1.00  0.00     0.073 C 
HETATM   28  N   UNL     1      43.499 -15.320   3.097  1.00  0.00    -0.171 NA
HETATM   29  N   UNL     1      42.782 -16.290   3.730  1.00  0.00    -0.237 N 
HETATM   30  C   UNL     1      41.804 -15.730   4.544  1.00  0.00     0.047 C 
HETATM   31  C   UNL     1      41.005 -16.456   5.568  1.00  0.00     0.071 C 
BRANCH  29  32
HETATM   32  C   UNL     1      43.118 -17.659   3.487  1.00  0.00     0.058 A 
HETATM   33  C   UNL     1      43.833 -18.368   4.468  1.00  0.00     0.031 A 
HETATM   34  C   UNL     1      44.184 -19.705   4.269  1.00  0.00     0.002 A 
HETATM   35  C   UNL     1      43.839 -20.346   3.083  1.00  0.00     0.000 A 
HETATM   36  C   UNL     1      43.156 -19.646   2.091  1.00  0.00     0.002 A 
HETATM   37  C   UNL     1      42.799 -18.307   2.287  1.00  0.00     0.031 A 
ENDBRANCH  29  32
ENDBRANCH   1  25
TORSDOF 6
ENDMDL
MODEL 3
REMARK VINA RESULT:      -9.9      2.197     11.669
REMARK  6 active torsions:
REMARK  status: ('A' for Active; 'I' for Inactive)
REMARK    1  A    between atoms: N_4  and  C_5 
REMARK    2  A    between atoms: C_13  and  C_14 
REMARK    3  A    between atoms: C_18  and  C_19 
REMARK       I    between atoms: C_19  and  N_20 
REMARK    4  A    between atoms: N_20  and  N_21 
REMARK    5  A    between atoms: C_22  and  C_23 
REMARK    6  A    between atoms: C_24  and  O_25 
ROOT
HETATM    1  C   UNL     1      42.896 -13.573   5.427  1.00  0.00     0.093 A 
HETATM    2  N   UNL     1      41.671 -13.134   5.730  1.00  0.00    -0.173 NA
HETATM    3  N   UNL     1      41.893 -12.046   6.481  1.00  0.00    -0.272 N 
HETATM    4  H   UNL     1      41.102 -11.522   6.844  1.00  0.00     0.189 HD
HETATM    5  C   UNL     1      43.220 -11.772   6.691  1.00  0.00     0.121 A 
HETATM    6  C   UNL     1      43.899 -12.761   6.004  1.00  0.00     0.071 A 
ENDROOT
BRANCH   5   7
HETATM    7  C   UNL     1      43.623 -10.651   7.502  1.00  0.00     0.289 C 
HETATM    8  N   UNL     1      42.610 -10.077   8.258  1.00  0.00    -0.242 N 
HETATM    9  H   UNL     1      41.668 -10.443   8.222  1.00  0.00     0.192 HD
HETATM   10  O   UNL     1      44.784 -10.251   7.505  1.00  0.00    -0.264 OA
BRANCH   8  11
HETATM   11  N   UNL     1      42.879  -8.981   9.021  1.00  0.00    -0.183 NA
HETATM   12  C   UNL     1      41.996  -8.675   9.921  1.00  0.00     0.153 C 
BRANCH  12  13
HETATM   13  C   UNL     1      42.165  -7.482  10.789  1.00  0.00     0.027 A 
HETATM   14  C   UNL     1      42.292  -6.213  10.193  1.00  0.00     0.078 A 
HETATM   15  C   UNL     1      42.402  -5.070  10.972  1.00  0.00     0.038 A 
HETATM   16  C   UNL     1      42.392  -5.176  12.359  1.00  0.00     0.015 A 
HETATM   17  C   UNL     1      42.281  -6.424  12.987  1.00  0.00    -0.025 A 
HETATM   18  C   UNL     1      42.169  -7.611  12.213  1.00  0.00    -0.012 A 
HETATM   19  C   UNL     1      42.284  -6.487  14.390  1.00  0.00     0.012 A 
HETATM   20  C   UNL     1      42.080  -8.835  12.930  1.00  0.00     0.013 A 
HETATM   21  C   UNL     1      42.089  -8.879  14.327  1.00  0.00     0.001 A 
HETATM   22  C   UNL     1      42.186  -7.704  15.057  1.00  0.00     0.001 A 
BRANCH  14  23
HETATM   23  O   UNL     1      42.308  -5.999   8.840  1.00  0.00    -0.360 OA
HETATM   24  H   UNL     1      41.389  -6.074   8.496  1.00  0.00     0.217 HD
ENDBRANCH  14  23
ENDBRANCH  12  13
ENDBRANCH   8  11
ENDBRANCH   5   7
BRANCH   1  25
HETATM   25  C   UNL     1      43.128 -14.777   4.630  1.00  0.00     0.045 C 
HETATM   26  C   UNL     1      43.029 -14.898   3.229  1.00  0.00     0.066 C 
HETATM   27  C   UNL     1      42.635 -13.889   2.214  1.00  0.00     0.073 C 
HETATM   28  N   UNL     1      43.366 -16.124   2.824  1.00  0.00    -0.171 NA
HETATM   29  N   UNL     1      43.529 -16.853   3.965  1.00  0.00    -0.237 N 
HETATM   30  C   UNL     1      43.516 -16.028   5.084  1.00  0.00     0.047 C 
HETATM   31  C   UNL     1      43.911 -16.428   6.461  1.00  0.00     0.071 C 
BRANCH  29  32
HETATM   32  C   UNL     1      43.684 -18.270   3.855  1.00  0.00     0.058 A 
HETATM   33  C   UNL     1      43.430 -18.888   2.617  1.00  0.00     0.031 A 
HETATM   34  C   UNL     1      43.567 -20.270   2.468  1.00  0.00     0.002 A 
HETATM   35  C   UNL     1      43.944 -21.054   3.554  1.00  0.00     0.000 A 
HETATM   36  C   UNL     1      44.171 -20.457   4.792  1.00  0.00     0.002 A 
HETATM   37  C   UNL     1      44.038 -19.073   4.946  1.00  0.00     0.031 A 
ENDBRANCH  29  32
ENDBRANCH   1  25
TORSDOF 6
ENDMDL
MODEL 4
REMARK VINA RESULT:      -9.8      1.527      2.400
REMARK  6 active torsions:
REMARK  status: ('A' for Active; 'I' for Inactive)
REMARK    1  A    between atoms: N_4  and  C_5 
REMARK    2  A    between atoms: C_13  and  C_14 
REMARK    3  A    between atoms: C_18  and  C_19 
REMARK       I    between atoms: C_19  and  N_20 
REMARK    4  A    between atoms: N_20  and  N_21 
REMARK    5  A    between atoms: C_22  and  C_23 
REMARK    6  A    between atoms: C_24  and  O_25 
ROOT
HETATM    1  C   UNL     1      43.878  -8.815   9.375  1.00  0.00     0.093 A 
HETATM    2  N   UNL     1      45.069  -8.396   8.936  1.00  0.00    -0.173 NA
HETATM    3  N   UNL     1      45.456  -9.357   8.084  1.00  0.00    -0.272 N 
HETATM    4  H   UNL     1      46.350  -9.268   7.609  1.00  0.00     0.189 HD
HETATM    5  C   UNL     1      44.566 -10.392   7.966  1.00  0.00     0.121 A 
HETATM    6  C   UNL     1      43.518 -10.057   8.803  1.00  0.00     0.071 A 
ENDROOT
BRANCH   5   7
HETATM    7  C   UNL     1      44.851 -11.517   7.111  1.00  0.00     0.289 C 
HETATM    8  N   UNL     1      44.019 -12.614   7.284  1.00  0.00    -0.242 N 
HETATM    9  H   UNL     1      43.274 -12.594   7.967  1.00  0.00     0.192 HD
HETATM   10  O   UNL     1      45.772 -11.482   6.299  1.00  0.00    -0.264 OA
BRANCH   8  11
HETATM   11  N   UNL     1      44.238 -13.746   6.557  1.00  0.00    -0.183 NA
HETATM   12  C   UNL     1      43.238 -14.564   6.452  1.00  0.00     0.153 C 
BRANCH  12  13
HETATM   13  C   UNL     1      43.369 -15.846   5.712  1.00  0.00     0.027 A 
HETATM   14  C   UNL     1      43.559 -17.038   6.436  1.00  0.00     0.078 A 
HETATM   15  C   UNL     1      43.636 -18.260   5.783  1.00  0.00     0.038 A 
HETATM   16  C   UNL     1      43.529 -18.312   4.397  1.00  0.00     0.015 A 
HETATM   17  C   UNL     1      43.353 -17.143   3.643  1.00  0.00    -0.025 A 
HETATM   18  C   UNL     1      43.272 -15.878   4.286  1.00  0.00    -0.012 A 
HETATM   19  C   UNL     1      43.257 -17.239   2.245  1.00  0.00     0.012 A 
HETATM   20  C   UNL     1      43.112 -14.744   3.445  1.00  0.00     0.013 A 
HETATM   21  C   UNL     1      43.023 -14.857   2.055  1.00  0.00     0.001 A 
HETATM   22  C   UNL     1      43.092 -16.105   1.455  1.00  0.00     0.001 A 
BRANCH  14  23
HETATM   23  O   UNL     1      43.672 -17.099   7.800  1.00  0.00    -0.360 OA
HETATM   24  H   UNL     1      43.738 -18.042   8.071  1.00  0.00     0.217 HD
ENDBRANCH  14  23
ENDBRANCH  12  13
ENDBRANCH   8  11
ENDBRANCH   5   7
BRANCH   1  25
HETATM   25  C   UNL     1      43.095  -8.072  10.361  1.00  0.00     0.045 C 
HETATM   26  C   UNL     1      42.444  -6.836  10.169  1.00  0.00     0.066 C 
HETATM   27  C   UNL     1      42.409  -5.956   8.974  1.00  0.00     0.073 C 
HETATM   28  N   UNL     1      41.768  -6.470  11.260  1.00  0.00    -0.171 NA
HETATM   29  N   UNL     1      42.105  -7.379  12.219  1.00  0.00    -0.237 N 
HETATM   30  C   UNL     1      42.811  -8.441  11.667  1.00  0.00     0.047 C 
HETATM   31  C   UNL     1      43.122  -9.726  12.349  1.00  0.00     0.071 C 
BRANCH  29  32
HETATM   32  C   UNL     1      41.706  -7.128  13.569  1.00  0.00     0.058 A 
HETATM   33  C   UNL     1      42.693  -7.067  14.570  1.00  0.00     0.031 A 
HETATM   34  C   UNL     1      42.345  -6.827  15.901  1.00  0.00     0.002 A 
HETATM   35  C   UNL     1      41.009  -6.661  16.253  1.00  0.00     0.000 A 
HETATM   36  C   UNL     1      40.020  -6.747  15.276  1.00  0.00     0.002 A 
HETATM   37  C   UNL     1      40.363  -6.984  13.940  1.00  0.00     0.031 A 
ENDBRANCH  29  32
ENDBRANCH   1  25
TORSDOF 6
ENDMDL
MODEL 5
REMARK VINA RESULT:      -9.4      3.395     11.846
REMARK  6 active torsions:
REMARK  status: ('A' for Active; 'I' for Inactive)
REMARK    1  A    between atoms: N_4  and  C_5 
REMARK    2  A    between atoms: C_13  and  C_14 
REMARK    3  A    between atoms: C_18  and  C_19 
REMARK       I    between atoms: C_19  and  N_20 
REMARK    4  A    between atoms: N_20  and  N_21 
REMARK    5  A    between atoms: C_22  and  C_23 
REMARK    6  A    between atoms: C_24  and  O_25 
ROOT
HETATM    1  C   UNL     1      40.926 -13.466   4.655  1.00  0.00     0.093 A 
HETATM    2  N   UNL     1      39.856 -13.027   3.987  1.00  0.00    -0.173 NA
HETATM    3  N   UNL     1      39.304 -12.128   4.816  1.00  0.00    -0.272 N 
HETATM    4  H   UNL     1      38.458 -11.643   4.530  1.00  0.00     0.189 HD
HETATM    5  C   UNL     1      39.970 -11.979   6.005  1.00  0.00     0.121 A 
HETATM    6  C   UNL     1      41.043 -12.847   5.922  1.00  0.00     0.071 A 
ENDROOT
BRANCH   5   7
HETATM    7  C   UNL     1      39.485 -11.072   7.014  1.00  0.00     0.289 C 
HETATM    8  N   UNL     1      40.443 -10.225   7.554  1.00  0.00    -0.242 N 
HETATM    9  H   UNL     1      41.403 -10.265   7.238  1.00  0.00     0.192 HD
HETATM   10  O   UNL     1      38.306 -11.071   7.357  1.00  0.00    -0.264 OA
BRANCH   8  11
HETATM   11  N   UNL     1      40.095  -9.364   8.550  1.00  0.00    -0.183 NA
HETATM   12  C   UNL     1      40.921  -9.273   9.547  1.00  0.00     0.153 C 
BRANCH  12  13
HETATM   13  C   UNL     1      40.630  -8.392  10.707  1.00  0.00     0.027 A 
HETATM   14  C   UNL     1      39.739  -8.838  11.700  1.00  0.00     0.078 A 
HETATM   15  C   UNL     1      39.481  -8.064  12.823  1.00  0.00     0.038 A 
HETATM   16  C   UNL     1      40.106  -6.830  12.969  1.00  0.00     0.015 A 
HETATM   17  C   UNL     1      40.989  -6.348  11.994  1.00  0.00    -0.025 A 
HETATM   18  C   UNL     1      41.269  -7.119  10.833  1.00  0.00    -0.012 A 
HETATM   19  C   UNL     1      41.592  -5.092  12.177  1.00  0.00     0.012 A 
HETATM   20  C   UNL     1      42.161  -6.547   9.886  1.00  0.00     0.013 A 
HETATM   21  C   UNL     1      42.749  -5.294  10.083  1.00  0.00     0.001 A 
HETATM   22  C   UNL     1      42.467  -4.568  11.231  1.00  0.00     0.001 A 
BRANCH  14  23
HETATM   23  O   UNL     1      39.077 -10.036  11.655  1.00  0.00    -0.360 OA
HETATM   24  H   UNL     1      39.276 -10.541  12.476  1.00  0.00     0.217 HD
ENDBRANCH  14  23
ENDBRANCH  12  13
ENDBRANCH   8  11
ENDBRANCH   5   7
BRANCH   1  25
HETATM   25  C   UNL     1      41.819 -14.496   4.125  1.00  0.00     0.045 C 
HETATM   26  C   UNL     1      42.803 -14.333   3.129  1.00  0.00     0.066 C 
HETATM   27  C   UNL     1      43.166 -13.129   2.340  1.00  0.00     0.073 C 
HETATM   28  N   UNL     1      43.479 -15.466   2.927  1.00  0.00    -0.171 NA
HETATM   29  N   UNL     1      42.836 -16.412   3.668  1.00  0.00    -0.237 N 
HETATM   30  C   UNL     1      41.897 -15.825   4.510  1.00  0.00     0.047 C 
HETATM   31  C   UNL     1      41.191 -16.504   5.629  1.00  0.00     0.071 C 
BRANCH  29  32
HETATM   32  C   UNL     1      43.197 -17.784   3.489  1.00  0.00     0.058 A 
HETATM   33  C   UNL     1      42.846 -18.428   2.289  1.00  0.00     0.031 A 
HETATM   34  C   UNL     1      43.177 -19.768   2.075  1.00  0.00     0.002 A 
HETATM   35  C   UNL     1      43.848 -20.485   3.061  1.00  0.00     0.000 A 
HETATM   36  C   UNL     1      44.176 -19.867   4.265  1.00  0.00     0.002 A 
HETATM   37  C   UNL     1      43.850 -18.524   4.483  1.00  0.00     0.031 A 
ENDBRANCH  29  32
ENDBRANCH   1  25
TORSDOF 6
ENDMDL
MODEL 6
REMARK VINA RESULT:      -9.4      2.718      3.792
REMARK  6 active torsions:
REMARK  status: ('A' for Active; 'I' for Inactive)
REMARK    1  A    between atoms: N_4  and  C_5 
REMARK    2  A    between atoms: C_13  and  C_14 
REMARK    3  A    between atoms: C_18  and  C_19 
REMARK       I    between atoms: C_19  and  N_20 
REMARK    4  A    between atoms: N_20  and  N_21 
REMARK    5  A    between atoms: C_22  and  C_23 
REMARK    6  A    between atoms: C_24  and  O_25 
ROOT
HETATM    1  C   UNL     1      43.484  -8.233   9.259  1.00  0.00     0.093 A 
HETATM    2  N   UNL     1      44.596  -7.799   8.659  1.00  0.00    -0.173 NA
HETATM    3  N   UNL     1      45.056  -8.879   8.009  1.00  0.00    -0.272 N 
HETATM    4  H   UNL     1      45.911  -8.804   7.466  1.00  0.00     0.189 HD
HETATM    5  C   UNL     1      44.290 -10.002   8.180  1.00  0.00     0.121 A 
HETATM    6  C   UNL     1      43.248  -9.602   8.996  1.00  0.00     0.071 A 
ENDROOT
BRANCH   5   7
HETATM    7  C   UNL     1      44.667 -11.252   7.570  1.00  0.00     0.289 C 
HETATM    8  N   UNL     1      43.692 -12.240   7.598  1.00  0.00    -0.242 N 
HETATM    9  H   UNL     1      42.791 -12.063   8.021  1.00  0.00     0.192 HD
HETATM   10  O   UNL     1      45.779 -11.408   7.071  1.00  0.00    -0.264 OA
BRANCH   8  11
HETATM   11  N   UNL     1      43.969 -13.474   7.091  1.00  0.00    -0.183 NA
HETATM   12  C   UNL     1      43.030 -14.032   6.392  1.00  0.00     0.153 C 
BRANCH  12  13
HETATM   13  C   UNL     1      43.206 -15.391   5.817  1.00  0.00     0.027 A 
HETATM   14  C   UNL     1      43.344 -16.489   6.686  1.00  0.00     0.078 A 
HETATM   15  C   UNL     1      43.460 -17.779   6.187  1.00  0.00     0.038 A 
HETATM   16  C   UNL     1      43.444 -17.992   4.812  1.00  0.00     0.015 A 
HETATM   17  C   UNL     1      43.321 -16.920   3.917  1.00  0.00    -0.025 A 
HETATM   18  C   UNL     1      43.203 -15.589   4.401  1.00  0.00    -0.012 A 
HETATM   19  C   UNL     1      43.318 -17.179   2.537  1.00  0.00     0.012 A 
HETATM   20  C   UNL     1      43.102 -14.561   3.425  1.00  0.00     0.013 A 
HETATM   21  C   UNL     1      43.105 -14.837   2.054  1.00  0.00     0.001 A 
HETATM   22  C   UNL     1      43.209 -16.146   1.610  1.00  0.00     0.001 A 
BRANCH  14  23
HETATM   23  O   UNL     1      43.367 -16.389   8.052  1.00  0.00    -0.360 OA
HETATM   24  H   UNL     1      44.098 -16.949   8.399  1.00  0.00     0.217 HD
ENDBRANCH  14  23
ENDBRANCH  12  13
ENDBRANCH   8  11
ENDBRANCH   5   7
BRANCH   1  25
HETATM   25  C   UNL     1      42.663  -7.375  10.113  1.00  0.00     0.045 C 
HETATM   26  C   UNL     1      42.628  -7.368  11.522  1.00  0.00     0.066 C 
HETATM   27  C   UNL     1      43.353  -8.223  12.495  1.00  0.00     0.073 C 
HETATM   28  N   UNL     1      41.811  -6.417  11.981  1.00  0.00    -0.171 NA
HETATM   29  N   UNL     1      41.187  -5.910  10.880  1.00  0.00    -0.237 N 
HETATM   30  C   UNL     1      41.779  -6.385   9.715  1.00  0.00     0.047 C 
HETATM   31  C   UNL     1      41.536  -5.863   8.343  1.00  0.00     0.071 C 
BRANCH  29  32
HETATM   32  C   UNL     1      40.087  -5.016  11.068  1.00  0.00     0.058 A 
HETATM   33  C   UNL     1      40.345  -3.698  11.484  1.00  0.00     0.031 A 
HETATM   34  C   UNL     1      39.299  -2.794  11.682  1.00  0.00     0.002 A 
HETATM   35  C   UNL     1      37.982  -3.198  11.482  1.00  0.00     0.000 A 
HETATM   36  C   UNL     1      37.711  -4.509  11.097  1.00  0.00     0.002 A 
HETATM   37  C   UNL     1      38.756  -5.417  10.894  1.00  0.00     0.031 A 
ENDBRANCH  29  32
ENDBRANCH   1  25
TORSDOF 6
ENDMDL
MODEL 7
REMARK VINA RESULT:      -9.2      2.400     11.747
REMARK  6 active torsions:
REMARK  status: ('A' for Active; 'I' for Inactive)
REMARK    1  A    between atoms: N_4  and  C_5 
REMARK    2  A    between atoms: C_13  and  C_14 
REMARK    3  A    between atoms: C_18  and  C_19 
REMARK       I    between atoms: C_19  and  N_20 
REMARK    4  A    between atoms: N_20  and  N_21 
REMARK    5  A    between atoms: C_22  and  C_23 
REMARK    6  A    between atoms: C_24  and  O_25 
ROOT
HETATM    1  C   UNL     1      42.924 -13.246   4.539  1.00  0.00     0.093 A 
HETATM    2  N   UNL     1      43.501 -12.138   4.068  1.00  0.00    -0.173 NA
HETATM    3  N   UNL     1      43.150 -11.190   4.951  1.00  0.00    -0.272 N 
HETATM    4  H   UNL     1      43.472 -10.237   4.810  1.00  0.00     0.189 HD
HETATM    5  C   UNL     1      42.352 -11.642   5.969  1.00  0.00     0.121 A 
HETATM    6  C   UNL     1      42.191 -12.993   5.722  1.00  0.00     0.071 A 
ENDROOT
BRANCH   5   7
HETATM    7  C   UNL     1      41.866 -10.740   6.982  1.00  0.00     0.289 C 
HETATM    8  N   UNL     1      42.762 -10.465   8.006  1.00  0.00    -0.242 N 
HETATM    9  H   UNL     1      43.684 -10.882   8.010  1.00  0.00     0.192 HD
HETATM   10  O   UNL     1      40.735 -10.264   6.923  1.00  0.00    -0.264 OA
BRANCH   8  11
HETATM   11  N   UNL     1      42.380  -9.662   9.038  1.00  0.00    -0.183 NA
HETATM   12  C   UNL     1      43.139  -9.676  10.089  1.00  0.00     0.153 C 
BRANCH  12  13
HETATM   13  C   UNL     1      42.805  -8.866  11.289  1.00  0.00     0.027 A 
HETATM   14  C   UNL     1      42.630  -9.515  12.526  1.00  0.00     0.078 A 
HETATM   15  C   UNL     1      42.366  -8.788  13.678  1.00  0.00     0.038 A 
HETATM   16  C   UNL     1      42.267  -7.402  13.613  1.00  0.00     0.015 A 
HETATM   17  C   UNL     1      42.421  -6.724  12.396  1.00  0.00    -0.025 A 
HETATM   18  C   UNL     1      42.691  -7.444  11.200  1.00  0.00    -0.012 A 
HETATM   19  C   UNL     1      42.305  -5.324  12.373  1.00  0.00     0.012 A 
HETATM   20  C   UNL     1      42.814  -6.680  10.009  1.00  0.00     0.013 A 
HETATM   21  C   UNL     1      42.692  -5.287  10.003  1.00  0.00     0.001 A 
HETATM   22  C   UNL     1      42.441  -4.609  11.186  1.00  0.00     0.001 A 
BRANCH  14  23
HETATM   23  O   UNL     1      42.712 -10.871  12.700  1.00  0.00    -0.360 OA
HETATM   24  H   UNL     1      42.016 -11.152  13.337  1.00  0.00     0.217 HD
ENDBRANCH  14  23
ENDBRANCH  12  13
ENDBRANCH   8  11
ENDBRANCH   5   7
BRANCH   1  25
HETATM   25  C   UNL     1      43.024 -14.537   3.860  1.00  0.00     0.045 C 
HETATM   26  C   UNL     1      42.644 -14.829   2.534  1.00  0.00     0.066 C 
HETATM   27  C   UNL     1      42.020 -13.953   1.511  1.00  0.00     0.073 C 
HETATM   28  N   UNL     1      42.927 -16.094   2.216  1.00  0.00    -0.171 NA
HETATM   29  N   UNL     1      43.342 -16.677   3.376  1.00  0.00    -0.237 N 
HETATM   30  C   UNL     1      43.534 -15.722   4.368  1.00  0.00     0.047 C 
HETATM   31  C   UNL     1      44.214 -15.949   5.672  1.00  0.00     0.071 C 
BRANCH  29  32
HETATM   32  C   UNL     1      43.513 -18.097   3.405  1.00  0.00     0.058 A 
HETATM   33  C   UNL     1      43.151 -18.848   2.272  1.00  0.00     0.031 A 
HETATM   34  C   UNL     1      43.300 -20.237   2.260  1.00  0.00     0.002 A 
HETATM   35  C   UNL     1      43.797 -20.894   3.381  1.00  0.00     0.000 A 
HETATM   36  C   UNL     1      44.133 -20.164   4.519  1.00  0.00     0.002 A 
HETATM   37  C   UNL     1      43.989 -18.772   4.535  1.00  0.00     0.031 A 
ENDBRANCH  29  32
ENDBRANCH   1  25
TORSDOF 6
ENDMDL
MODEL 8
REMARK VINA RESULT:      -9.1      8.050     10.609
REMARK  6 active torsions:
REMARK  status: ('A' for Active; 'I' for Inactive)
REMARK    1  A    between atoms: N_4  and  C_5 
REMARK    2  A    between atoms: C_13  and  C_14 
REMARK    3  A    between atoms: C_18  and  C_19 
REMARK       I    between atoms: C_19  and  N_20 
REMARK    4  A    between atoms: N_20  and  N_21 
REMARK    5  A    between atoms: C_22  and  C_23 
REMARK    6  A    between atoms: C_24  and  O_25 
ROOT
HETATM    1  C   UNL     1      40.288 -11.622  -0.357  1.00  0.00     0.093 A 
HETATM    2  N   UNL     1      39.027 -12.057  -0.419  1.00  0.00    -0.173 NA
HETATM    3  N   UNL     1      39.024 -13.153   0.354  1.00  0.00    -0.272 N 
HETATM    4  H   UNL     1      38.161 -13.676   0.471  1.00  0.00     0.189 HD
HETATM    5  C   UNL     1      40.244 -13.455   0.902  1.00  0.00     0.121 A 
HETATM    6  C   UNL     1      41.092 -12.460   0.451  1.00  0.00     0.071 A 
ENDROOT
BRANCH   5   7
HETATM    7  C   UNL     1      40.412 -14.620   1.733  1.00  0.00     0.289 C 
HETATM    8  N   UNL     1      41.183 -14.426   2.871  1.00  0.00    -0.242 N 
HETATM    9  H   UNL     1      41.581 -13.519   3.076  1.00  0.00     0.192 HD
HETATM   10  O   UNL     1      39.903 -15.697   1.431  1.00  0.00    -0.264 OA
BRANCH   8  11
HETATM   11  N   UNL     1      41.441 -15.479   3.696  1.00  0.00    -0.183 NA
HETATM   12  C   UNL     1      42.666 -15.904   3.718  1.00  0.00     0.153 C 
BRANCH  12  13
HETATM   13  C   UNL     1      43.060 -17.068   4.555  1.00  0.00     0.027 A 
HETATM   14  C   UNL     1      43.117 -16.917   5.953  1.00  0.00     0.078 A 
HETATM   15  C   UNL     1      43.432 -17.994   6.770  1.00  0.00     0.038 A 
HETATM   16  C   UNL     1      43.700 -19.236   6.204  1.00  0.00     0.015 A 
HETATM   17  C   UNL     1      43.666 -19.419   4.815  1.00  0.00    -0.025 A 
HETATM   18  C   UNL     1      43.347 -18.333   3.955  1.00  0.00    -0.012 A 
HETATM   19  C   UNL     1      43.951 -20.687   4.285  1.00  0.00     0.012 A 
HETATM   20  C   UNL     1      43.354 -18.601   2.559  1.00  0.00     0.013 A 
HETATM   21  C   UNL     1      43.644 -19.870   2.048  1.00  0.00     0.001 A 
HETATM   22  C   UNL     1      43.939 -20.914   2.912  1.00  0.00     0.001 A 
BRANCH  14  23
HETATM   23  O   UNL     1      42.867 -15.742   6.610  1.00  0.00    -0.360 OA
HETATM   24  H   UNL     1      42.837 -15.011   5.951  1.00  0.00     0.217 HD
ENDBRANCH  14  23
ENDBRANCH  12  13
ENDBRANCH   8  11
ENDBRANCH   5   7
BRANCH   1  25
HETATM   25  C   UNL     1      40.754 -10.444  -1.089  1.00  0.00     0.045 C 
HETATM   26  C   UNL     1      40.989 -10.346  -2.475  1.00  0.00     0.066 C 
HETATM   27  C   UNL     1      40.878 -11.381  -3.533  1.00  0.00     0.073 C 
HETATM   28  N   UNL     1      41.351  -9.108  -2.818  1.00  0.00    -0.171 NA
HETATM   29  N   UNL     1      41.510  -8.435  -1.643  1.00  0.00    -0.237 N 
HETATM   30  C   UNL     1      41.029  -9.186  -0.575  1.00  0.00     0.047 C 
HETATM   31  C   UNL     1      40.806  -8.685   0.807  1.00  0.00     0.071 C 
BRANCH  29  32
HETATM   32  C   UNL     1      42.106  -7.136  -1.673  1.00  0.00     0.058 A 
HETATM   33  C   UNL     1      41.304  -6.027  -1.999  1.00  0.00     0.031 A 
HETATM   34  C   UNL     1      41.847  -4.742  -2.043  1.00  0.00     0.002 A 
HETATM   35  C   UNL     1      43.199  -4.547  -1.776  1.00  0.00     0.000 A 
HETATM   36  C   UNL     1      44.010  -5.640  -1.479  1.00  0.00     0.002 A 
HETATM   37  C   UNL     1      43.470  -6.930  -1.431  1.00  0.00     0.031 A 
ENDBRANCH  29  32
ENDBRANCH   1  25
TORSDOF 6
ENDMDL
MODEL 9
REMARK VINA RESULT:      -8.8      4.095     12.007
REMARK  6 active torsions:
REMARK  status: ('A' for Active; 'I' for Inactive)
REMARK    1  A    between atoms: N_4  and  C_5 
REMARK    2  A    between atoms: C_13  and  C_14 
REMARK    3  A    between atoms: C_18  and  C_19 
REMARK       I    between atoms: C_19  and  N_20 
REMARK    4  A    between atoms: N_20  and  N_21 
REMARK    5  A    between atoms: C_22  and  C_23 
REMARK    6  A    between atoms: C_24  and  O_25 
ROOT
HETATM    1  C   UNL     1      40.820 -13.281   4.576  1.00  0.00     0.093 A 
HETATM    2  N   UNL     1      39.900 -12.812   3.728  1.00  0.00    -0.173 NA
HETATM    3  N   UNL     1      39.205 -11.929   4.461  1.00  0.00    -0.272 N 
HETATM    4  H   UNL     1      38.433 -11.427   4.032  1.00  0.00     0.189 HD
HETATM    5  C   UNL     1      39.632 -11.820   5.759  1.00  0.00     0.121 A 
HETATM    6  C   UNL     1      40.696 -12.697   5.858  1.00  0.00     0.071 A 
ENDROOT
BRANCH   5   7
HETATM    7  C   UNL     1      38.969 -10.933   6.681  1.00  0.00     0.289 C 
HETATM    8  N   UNL     1      39.580 -10.808   7.921  1.00  0.00    -0.242 N 
HETATM    9  H   UNL     1      40.431 -11.313   8.130  1.00  0.00     0.192 HD
HETATM   10  O   UNL     1      37.935 -10.346   6.370  1.00  0.00    -0.264 OA
BRANCH   8  11
HETATM   11  N   UNL     1      39.004 -10.032   8.881  1.00  0.00    -0.183 NA
HETATM   12  C   UNL     1      39.587  -8.901   9.133  1.00  0.00     0.153 C 
BRANCH  12  13
HETATM   13  C   UNL     1      39.069  -7.987  10.183  1.00  0.00     0.027 A 
HETATM   14  C   UNL     1      38.912  -8.470  11.496  1.00  0.00     0.078 A 
HETATM   15  C   UNL     1      38.478  -7.632  12.513  1.00  0.00     0.038 A 
HETATM   16  C   UNL     1      38.188  -6.301  12.235  1.00  0.00     0.015 A 
HETATM   17  C   UNL     1      38.319  -5.789  10.937  1.00  0.00    -0.025 A 
HETATM   18  C   UNL     1      38.760  -6.625   9.876  1.00  0.00    -0.012 A 
HETATM   19  C   UNL     1      38.008  -4.440  10.699  1.00  0.00     0.012 A 
HETATM   20  C   UNL     1      38.847  -6.030   8.588  1.00  0.00     0.013 A 
HETATM   21  C   UNL     1      38.529  -4.687   8.368  1.00  0.00     0.001 A 
HETATM   22  C   UNL     1      38.113  -3.890   9.424  1.00  0.00     0.001 A 
BRANCH  14  23
HETATM   23  O   UNL     1      39.174  -9.760  11.875  1.00  0.00    -0.360 OA
HETATM   24  H   UNL     1      39.267  -9.790  12.854  1.00  0.00     0.217 HD
ENDBRANCH  14  23
ENDBRANCH  12  13
ENDBRANCH   8  11
ENDBRANCH   5   7
BRANCH   1  25
HETATM   25  C   UNL     1      41.792 -14.306   4.198  1.00  0.00     0.045 C 
HETATM   26  C   UNL     1      43.019 -14.107   3.535  1.00  0.00     0.066 C 
HETATM   27  C   UNL     1      43.627 -12.855   3.017  1.00  0.00     0.073 C 
HETATM   28  N   UNL     1      43.688 -15.254   3.399  1.00  0.00    -0.171 NA
HETATM   29  N   UNL     1      42.833 -16.227   3.823  1.00  0.00    -0.237 N 
HETATM   30  C   UNL     1      41.716 -15.670   4.436  1.00  0.00     0.047 C 
HETATM   31  C   UNL     1      40.704 -16.412   5.234  1.00  0.00     0.071 C 
BRANCH  29  32
HETATM   32  C   UNL     1      43.185 -17.594   3.595  1.00  0.00     0.058 A 
HETATM   33  C   UNL     1      42.855 -18.185   2.362  1.00  0.00     0.031 A 
HETATM   34  C   UNL     1      43.178 -19.518   2.101  1.00  0.00     0.002 A 
HETATM   35  C   UNL     1      43.820 -20.283   3.070  1.00  0.00     0.000 A 
HETATM   36  C   UNL     1      44.127 -19.717   4.306  1.00  0.00     0.002 A 
HETATM   37  C   UNL     1      43.808 -18.381   4.572  1.00  0.00     0.031 A 
ENDBRANCH  29  32
ENDBRANCH   1  25
TORSDOF 6
ENDMDL
MODEL 10
REMARK VINA RESULT:      -8.8     19.222     20.865
REMARK  6 active torsions:
REMARK  status: ('A' for Active; 'I' for Inactive)
REMARK    1  A    between atoms: N_4  and  C_5 
REMARK    2  A    between atoms: C_13  and  C_14 
REMARK    3  A    between atoms: C_18  and  C_19 
REMARK       I    between atoms: C_19  and  N_20 
REMARK    4  A    between atoms: N_20  and  N_21 
REMARK    5  A    between atoms: C_22  and  C_23 
REMARK    6  A    between atoms: C_24  and  O_25 
ROOT
HETATM    1  C   UNL     1      41.574 -32.262   5.530  1.00  0.00     0.093 A 
HETATM    2  N   UNL     1      41.406 -33.393   4.839  1.00  0.00    -0.173 NA
HETATM    3  N   UNL     1      41.453 -32.999   3.557  1.00  0.00    -0.272 N 
HETATM    4  H   UNL     1      41.347 -33.692   2.821  1.00  0.00     0.189 HD
HETATM    5  C   UNL     1      41.629 -31.650   3.392  1.00  0.00     0.121 A 
HETATM    6  C   UNL     1      41.715 -31.144   4.676  1.00  0.00     0.071 A 
ENDROOT
BRANCH   5   7
HETATM    7  C   UNL     1      41.671 -31.067   2.075  1.00  0.00     0.289 C 
HETATM    8  N   UNL     1      42.944 -30.833   1.575  1.00  0.00    -0.242 N 
HETATM    9  H   UNL     1      43.764 -31.069   2.118  1.00  0.00     0.192 HD
HETATM   10  O   UNL     1      40.640 -30.802   1.463  1.00  0.00    -0.264 OA
BRANCH   8  11
HETATM   11  N   UNL     1      43.090 -30.239   0.357  1.00  0.00    -0.183 NA
HETATM   12  C   UNL     1      44.211 -30.456  -0.258  1.00  0.00     0.153 C 
BRANCH  12  13
HETATM   13  C   UNL     1      44.496 -29.833  -1.576  1.00  0.00     0.027 A 
HETATM   14  C   UNL     1      44.836 -28.468  -1.630  1.00  0.00     0.078 A 
HETATM   15  C   UNL     1      45.158 -27.863  -2.836  1.00  0.00     0.038 A 
HETATM   16  C   UNL     1      45.140 -28.610  -4.010  1.00  0.00     0.015 A 
HETATM   17  C   UNL     1      44.793 -29.967  -3.996  1.00  0.00    -0.025 A 
HETATM   18  C   UNL     1      44.458 -30.612  -2.774  1.00  0.00    -0.012 A 
HETATM   19  C   UNL     1      44.781 -30.683  -5.205  1.00  0.00     0.012 A 
HETATM   20  C   UNL     1      44.101 -31.985  -2.854  1.00  0.00     0.013 A 
HETATM   21  C   UNL     1      44.089 -32.680  -4.066  1.00  0.00     0.001 A 
HETATM   22  C   UNL     1      44.433 -32.030  -5.242  1.00  0.00     0.001 A 
BRANCH  14  23
HETATM   23  O   UNL     1      44.887 -27.646  -0.535  1.00  0.00    -0.360 OA
HETATM   24  H   UNL     1      45.830 -27.472  -0.313  1.00  0.00     0.217 HD
ENDBRANCH  14  23
ENDBRANCH  12  13
ENDBRANCH   8  11
ENDBRANCH   5   7
BRANCH   1  25
HETATM   25  C   UNL     1      41.563 -32.222   6.991  1.00  0.00     0.045 C 
HETATM   26  C   UNL     1      40.439 -32.343   7.834  1.00  0.00     0.066 C 
HETATM   27  C   UNL     1      39.004 -32.496   7.486  1.00  0.00     0.073 C 
HETATM   28  N   UNL     1      40.794 -32.322   9.120  1.00  0.00    -0.171 NA
HETATM   29  N   UNL     1      42.124 -32.025   9.127  1.00  0.00    -0.237 N 
HETATM   30  C   UNL     1      42.650 -32.084   7.841  1.00  0.00     0.047 C 
HETATM   31  C   UNL     1      44.096 -32.068   7.493  1.00  0.00     0.071 C 
BRANCH  29  32
HETATM   32  C   UNL     1      42.751 -31.718  10.375  1.00  0.00     0.058 A 
HETATM   33  C   UNL     1      43.478 -32.724  11.036  1.00  0.00     0.031 A 
HETATM   34  C   UNL     1      44.102 -32.467  12.259  1.00  0.00     0.002 A 
HETATM   35  C   UNL     1      43.997 -31.209  12.844  1.00  0.00     0.000 A 
HETATM   36  C   UNL     1      43.256 -30.212  12.213  1.00  0.00     0.002 A 
HETATM   37  C   UNL     1      42.631 -30.464  10.986  1.00  0.00     0.031 A 
ENDBRANCH  29  32
ENDBRANCH   1  25
TORSDOF 6
ENDMDL
