MODEL 1
REMARK VINA RESULT:      -8.7      0.000      0.000
REMARK  6 active torsions:
REMARK  status: ('A' for Active; 'I' for Inactive)
REMARK       I    between atoms: C_2  and  N_3 
REMARK    1  A    between atoms: N_3  and  C_4 
REMARK    2  A    between atoms: C_4  and  C_5 
REMARK    3  A    between atoms: C_4  and  C_11 
REMARK    4  A    between atoms: C_11  and  C_12 
REMARK       I    between atoms: C_12  and  N_13 
REMARK    5  A    between atoms: N_13  and  C_14 
REMARK    6  A    between atoms: C_16  and  C_17 
ROOT
HETATM    1  C   UNL     1      42.142 -15.816   1.982  1.00  0.00     0.224 C 
HETATM    2  N   UNL     1      42.172 -14.590   1.333  1.00  0.00    -0.327 N 
HETATM    3  O   UNL     1      41.142 -16.488   2.208  1.00  0.00    -0.273 OA
HETATM    4  H   UNL     1      43.073 -14.131   1.269  1.00  0.00     0.169 HD
ENDROOT
BRANCH   1   5
HETATM    5  C   UNL     1      43.529 -16.245   2.434  1.00  0.00     0.133 C 
BRANCH   5   6
HETATM    6  C   UNL     1      43.510 -16.811   3.863  1.00  0.00     0.126 C 
BRANCH   6   7
HETATM    7  N   UNL     1      42.402 -16.390   4.716  1.00  0.00    -0.352 N 
HETATM    8  C   UNL     1      42.457 -15.467   5.730  1.00  0.00     0.214 C 
HETATM    9  C   UNL     1      41.139 -15.272   6.433  1.00  0.00     0.117 C 
HETATM   10  O   UNL     1      43.456 -14.829   6.043  1.00  0.00    -0.274 OA
HETATM   11  H   UNL     1      41.525 -16.867   4.559  1.00  0.00     0.163 HD
ENDBRANCH   6   7
BRANCH   6  12
HETATM   12  C   UNL     1      43.694 -18.322   3.872  1.00  0.00    -0.035 A 
HETATM   13  C   UNL     1      43.983 -19.032   5.047  1.00  0.00     0.009 A 
HETATM   14  C   UNL     1      44.126 -20.421   5.025  1.00  0.00     0.001 A 
HETATM   15  C   UNL     1      43.970 -21.123   3.832  1.00  0.00     0.000 A 
HETATM   16  C   UNL     1      43.670 -20.436   2.658  1.00  0.00     0.001 A 
HETATM   17  C   UNL     1      43.534 -19.046   2.677  1.00  0.00     0.009 A 
ENDBRANCH   6  12
ENDBRANCH   5   6
ENDBRANCH   1   5
BRANCH   2  18
HETATM   18  C   UNL     1      41.073 -13.861   0.830  1.00  0.00     0.035 A 
HETATM   19  C   UNL     1      40.407 -14.175  -0.358  1.00  0.00     0.042 A 
HETATM   20  C   UNL     1      39.311 -13.414  -0.799  1.00  0.00    -0.021 A 
HETATM   21  C   UNL     1      38.874 -12.337  -0.019  1.00  0.00     0.012 A 
HETATM   22  C   UNL     1      39.537 -12.011   1.164  1.00  0.00     0.003 A 
HETATM   23  C   UNL     1      40.636 -12.763   1.581  1.00  0.00     0.029 A 
BRANCH  20  24
HETATM   24  C   UNL     1      38.632 -13.733  -2.044  1.00  0.00     0.010 A 
HETATM   25  C   UNL     1      38.898 -14.722  -3.021  1.00  0.00     0.152 A 
HETATM   26  N   UNL     1      38.018 -14.709  -4.026  1.00  0.00    -0.187 NA
HETATM   27  N   UNL     1      37.184 -13.709  -3.698  1.00  0.00    -0.289 N 
HETATM   28  H   UNL     1      36.411 -13.502  -4.321  1.00  0.00     0.188 HD
HETATM   29  C   UNL     1      37.504 -13.097  -2.521  1.00  0.00     0.123 A 
ENDBRANCH  20  24
ENDBRANCH   2  18
TORSDOF 6
ENDMDL
MODEL 2
REMARK VINA RESULT:      -8.6      4.504      7.977
REMARK  6 active torsions:
REMARK  status: ('A' for Active; 'I' for Inactive)
REMARK       I    between atoms: C_2  and  N_3 
REMARK    1  A    between atoms: N_3  and  C_4 
REMARK    2  A    between atoms: C_4  and  C_5 
REMARK    3  A    between atoms: C_4  and  C_11 
REMARK    4  A    between atoms: C_11  and  C_12 
REMARK       I    between atoms: C_12  and  N_13 
REMARK    5  A    between atoms: N_13  and  C_14 
REMARK    6  A    between atoms: C_16  and  C_17 
ROOT
HETATM    1  C   UNL     1      43.668 -14.608   6.336  1.00  0.00     0.224 C 
HETATM    2  N   UNL     1      42.970 -14.586   5.136  1.00  0.00    -0.327 N 
HETATM    3  O   UNL     1      44.549 -15.404   6.642  1.00  0.00    -0.273 OA
HETATM    4  H   UNL     1      42.232 -13.897   5.052  1.00  0.00     0.169 HD
ENDROOT
BRANCH   1   5
HETATM    5  C   UNL     1      43.188 -13.521   7.284  1.00  0.00     0.133 C 
BRANCH   5   6
HETATM    6  C   UNL     1      43.130 -12.151   6.592  1.00  0.00     0.126 C 
BRANCH   6   7
HETATM    7  N   UNL     1      41.815 -11.523   6.498  1.00  0.00    -0.352 N 
HETATM    8  C   UNL     1      40.955 -11.585   5.430  1.00  0.00     0.214 C 
HETATM    9  C   UNL     1      39.681 -10.811   5.643  1.00  0.00     0.117 C 
HETATM   10  O   UNL     1      41.161 -12.219   4.401  1.00  0.00    -0.274 OA
HETATM   11  H   UNL     1      41.544 -10.954   7.288  1.00  0.00     0.163 HD
ENDBRANCH   6   7
BRANCH   6  12
HETATM   12  C   UNL     1      44.178 -11.196   7.147  1.00  0.00    -0.035 A 
HETATM   13  C   UNL     1      45.553 -11.421   6.987  1.00  0.00     0.009 A 
HETATM   14  C   UNL     1      46.489 -10.515   7.491  1.00  0.00     0.001 A 
HETATM   15  C   UNL     1      46.065  -9.365   8.152  1.00  0.00     0.000 A 
HETATM   16  C   UNL     1      44.703  -9.119   8.310  1.00  0.00     0.001 A 
HETATM   17  C   UNL     1      43.767 -10.027   7.813  1.00  0.00     0.009 A 
ENDBRANCH   6  12
ENDBRANCH   5   6
ENDBRANCH   1   5
BRANCH   2  18
HETATM   18  C   UNL     1      43.107 -15.476   4.050  1.00  0.00     0.035 A 
HETATM   19  C   UNL     1      43.328 -16.849   4.188  1.00  0.00     0.042 A 
HETATM   20  C   UNL     1      43.445 -17.683   3.063  1.00  0.00    -0.021 A 
HETATM   21  C   UNL     1      43.319 -17.124   1.787  1.00  0.00     0.012 A 
HETATM   22  C   UNL     1      43.106 -15.753   1.637  1.00  0.00     0.003 A 
HETATM   23  C   UNL     1      43.010 -14.934   2.763  1.00  0.00     0.029 A 
BRANCH  20  24
HETATM   24  C   UNL     1      43.693 -19.108   3.213  1.00  0.00     0.010 A 
HETATM   25  C   UNL     1      43.613 -20.169   2.280  1.00  0.00     0.152 A 
HETATM   26  N   UNL     1      43.945 -21.350   2.808  1.00  0.00    -0.187 NA
HETATM   27  N   UNL     1      44.238 -21.051   4.084  1.00  0.00    -0.289 N 
HETATM   28  H   UNL     1      44.527 -21.803   4.702  1.00  0.00     0.188 HD
HETATM   29  C   UNL     1      44.107 -19.725   4.376  1.00  0.00     0.123 A 
ENDBRANCH  20  24
ENDBRANCH   2  18
TORSDOF 6
ENDMDL
MODEL 3
REMARK VINA RESULT:      -8.2      2.152      3.031
REMARK  6 active torsions:
REMARK  status: ('A' for Active; 'I' for Inactive)
REMARK       I    between atoms: C_2  and  N_3 
REMARK    1  A    between atoms: N_3  and  C_4 
REMARK    2  A    between atoms: C_4  and  C_5 
REMARK    3  A    between atoms: C_4  and  C_11 
REMARK    4  A    between atoms: C_11  and  C_12 
REMARK       I    between atoms: C_12  and  N_13 
REMARK    5  A    between atoms: N_13  and  C_14 
REMARK    6  A    between atoms: C_16  and  C_17 
ROOT
HETATM    1  C   UNL     1      41.744 -15.607   1.525  1.00  0.00     0.224 C 
HETATM    2  N   UNL     1      41.710 -14.456   0.749  1.00  0.00    -0.327 N 
HETATM    3  O   UNL     1      40.772 -16.255   1.896  1.00  0.00    -0.273 OA
HETATM    4  H   UNL     1      42.598 -14.003   0.568  1.00  0.00     0.169 HD
ENDROOT
BRANCH   1   5
HETATM    5  C   UNL     1      43.166 -15.980   1.913  1.00  0.00     0.133 C 
BRANCH   5   6
HETATM    6  C   UNL     1      43.239 -16.512   3.352  1.00  0.00     0.126 C 
BRANCH   6   7
HETATM    7  N   UNL     1      42.162 -16.111   4.252  1.00  0.00    -0.352 N 
HETATM    8  C   UNL     1      42.302 -15.498   5.472  1.00  0.00     0.214 C 
HETATM    9  C   UNL     1      40.989 -15.232   6.162  1.00  0.00     0.117 C 
HETATM   10  O   UNL     1      43.371 -15.162   5.969  1.00  0.00    -0.274 OA
HETATM   11  H   UNL     1      41.228 -16.355   3.952  1.00  0.00     0.163 HD
ENDBRANCH   6   7
BRANCH   6  12
HETATM   12  C   UNL     1      43.478 -18.015   3.384  1.00  0.00    -0.035 A 
HETATM   13  C   UNL     1      44.015 -18.662   4.507  1.00  0.00     0.009 A 
HETATM   14  C   UNL     1      44.203 -20.046   4.511  1.00  0.00     0.001 A 
HETATM   15  C   UNL     1      43.845 -20.806   3.400  1.00  0.00     0.000 A 
HETATM   16  C   UNL     1      43.299 -20.182   2.281  1.00  0.00     0.001 A 
HETATM   17  C   UNL     1      43.117 -18.798   2.272  1.00  0.00     0.009 A 
ENDBRANCH   6  12
ENDBRANCH   5   6
ENDBRANCH   1   5
BRANCH   2  18
HETATM   18  C   UNL     1      40.567 -13.790   0.256  1.00  0.00     0.035 A 
HETATM   19  C   UNL     1      39.972 -12.693   0.885  1.00  0.00     0.042 A 
HETATM   20  C   UNL     1      38.840 -12.067   0.335  1.00  0.00    -0.021 A 
HETATM   21  C   UNL     1      38.318 -12.546  -0.872  1.00  0.00     0.012 A 
HETATM   22  C   UNL     1      38.901 -13.645  -1.504  1.00  0.00     0.003 A 
HETATM   23  C   UNL     1      40.013 -14.269  -0.937  1.00  0.00     0.029 A 
BRANCH  20  24
HETATM   24  C   UNL     1      38.214 -10.937   1.002  1.00  0.00     0.010 A 
HETATM   25  C   UNL     1      37.222 -10.030   0.561  1.00  0.00     0.152 A 
HETATM   26  N   UNL     1      36.891  -9.131   1.492  1.00  0.00    -0.187 NA
HETATM   27  N   UNL     1      37.670  -9.458   2.535  1.00  0.00    -0.289 N 
HETATM   28  H   UNL     1      37.596  -8.908   3.384  1.00  0.00     0.188 HD
HETATM   29  C   UNL     1      38.476 -10.533   2.295  1.00  0.00     0.123 A 
ENDBRANCH  20  24
ENDBRANCH   2  18
TORSDOF 6
ENDMDL
MODEL 4
REMARK VINA RESULT:      -7.9      2.641      3.398
REMARK  6 active torsions:
REMARK  status: ('A' for Active; 'I' for Inactive)
REMARK       I    between atoms: C_2  and  N_3 
REMARK    1  A    between atoms: N_3  and  C_4 
REMARK    2  A    between atoms: C_4  and  C_5 
REMARK    3  A    between atoms: C_4  and  C_11 
REMARK    4  A    between atoms: C_11  and  C_12 
REMARK       I    between atoms: C_12  and  N_13 
REMARK    5  A    between atoms: N_13  and  C_14 
REMARK    6  A    between atoms: C_16  and  C_17 
ROOT
HETATM    1  C   UNL     1      40.030 -14.717   2.239  1.00  0.00     0.224 C 
HETATM    2  N   UNL     1      40.428 -15.078   0.960  1.00  0.00    -0.327 N 
HETATM    3  O   UNL     1      39.354 -13.738   2.535  1.00  0.00    -0.273 OA
HETATM    4  H   UNL     1      41.031 -15.889   0.882  1.00  0.00     0.169 HD
ENDROOT
BRANCH   1   5
HETATM    5  C   UNL     1      40.568 -15.679   3.287  1.00  0.00     0.133 C 
BRANCH   5   6
HETATM    6  C   UNL     1      42.096 -15.582   3.414  1.00  0.00     0.126 C 
BRANCH   6   7
HETATM    7  N   UNL     1      42.609 -14.791   4.530  1.00  0.00    -0.352 N 
HETATM    8  C   UNL     1      42.866 -13.443   4.526  1.00  0.00     0.214 C 
HETATM    9  C   UNL     1      43.407 -12.934   5.836  1.00  0.00     0.117 C 
HETATM   10  O   UNL     1      42.662 -12.694   3.577  1.00  0.00    -0.274 OA
HETATM   11  H   UNL     1      42.832 -15.311   5.368  1.00  0.00     0.163 HD
ENDBRANCH   6   7
BRANCH   6  12
HETATM   12  C   UNL     1      42.755 -16.952   3.337  1.00  0.00    -0.035 A 
HETATM   13  C   UNL     1      42.545 -17.822   2.258  1.00  0.00     0.009 A 
HETATM   14  C   UNL     1      43.180 -19.065   2.208  1.00  0.00     0.001 A 
HETATM   15  C   UNL     1      44.045 -19.451   3.229  1.00  0.00     0.000 A 
HETATM   16  C   UNL     1      44.276 -18.595   4.303  1.00  0.00     0.001 A 
HETATM   17  C   UNL     1      43.636 -17.355   4.358  1.00  0.00     0.009 A 
ENDBRANCH   6  12
ENDBRANCH   5   6
ENDBRANCH   1   5
BRANCH   2  18
HETATM   18  C   UNL     1      40.163 -14.392  -0.244  1.00  0.00     0.035 A 
HETATM   19  C   UNL     1      40.626 -13.104  -0.527  1.00  0.00     0.042 A 
HETATM   20  C   UNL     1      40.335 -12.479  -1.752  1.00  0.00    -0.021 A 
HETATM   21  C   UNL     1      39.584 -13.174  -2.706  1.00  0.00     0.012 A 
HETATM   22  C   UNL     1      39.110 -14.457  -2.431  1.00  0.00     0.003 A 
HETATM   23  C   UNL     1      39.390 -15.058  -1.204  1.00  0.00     0.029 A 
BRANCH  20  24
HETATM   24  C   UNL     1      40.805 -11.133  -2.033  1.00  0.00     0.010 A 
HETATM   25  C   UNL     1      40.631 -10.305  -3.167  1.00  0.00     0.152 A 
HETATM   26  N   UNL     1      41.206  -9.108  -3.029  1.00  0.00    -0.187 NA
HETATM   27  N   UNL     1      41.754  -9.163  -1.805  1.00  0.00    -0.289 N 
HETATM   28  H   UNL     1      42.258  -8.351  -1.464  1.00  0.00     0.188 HD
HETATM   29  C   UNL     1      41.539 -10.350  -1.166  1.00  0.00     0.123 A 
ENDBRANCH  20  24
ENDBRANCH   2  18
TORSDOF 6
ENDMDL
MODEL 5
REMARK VINA RESULT:      -7.9      1.506      1.984
REMARK  6 active torsions:
REMARK  status: ('A' for Active; 'I' for Inactive)
REMARK       I    between atoms: C_2  and  N_3 
REMARK    1  A    between atoms: N_3  and  C_4 
REMARK    2  A    between atoms: C_4  and  C_5 
REMARK    3  A    between atoms: C_4  and  C_11 
REMARK    4  A    between atoms: C_11  and  C_12 
REMARK       I    between atoms: C_12  and  N_13 
REMARK    5  A    between atoms: N_13  and  C_14 
REMARK    6  A    between atoms: C_16  and  C_17 
ROOT
HETATM    1  C   UNL     1      41.503 -15.383   1.464  1.00  0.00     0.224 C 
HETATM    2  N   UNL     1      41.537 -14.009   1.273  1.00  0.00    -0.327 N 
HETATM    3  O   UNL     1      40.498 -16.084   1.479  1.00  0.00    -0.273 OA
HETATM    4  H   UNL     1      42.445 -13.563   1.340  1.00  0.00     0.169 HD
ENDROOT
BRANCH   1   5
HETATM    5  C   UNL     1      42.894 -15.952   1.696  1.00  0.00     0.133 C 
BRANCH   5   6
HETATM    6  C   UNL     1      43.080 -16.423   3.147  1.00  0.00     0.126 C 
BRANCH   6   7
HETATM    7  N   UNL     1      42.057 -16.008   4.103  1.00  0.00    -0.352 N 
HETATM    8  C   UNL     1      42.215 -15.117   5.134  1.00  0.00     0.214 C 
HETATM    9  C   UNL     1      40.965 -14.919   5.951  1.00  0.00     0.117 C 
HETATM   10  O   UNL     1      43.249 -14.504   5.377  1.00  0.00    -0.274 OA
HETATM   11  H   UNL     1      41.160 -16.466   4.009  1.00  0.00     0.163 HD
ENDBRANCH   6   7
BRANCH   6  12
HETATM   12  C   UNL     1      43.357 -17.918   3.222  1.00  0.00    -0.035 A 
HETATM   13  C   UNL     1      43.101 -18.779   2.145  1.00  0.00     0.009 A 
HETATM   14  C   UNL     1      43.385 -20.143   2.239  1.00  0.00     0.001 A 
HETATM   15  C   UNL     1      43.941 -20.665   3.405  1.00  0.00     0.000 A 
HETATM   16  C   UNL     1      44.212 -19.822   4.479  1.00  0.00     0.001 A 
HETATM   17  C   UNL     1      43.922 -18.460   4.390  1.00  0.00     0.009 A 
ENDBRANCH   6  12
ENDBRANCH   5   6
ENDBRANCH   1   5
BRANCH   2  18
HETATM   18  C   UNL     1      40.438 -13.144   1.085  1.00  0.00     0.035 A 
HETATM   19  C   UNL     1      40.038 -12.648  -0.159  1.00  0.00     0.042 A 
HETATM   20  C   UNL     1      38.926 -11.798  -0.279  1.00  0.00    -0.021 A 
HETATM   21  C   UNL     1      38.202 -11.462   0.870  1.00  0.00     0.012 A 
HETATM   22  C   UNL     1      38.596 -11.945   2.118  1.00  0.00     0.003 A 
HETATM   23  C   UNL     1      39.714 -12.774   2.225  1.00  0.00     0.029 A 
BRANCH  20  24
HETATM   24  C   UNL     1      38.525 -11.270  -1.573  1.00  0.00     0.010 A 
HETATM   25  C   UNL     1      39.117 -10.287  -2.400  1.00  0.00     0.152 A 
HETATM   26  N   UNL     1      38.448 -10.097  -3.540  1.00  0.00    -0.187 NA
HETATM   27  N   UNL     1      37.421 -10.958  -3.448  1.00  0.00    -0.289 N 
HETATM   28  H   UNL     1      36.758 -11.001  -4.214  1.00  0.00     0.188 HD
HETATM   29  C   UNL     1      37.425 -11.686  -2.294  1.00  0.00     0.123 A 
ENDBRANCH  20  24
ENDBRANCH   2  18
TORSDOF 6
ENDMDL
MODEL 6
REMARK VINA RESULT:      -7.8      2.506      8.393
REMARK  6 active torsions:
REMARK  status: ('A' for Active; 'I' for Inactive)
REMARK       I    between atoms: C_2  and  N_3 
REMARK    1  A    between atoms: N_3  and  C_4 
REMARK    2  A    between atoms: C_4  and  C_5 
REMARK    3  A    between atoms: C_4  and  C_11 
REMARK    4  A    between atoms: C_11  and  C_12 
REMARK       I    between atoms: C_12  and  N_13 
REMARK    5  A    between atoms: N_13  and  C_14 
REMARK    6  A    between atoms: C_16  and  C_17 
ROOT
HETATM    1  C   UNL     1      40.644 -15.075   0.656  1.00  0.00     0.224 C 
HETATM    2  N   UNL     1      41.960 -15.034   1.095  1.00  0.00    -0.327 N 
HETATM    3  O   UNL     1      39.728 -15.695   1.182  1.00  0.00    -0.273 OA
HETATM    4  H   UNL     1      42.616 -14.516   0.521  1.00  0.00     0.169 HD
ENDROOT
BRANCH   1   5
HETATM    5  C   UNL     1      40.453 -14.265  -0.616  1.00  0.00     0.133 C 
BRANCH   5   6
HETATM    6  C   UNL     1      39.377 -13.182  -0.442  1.00  0.00     0.126 C 
BRANCH   6   7
HETATM    7  N   UNL     1      39.195 -12.654   0.907  1.00  0.00    -0.352 N 
HETATM    8  C   UNL     1      40.139 -12.009   1.666  1.00  0.00     0.214 C 
HETATM    9  C   UNL     1      39.637 -11.604   3.027  1.00  0.00     0.117 C 
HETATM   10  O   UNL     1      41.279 -11.750   1.295  1.00  0.00    -0.274 OA
HETATM   11  H   UNL     1      38.292 -12.827   1.326  1.00  0.00     0.163 HD
ENDBRANCH   6   7
BRANCH   6  12
HETATM   12  C   UNL     1      39.525 -12.071  -1.473  1.00  0.00    -0.035 A 
HETATM   13  C   UNL     1      40.650 -11.969  -2.303  1.00  0.00     0.009 A 
HETATM   14  C   UNL     1      40.747 -10.949  -3.253  1.00  0.00     0.001 A 
HETATM   15  C   UNL     1      39.715 -10.024  -3.395  1.00  0.00     0.000 A 
HETATM   16  C   UNL     1      38.584 -10.118  -2.587  1.00  0.00     0.001 A 
HETATM   17  C   UNL     1      38.490 -11.132  -1.633  1.00  0.00     0.009 A 
ENDBRANCH   6  12
ENDBRANCH   5   6
ENDBRANCH   1   5
BRANCH   2  18
HETATM   18  C   UNL     1      42.513 -15.708   2.205  1.00  0.00     0.035 A 
HETATM   19  C   UNL     1      42.810 -17.073   2.220  1.00  0.00     0.042 A 
HETATM   20  C   UNL     1      43.371 -17.682   3.356  1.00  0.00    -0.021 A 
HETATM   21  C   UNL     1      43.649 -16.897   4.480  1.00  0.00     0.012 A 
HETATM   22  C   UNL     1      43.349 -15.534   4.478  1.00  0.00     0.003 A 
HETATM   23  C   UNL     1      42.776 -14.946   3.350  1.00  0.00     0.029 A 
BRANCH  20  24
HETATM   24  C   UNL     1      43.661 -19.107   3.373  1.00  0.00     0.010 A 
HETATM   25  C   UNL     1      43.632 -20.074   2.341  1.00  0.00     0.152 A 
HETATM   26  N   UNL     1      43.993 -21.290   2.760  1.00  0.00    -0.187 NA
HETATM   27  N   UNL     1      44.254 -21.108   4.064  1.00  0.00    -0.289 N 
HETATM   28  H   UNL     1      44.556 -21.906   4.612  1.00  0.00     0.188 HD
HETATM   29  C   UNL     1      44.076 -19.820   4.479  1.00  0.00     0.123 A 
ENDBRANCH  20  24
ENDBRANCH   2  18
TORSDOF 6
ENDMDL
MODEL 7
REMARK VINA RESULT:      -7.8      3.718      5.360
REMARK  6 active torsions:
REMARK  status: ('A' for Active; 'I' for Inactive)
REMARK       I    between atoms: C_2  and  N_3 
REMARK    1  A    between atoms: N_3  and  C_4 
REMARK    2  A    between atoms: C_4  and  C_5 
REMARK    3  A    between atoms: C_4  and  C_11 
REMARK    4  A    between atoms: C_11  and  C_12 
REMARK       I    between atoms: C_12  and  N_13 
REMARK    5  A    between atoms: N_13  and  C_14 
REMARK    6  A    between atoms: C_16  and  C_17 
ROOT
HETATM    1  C   UNL     1      42.137 -15.023   2.937  1.00  0.00     0.224 C 
HETATM    2  N   UNL     1      42.723 -13.766   2.984  1.00  0.00    -0.327 N 
HETATM    3  O   UNL     1      40.951 -15.274   3.121  1.00  0.00    -0.273 OA
HETATM    4  H   UNL     1      43.728 -13.727   2.862  1.00  0.00     0.169 HD
ENDROOT
BRANCH   1   5
HETATM    5  C   UNL     1      43.163 -16.109   2.654  1.00  0.00     0.133 C 
BRANCH   5   6
HETATM    6  C   UNL     1      43.637 -16.792   3.946  1.00  0.00     0.126 C 
BRANCH   6   7
HETATM    7  N   UNL     1      42.936 -16.424   5.173  1.00  0.00    -0.352 N 
HETATM    8  C   UNL     1      43.511 -16.072   6.368  1.00  0.00     0.214 C 
HETATM    9  C   UNL     1      42.506 -15.766   7.448  1.00  0.00     0.117 C 
HETATM   10  O   UNL     1      44.717 -15.979   6.565  1.00  0.00    -0.274 OA
HETATM   11  H   UNL     1      41.927 -16.482   5.134  1.00  0.00     0.163 HD
ENDBRANCH   6   7
BRANCH   6  12
HETATM   12  C   UNL     1      43.740 -18.301   3.780  1.00  0.00    -0.035 A 
HETATM   13  C   UNL     1      44.107 -19.146   4.838  1.00  0.00     0.009 A 
HETATM   14  C   UNL     1      44.173 -20.529   4.657  1.00  0.00     0.001 A 
HETATM   15  C   UNL     1      43.862 -21.090   3.421  1.00  0.00     0.000 A 
HETATM   16  C   UNL     1      43.484 -20.268   2.363  1.00  0.00     0.001 A 
HETATM   17  C   UNL     1      43.424 -18.885   2.540  1.00  0.00     0.009 A 
ENDBRANCH   6  12
ENDBRANCH   5   6
ENDBRANCH   1   5
BRANCH   2  18
HETATM   18  C   UNL     1      42.090 -12.538   3.276  1.00  0.00     0.035 A 
HETATM   19  C   UNL     1      41.532 -12.223   4.518  1.00  0.00     0.042 A 
HETATM   20  C   UNL     1      40.925 -10.976   4.746  1.00  0.00    -0.021 A 
HETATM   21  C   UNL     1      40.901 -10.033   3.712  1.00  0.00     0.012 A 
HETATM   22  C   UNL     1      41.449 -10.340   2.467  1.00  0.00     0.003 A 
HETATM   23  C   UNL     1      42.032 -11.589   2.248  1.00  0.00     0.029 A 
BRANCH  20  24
HETATM   24  C   UNL     1      40.330 -10.660   6.034  1.00  0.00     0.010 A 
HETATM   25  C   UNL     1      39.023 -10.872   6.531  1.00  0.00     0.152 A 
HETATM   26  N   UNL     1      38.874 -10.455   7.792  1.00  0.00    -0.187 NA
HETATM   27  N   UNL     1      40.086  -9.973   8.108  1.00  0.00    -0.289 N 
HETATM   28  H   UNL     1      40.226  -9.592   9.038  1.00  0.00     0.188 HD
HETATM   29  C   UNL     1      40.993 -10.076   7.094  1.00  0.00     0.123 A 
ENDBRANCH  20  24
ENDBRANCH   2  18
TORSDOF 6
ENDMDL
MODEL 8
REMARK VINA RESULT:      -7.7      2.094      2.475
REMARK  6 active torsions:
REMARK  status: ('A' for Active; 'I' for Inactive)
REMARK       I    between atoms: C_2  and  N_3 
REMARK    1  A    between atoms: N_3  and  C_4 
REMARK    2  A    between atoms: C_4  and  C_5 
REMARK    3  A    between atoms: C_4  and  C_11 
REMARK    4  A    between atoms: C_11  and  C_12 
REMARK       I    between atoms: C_12  and  N_13 
REMARK    5  A    between atoms: N_13  and  C_14 
REMARK    6  A    between atoms: C_16  and  C_17 
ROOT
HETATM    1  C   UNL     1      40.162 -15.325   2.725  1.00  0.00     0.224 C 
HETATM    2  N   UNL     1      40.194 -13.944   2.862  1.00  0.00    -0.327 N 
HETATM    3  O   UNL     1      39.702 -15.944   1.772  1.00  0.00    -0.273 OA
HETATM    4  H   UNL     1      40.561 -13.582   3.734  1.00  0.00     0.169 HD
ENDROOT
BRANCH   1   5
HETATM    5  C   UNL     1      40.750 -16.023   3.941  1.00  0.00     0.133 C 
BRANCH   5   6
HETATM    6  C   UNL     1      42.285 -15.961   3.943  1.00  0.00     0.126 C 
BRANCH   6   7
HETATM    7  N   UNL     1      42.910 -15.301   5.085  1.00  0.00    -0.352 N 
HETATM    8  C   UNL     1      43.050 -13.949   5.271  1.00  0.00     0.214 C 
HETATM    9  C   UNL     1      43.759 -13.592   6.551  1.00  0.00     0.117 C 
HETATM   10  O   UNL     1      42.628 -13.089   4.506  1.00  0.00    -0.274 OA
HETATM   11  H   UNL     1      43.313 -15.916   5.778  1.00  0.00     0.163 HD
ENDBRANCH   6   7
BRANCH   6  12
HETATM   12  C   UNL     1      42.903 -17.325   3.665  1.00  0.00    -0.035 A 
HETATM   13  C   UNL     1      43.666 -18.008   4.623  1.00  0.00     0.009 A 
HETATM   14  C   UNL     1      44.203 -19.266   4.343  1.00  0.00     0.001 A 
HETATM   15  C   UNL     1      43.975 -19.867   3.107  1.00  0.00     0.000 A 
HETATM   16  C   UNL     1      43.209 -19.208   2.148  1.00  0.00     0.001 A 
HETATM   17  C   UNL     1      42.678 -17.947   2.424  1.00  0.00     0.009 A 
ENDBRANCH   6  12
ENDBRANCH   5   6
ENDBRANCH   1   5
BRANCH   2  18
HETATM   18  C   UNL     1      39.688 -12.983   1.961  1.00  0.00     0.035 A 
HETATM   19  C   UNL     1      40.184 -12.787   0.669  1.00  0.00     0.042 A 
HETATM   20  C   UNL     1      39.627 -11.818  -0.184  1.00  0.00    -0.021 A 
HETATM   21  C   UNL     1      38.546 -11.055   0.270  1.00  0.00     0.012 A 
HETATM   22  C   UNL     1      38.048 -11.237   1.561  1.00  0.00     0.003 A 
HETATM   23  C   UNL     1      38.622 -12.190   2.403  1.00  0.00     0.029 A 
BRANCH  20  24
HETATM   24  C   UNL     1      40.159 -11.606  -1.520  1.00  0.00     0.010 A 
HETATM   25  C   UNL     1      40.191 -10.451  -2.336  1.00  0.00     0.152 A 
HETATM   26  N   UNL     1      40.797 -10.660  -3.508  1.00  0.00    -0.187 NA
HETATM   27  N   UNL     1      41.155 -11.952  -3.449  1.00  0.00    -0.289 N 
HETATM   28  H   UNL     1      41.645 -12.354  -4.242  1.00  0.00     0.188 HD
HETATM   29  C   UNL     1      40.801 -12.562  -2.281  1.00  0.00     0.123 A 
ENDBRANCH  20  24
ENDBRANCH   2  18
TORSDOF 6
ENDMDL
MODEL 9
REMARK VINA RESULT:      -7.7      2.382      8.630
REMARK  6 active torsions:
REMARK  status: ('A' for Active; 'I' for Inactive)
REMARK       I    between atoms: C_2  and  N_3 
REMARK    1  A    between atoms: N_3  and  C_4 
REMARK    2  A    between atoms: C_4  and  C_5 
REMARK    3  A    between atoms: C_4  and  C_11 
REMARK    4  A    between atoms: C_11  and  C_12 
REMARK       I    between atoms: C_12  and  N_13 
REMARK    5  A    between atoms: N_13  and  C_14 
REMARK    6  A    between atoms: C_16  and  C_17 
ROOT
HETATM    1  C   UNL     1      40.650 -15.441   1.264  1.00  0.00     0.224 C 
HETATM    2  N   UNL     1      42.000 -15.560   1.565  1.00  0.00    -0.327 N 
HETATM    3  O   UNL     1      39.728 -15.988   1.859  1.00  0.00    -0.273 OA
HETATM    4  H   UNL     1      42.647 -15.086   0.946  1.00  0.00     0.169 HD
ENDROOT
BRANCH   1   5
HETATM    5  C   UNL     1      40.422 -14.552   0.052  1.00  0.00     0.133 C 
BRANCH   5   6
HETATM    6  C   UNL     1      39.785 -13.210   0.446  1.00  0.00     0.126 C 
BRANCH   6   7
HETATM    7  N   UNL     1      40.700 -12.153   0.869  1.00  0.00    -0.352 N 
HETATM    8  C   UNL     1      41.082 -11.871   2.157  1.00  0.00     0.214 C 
HETATM    9  C   UNL     1      42.027 -10.703   2.258  1.00  0.00     0.117 C 
HETATM   10  O   UNL     1      40.730 -12.503   3.146  1.00  0.00    -0.274 OA
HETATM   11  H   UNL     1      41.043 -11.551   0.133  1.00  0.00     0.163 HD
ENDBRANCH   6   7
BRANCH   6  12
HETATM   12  C   UNL     1      38.803 -12.722  -0.610  1.00  0.00    -0.035 A 
HETATM   13  C   UNL     1      38.197 -11.459  -0.541  1.00  0.00     0.009 A 
HETATM   14  C   UNL     1      37.315 -11.034  -1.536  1.00  0.00     0.001 A 
HETATM   15  C   UNL     1      37.034 -11.859  -2.623  1.00  0.00     0.000 A 
HETATM   16  C   UNL     1      37.636 -13.112  -2.715  1.00  0.00     0.001 A 
HETATM   17  C   UNL     1      38.512 -13.541  -1.717  1.00  0.00     0.009 A 
ENDBRANCH   6  12
ENDBRANCH   5   6
ENDBRANCH   1   5
BRANCH   2  18
HETATM   18  C   UNL     1      42.584 -16.344   2.583  1.00  0.00     0.035 A 
HETATM   19  C   UNL     1      42.636 -15.964   3.927  1.00  0.00     0.042 A 
HETATM   20  C   UNL     1      43.223 -16.797   4.895  1.00  0.00    -0.021 A 
HETATM   21  C   UNL     1      43.745 -18.034   4.500  1.00  0.00     0.012 A 
HETATM   22  C   UNL     1      43.705 -18.419   3.159  1.00  0.00     0.003 A 
HETATM   23  C   UNL     1      43.135 -17.574   2.206  1.00  0.00     0.029 A 
BRANCH  20  24
HETATM   24  C   UNL     1      43.291 -16.389   6.289  1.00  0.00     0.010 A 
HETATM   25  C   UNL     1      42.955 -15.168   6.917  1.00  0.00     0.152 A 
HETATM   26  N   UNL     1      43.141 -15.197   8.240  1.00  0.00    -0.187 NA
HETATM   27  N   UNL     1      43.599 -16.439   8.465  1.00  0.00    -0.289 N 
HETATM   28  H   UNL     1      43.816 -16.708   9.418  1.00  0.00     0.188 HD
HETATM   29  C   UNL     1      43.703 -17.193   7.332  1.00  0.00     0.123 A 
ENDBRANCH  20  24
ENDBRANCH   2  18
TORSDOF 6
ENDMDL
MODEL 10
REMARK VINA RESULT:      -7.6      4.057      6.646
REMARK  6 active torsions:
REMARK  status: ('A' for Active; 'I' for Inactive)
REMARK       I    between atoms: C_2  and  N_3 
REMARK    1  A    between atoms: N_3  and  C_4 
REMARK    2  A    between atoms: C_4  and  C_5 
REMARK    3  A    between atoms: C_4  and  C_11 
REMARK    4  A    between atoms: C_11  and  C_12 
REMARK       I    between atoms: C_12  and  N_13 
REMARK    5  A    between atoms: N_13  and  C_14 
REMARK    6  A    between atoms: C_16  and  C_17 
ROOT
HETATM    1  C   UNL     1      42.665 -13.946   6.161  1.00  0.00     0.224 C 
HETATM    2  N   UNL     1      43.233 -14.424   4.989  1.00  0.00    -0.327 N 
HETATM    3  O   UNL     1      41.478 -14.003   6.463  1.00  0.00    -0.273 OA
HETATM    4  H   UNL     1      44.224 -14.255   4.862  1.00  0.00     0.169 HD
ENDROOT
BRANCH   1   5
HETATM    5  C   UNL     1      43.700 -13.287   7.059  1.00  0.00     0.133 C 
BRANCH   5   6
HETATM    6  C   UNL     1      44.085 -11.889   6.549  1.00  0.00     0.126 C 
BRANCH   6   7
HETATM    7  N   UNL     1      43.108 -11.213   5.700  1.00  0.00    -0.352 N 
HETATM    8  C   UNL     1      43.189 -11.038   4.342  1.00  0.00     0.214 C 
HETATM    9  C   UNL     1      42.021 -10.280   3.766  1.00  0.00     0.117 C 
HETATM   10  O   UNL     1      44.092 -11.467   3.633  1.00  0.00    -0.274 OA
HETATM   11  H   UNL     1      42.321 -10.800   6.183  1.00  0.00     0.163 HD
ENDBRANCH   6   7
BRANCH   6  12
HETATM   12  C   UNL     1      44.574 -10.994   7.679  1.00  0.00    -0.035 A 
HETATM   13  C   UNL     1      43.956 -10.976   8.938  1.00  0.00     0.009 A 
HETATM   14  C   UNL     1      44.441 -10.157   9.960  1.00  0.00     0.001 A 
HETATM   15  C   UNL     1      45.559  -9.354   9.744  1.00  0.00     0.000 A 
HETATM   16  C   UNL     1      46.192  -9.369   8.504  1.00  0.00     0.001 A 
HETATM   17  C   UNL     1      45.704 -10.181   7.479  1.00  0.00     0.009 A 
ENDBRANCH   6  12
ENDBRANCH   5   6
ENDBRANCH   1   5
BRANCH   2  18
HETATM   18  C   UNL     1      42.570 -15.041   3.906  1.00  0.00     0.035 A 
HETATM   19  C   UNL     1      41.786 -14.352   2.976  1.00  0.00     0.042 A 
HETATM   20  C   UNL     1      41.161 -15.025   1.913  1.00  0.00    -0.021 A 
HETATM   21  C   UNL     1      41.347 -16.406   1.781  1.00  0.00     0.012 A 
HETATM   22  C   UNL     1      42.121 -17.104   2.708  1.00  0.00     0.003 A 
HETATM   23  C   UNL     1      42.721 -16.426   3.769  1.00  0.00     0.029 A 
BRANCH  20  24
HETATM   24  C   UNL     1      40.333 -14.307   0.959  1.00  0.00     0.010 A 
HETATM   25  C   UNL     1      39.873 -12.969   0.948  1.00  0.00     0.152 A 
HETATM   26  N   UNL     1      39.142 -12.680  -0.132  1.00  0.00    -0.187 NA
HETATM   27  N   UNL     1      39.128 -13.834  -0.819  1.00  0.00    -0.289 N 
HETATM   28  H   UNL     1      38.625 -13.865  -1.699  1.00  0.00     0.188 HD
HETATM   29  C   UNL     1      39.828 -14.836  -0.212  1.00  0.00     0.123 A 
ENDBRANCH  20  24
ENDBRANCH   2  18
TORSDOF 6
ENDMDL
