MODEL 1
REMARK VINA RESULT:      -9.1      0.000      0.000
REMARK  5 active torsions:
REMARK  status: ('A' for Active; 'I' for Inactive)
REMARK    1  A    between atoms: C_2  and  C_3 
REMARK    2  A    between atoms: C_8  and  N_9 
REMARK       I    between atoms: N_9  and  C_10 
REMARK       I    between atoms: C_10  and  N_11 
REMARK    3  A    between atoms: N_11  and  C_12 
REMARK    4  A    between atoms: C_12  and  C_13 
REMARK    5  A    between atoms: C_13  and  C_14 
ROOT
HETATM    1  N   UNL     1      43.622 -10.959   8.190  1.00  0.00    -0.305 N 
HETATM    2  C   UNL     1      43.795 -11.628   7.003  1.00  0.00     0.320 C 
HETATM    3  N   UNL     1      43.460 -12.960   7.141  1.00  0.00    -0.343 N 
HETATM    4  O   UNL     1      44.153 -11.148   5.937  1.00  0.00    -0.247 OA
HETATM    5  H   UNL     1      42.996 -11.403   8.847  1.00  0.00     0.171 HD
HETATM    6  H   UNL     1      43.652 -13.361   8.048  1.00  0.00     0.164 HD
ENDROOT
BRANCH   3   7
HETATM    7  C   UNL     1      43.562 -13.851   5.998  1.00  0.00     0.129 C 
BRANCH   7   8
HETATM    8  C   UNL     1      43.666 -15.327   6.398  1.00  0.00     0.058 C 
BRANCH   8   9
HETATM    9  C   UNL     1      43.608 -16.361   5.294  1.00  0.00    -0.056 A 
HETATM   10  C   UNL     1      43.903 -17.718   5.492  1.00  0.00     0.019 A 
HETATM   11  C   UNL     1      43.809 -18.653   4.444  1.00  0.00    -0.025 A 
HETATM   12  C   UNL     1      43.391 -18.220   3.166  1.00  0.00    -0.026 A 
HETATM   13  C   UNL     1      44.116 -20.009   4.640  1.00  0.00     0.012 A 
HETATM   14  C   UNL     1      43.079 -16.869   2.970  1.00  0.00     0.013 A 
HETATM   15  C   UNL     1      43.290 -19.154   2.121  1.00  0.00     0.012 A 
HETATM   16  C   UNL     1      43.182 -15.954   4.022  1.00  0.00     0.008 A 
HETATM   17  C   UNL     1      43.600 -20.498   2.334  1.00  0.00     0.001 A 
HETATM   18  C   UNL     1      44.013 -20.925   3.592  1.00  0.00     0.001 A 
ENDBRANCH   8   9
ENDBRANCH   7   8
ENDBRANCH   3   7
BRANCH   1  19
HETATM   19  C   UNL     1      43.937  -9.631   8.433  1.00  0.00     0.095 A 
HETATM   20  C   UNL     1      43.020  -8.717   8.910  1.00  0.00     0.107 A 
HETATM   21  O   UNL     1      43.614  -7.505   9.047  1.00  0.00    -0.215 OA
HETATM   22  N   UNL     1      44.939  -7.596   8.683  1.00  0.00    -0.131 NA
HETATM   23  C   UNL     1      45.139  -8.873   8.322  1.00  0.00     0.087 A 
HETATM   24  C   UNL     1      46.509  -9.283   7.931  1.00  0.00     0.075 C 
BRANCH  20  25
HETATM   25  C   UNL     1      41.584  -8.773   9.278  1.00  0.00     0.065 C 
HETATM   26  C   UNL     1      41.377  -9.385  10.654  1.00  0.00     0.012 C 
ENDBRANCH  20  25
ENDBRANCH   1  19
TORSDOF 5
ENDMDL
MODEL 2
REMARK VINA RESULT:      -9.1      1.156      1.939
REMARK  5 active torsions:
REMARK  status: ('A' for Active; 'I' for Inactive)
REMARK    1  A    between atoms: C_2  and  C_3 
REMARK    2  A    between atoms: C_8  and  N_9 
REMARK       I    between atoms: N_9  and  C_10 
REMARK       I    between atoms: C_10  and  N_11 
REMARK    3  A    between atoms: N_11  and  C_12 
REMARK    4  A    between atoms: C_12  and  C_13 
REMARK    5  A    between atoms: C_13  and  C_14 
ROOT
HETATM    1  N   UNL     1      43.004 -10.778   7.824  1.00  0.00    -0.305 N 
HETATM    2  C   UNL     1      43.659 -11.634   6.973  1.00  0.00     0.320 C 
HETATM    3  N   UNL     1      43.262 -12.938   7.195  1.00  0.00    -0.343 N 
HETATM    4  O   UNL     1      44.458 -11.331   6.099  1.00  0.00    -0.247 OA
HETATM    5  H   UNL     1      42.144 -11.134   8.215  1.00  0.00     0.171 HD
HETATM    6  H   UNL     1      43.030 -13.162   8.152  1.00  0.00     0.164 HD
ENDROOT
BRANCH   3   7
HETATM    7  C   UNL     1      43.828 -14.010   6.392  1.00  0.00     0.129 C 
BRANCH   7   8
HETATM    8  C   UNL     1      42.977 -14.348   5.163  1.00  0.00     0.058 C 
BRANCH   8   9
HETATM    9  C   UNL     1      43.184 -15.701   4.515  1.00  0.00    -0.056 A 
HETATM   10  C   UNL     1      43.473 -16.866   5.238  1.00  0.00     0.019 A 
HETATM   11  C   UNL     1      43.629 -18.111   4.598  1.00  0.00    -0.025 A 
HETATM   12  C   UNL     1      43.474 -18.192   3.197  1.00  0.00    -0.026 A 
HETATM   13  C   UNL     1      43.931 -19.275   5.322  1.00  0.00     0.012 A 
HETATM   14  C   UNL     1      43.168 -17.032   2.474  1.00  0.00     0.013 A 
HETATM   15  C   UNL     1      43.623 -19.435   2.558  1.00  0.00     0.012 A 
HETATM   16  C   UNL     1      43.021 -15.805   3.126  1.00  0.00     0.008 A 
HETATM   17  C   UNL     1      43.923 -20.582   3.293  1.00  0.00     0.001 A 
HETATM   18  C   UNL     1      44.077 -20.503   4.673  1.00  0.00     0.001 A 
ENDBRANCH   8   9
ENDBRANCH   7   8
ENDBRANCH   3   7
BRANCH   1  19
HETATM   19  C   UNL     1      43.218  -9.412   7.931  1.00  0.00     0.095 A 
HETATM   20  C   UNL     1      44.350  -8.871   8.504  1.00  0.00     0.107 A 
HETATM   21  O   UNL     1      44.277  -7.517   8.466  1.00  0.00    -0.215 OA
HETATM   22  N   UNL     1      43.107  -7.134   7.849  1.00  0.00    -0.131 NA
HETATM   23  C   UNL     1      42.472  -8.269   7.518  1.00  0.00     0.087 A 
HETATM   24  C   UNL     1      41.191  -8.164   6.779  1.00  0.00     0.075 C 
BRANCH  20  25
HETATM   25  C   UNL     1      45.570  -9.430   9.135  1.00  0.00     0.065 C 
HETATM   26  C   UNL     1      45.287  -9.984  10.522  1.00  0.00     0.012 C 
ENDBRANCH  20  25
ENDBRANCH   1  19
TORSDOF 5
ENDMDL
MODEL 3
REMARK VINA RESULT:      -8.8      6.203      8.229
REMARK  5 active torsions:
REMARK  status: ('A' for Active; 'I' for Inactive)
REMARK    1  A    between atoms: C_2  and  C_3 
REMARK    2  A    between atoms: C_8  and  N_9 
REMARK       I    between atoms: N_9  and  C_10 
REMARK       I    between atoms: C_10  and  N_11 
REMARK    3  A    between atoms: N_11  and  C_12 
REMARK    4  A    between atoms: C_12  and  C_13 
REMARK    5  A    between atoms: C_13  and  C_14 
ROOT
HETATM    1  N   UNL     1      40.156 -12.820  -0.620  1.00  0.00    -0.305 N 
HETATM    2  C   UNL     1      40.531 -13.638   0.418  1.00  0.00     0.320 C 
HETATM    3  N   UNL     1      41.843 -13.398   0.776  1.00  0.00    -0.343 N 
HETATM    4  O   UNL     1      39.829 -14.451   1.001  1.00  0.00    -0.247 OA
HETATM    5  H   UNL     1      40.715 -11.987  -0.736  1.00  0.00     0.171 HD
HETATM    6  H   UNL     1      42.455 -13.129   0.019  1.00  0.00     0.164 HD
ENDROOT
BRANCH   3   7
HETATM    7  C   UNL     1      42.442 -14.152   1.864  1.00  0.00     0.129 C 
BRANCH   7   8
HETATM    8  C   UNL     1      43.025 -15.495   1.410  1.00  0.00     0.058 C 
BRANCH   8   9
HETATM    9  C   UNL     1      43.235 -16.563   2.462  1.00  0.00    -0.056 A 
HETATM   10  C   UNL     1      43.359 -17.927   2.161  1.00  0.00     0.019 A 
HETATM   11  C   UNL     1      43.583 -18.885   3.169  1.00  0.00    -0.025 A 
HETATM   12  C   UNL     1      43.703 -18.464   4.511  1.00  0.00    -0.026 A 
HETATM   13  C   UNL     1      43.694 -20.253   2.868  1.00  0.00     0.012 A 
HETATM   14  C   UNL     1      43.597 -17.100   4.811  1.00  0.00     0.013 A 
HETATM   15  C   UNL     1      43.932 -19.419   5.515  1.00  0.00     0.012 A 
HETATM   16  C   UNL     1      43.370 -16.163   3.799  1.00  0.00     0.008 A 
HETATM   17  C   UNL     1      44.040 -20.774   5.199  1.00  0.00     0.001 A 
HETATM   18  C   UNL     1      43.921 -21.190   3.877  1.00  0.00     0.001 A 
ENDBRANCH   8   9
ENDBRANCH   7   8
ENDBRANCH   3   7
BRANCH   1  19
HETATM   19  C   UNL     1      38.937 -12.847  -1.281  1.00  0.00     0.095 A 
HETATM   20  C   UNL     1      37.975 -11.870  -1.123  1.00  0.00     0.107 A 
HETATM   21  O   UNL     1      36.897 -12.165  -1.892  1.00  0.00    -0.215 OA
HETATM   22  N   UNL     1      37.130 -13.328  -2.589  1.00  0.00    -0.131 NA
HETATM   23  C   UNL     1      38.357 -13.737  -2.232  1.00  0.00     0.087 A 
HETATM   24  C   UNL     1      38.905 -14.953  -2.878  1.00  0.00     0.075 C 
BRANCH  20  25
HETATM   25  C   UNL     1      37.870 -10.629  -0.318  1.00  0.00     0.065 C 
HETATM   26  C   UNL     1      37.273 -10.893   1.055  1.00  0.00     0.012 C 
ENDBRANCH  20  25
ENDBRANCH   1  19
TORSDOF 5
ENDMDL
MODEL 4
REMARK VINA RESULT:      -8.7      5.739      8.169
REMARK  5 active torsions:
REMARK  status: ('A' for Active; 'I' for Inactive)
REMARK    1  A    between atoms: C_2  and  C_3 
REMARK    2  A    between atoms: C_8  and  N_9 
REMARK       I    between atoms: N_9  and  C_10 
REMARK       I    between atoms: C_10  and  N_11 
REMARK    3  A    between atoms: N_11  and  C_12 
REMARK    4  A    between atoms: C_12  and  C_13 
REMARK    5  A    between atoms: C_13  and  C_14 
ROOT
HETATM    1  N   UNL     1      39.121 -13.120   0.514  1.00  0.00    -0.305 N 
HETATM    2  C   UNL     1      40.356 -12.853   1.053  1.00  0.00     0.320 C 
HETATM    3  N   UNL     1      40.607 -13.682   2.128  1.00  0.00    -0.343 N 
HETATM    4  O   UNL     1      41.171 -12.036   0.650  1.00  0.00    -0.247 OA
HETATM    5  H   UNL     1      38.747 -14.033   0.727  1.00  0.00     0.171 HD
HETATM    6  H   UNL     1      39.797 -13.940   2.673  1.00  0.00     0.164 HD
ENDROOT
BRANCH   3   7
HETATM    7  C   UNL     1      41.868 -13.574   2.842  1.00  0.00     0.129 C 
BRANCH   7   8
HETATM    8  C   UNL     1      42.968 -14.464   2.252  1.00  0.00     0.058 C 
BRANCH   8   9
HETATM    9  C   UNL     1      43.214 -15.806   2.907  1.00  0.00    -0.056 A 
HETATM   10  C   UNL     1      43.174 -17.023   2.211  1.00  0.00     0.019 A 
HETATM   11  C   UNL     1      43.439 -18.248   2.853  1.00  0.00    -0.025 A 
HETATM   12  C   UNL     1      43.769 -18.252   4.226  1.00  0.00    -0.026 A 
HETATM   13  C   UNL     1      43.387 -19.467   2.158  1.00  0.00     0.012 A 
HETATM   14  C   UNL     1      43.826 -17.036   4.919  1.00  0.00     0.013 A 
HETATM   15  C   UNL     1      44.040 -19.474   4.866  1.00  0.00     0.012 A 
HETATM   16  C   UNL     1      43.557 -15.831   4.266  1.00  0.00     0.008 A 
HETATM   17  C   UNL     1      43.983 -20.676   4.160  1.00  0.00     0.001 A 
HETATM   18  C   UNL     1      43.657 -20.672   2.807  1.00  0.00     0.001 A 
ENDBRANCH   8   9
ENDBRANCH   7   8
ENDBRANCH   3   7
BRANCH   1  19
HETATM   19  C   UNL     1      38.515 -12.425  -0.522  1.00  0.00     0.095 A 
HETATM   20  C   UNL     1      38.714 -12.736  -1.851  1.00  0.00     0.107 A 
HETATM   21  O   UNL     1      37.995 -11.889  -2.630  1.00  0.00    -0.215 OA
HETATM   22  N   UNL     1      37.291 -11.015  -1.833  1.00  0.00    -0.131 NA
HETATM   23  C   UNL     1      37.593 -11.338  -0.566  1.00  0.00     0.087 A 
HETATM   24  C   UNL     1      36.927 -10.590   0.526  1.00  0.00     0.075 C 
BRANCH  20  25
HETATM   25  C   UNL     1      39.519 -13.748  -2.578  1.00  0.00     0.065 C 
HETATM   26  C   UNL     1      38.680 -14.946  -2.995  1.00  0.00     0.012 C 
ENDBRANCH  20  25
ENDBRANCH   1  19
TORSDOF 5
ENDMDL
MODEL 5
REMARK VINA RESULT:      -8.6      1.684      2.097
REMARK  5 active torsions:
REMARK  status: ('A' for Active; 'I' for Inactive)
REMARK    1  A    between atoms: C_2  and  C_3 
REMARK    2  A    between atoms: C_8  and  N_9 
REMARK       I    between atoms: N_9  and  C_10 
REMARK       I    between atoms: C_10  and  N_11 
REMARK    3  A    between atoms: N_11  and  C_12 
REMARK    4  A    between atoms: C_12  and  C_13 
REMARK    5  A    between atoms: C_13  and  C_14 
ROOT
HETATM    1  N   UNL     1      42.886 -10.464   7.616  1.00  0.00    -0.305 N 
HETATM    2  C   UNL     1      42.551 -10.980   6.388  1.00  0.00     0.320 C 
HETATM    3  N   UNL     1      41.534 -11.906   6.510  1.00  0.00    -0.343 N 
HETATM    4  O   UNL     1      43.028 -10.668   5.307  1.00  0.00    -0.247 OA
HETATM    5  H   UNL     1      42.176 -10.553   8.329  1.00  0.00     0.171 HD
HETATM    6  H   UNL     1      41.540 -12.443   7.366  1.00  0.00     0.164 HD
ENDROOT
BRANCH   3   7
HETATM    7  C   UNL     1      41.019 -12.571   5.326  1.00  0.00     0.129 C 
BRANCH   7   8
HETATM    8  C   UNL     1      40.601 -14.022   5.589  1.00  0.00     0.058 C 
BRANCH   8   9
HETATM    9  C   UNL     1      41.259 -15.105   4.760  1.00  0.00    -0.056 A 
HETATM   10  C   UNL     1      42.323 -15.892   5.224  1.00  0.00     0.019 A 
HETATM   11  C   UNL     1      42.886 -16.910   4.430  1.00  0.00    -0.025 A 
HETATM   12  C   UNL     1      42.359 -17.157   3.143  1.00  0.00    -0.026 A 
HETATM   13  C   UNL     1      43.959 -17.690   4.891  1.00  0.00     0.012 A 
HETATM   14  C   UNL     1      41.285 -16.382   2.685  1.00  0.00     0.013 A 
HETATM   15  C   UNL     1      42.917 -18.176   2.354  1.00  0.00     0.012 A 
HETATM   16  C   UNL     1      40.741 -15.374   3.485  1.00  0.00     0.008 A 
HETATM   17  C   UNL     1      43.983 -18.941   2.827  1.00  0.00     0.001 A 
HETATM   18  C   UNL     1      44.504 -18.698   4.094  1.00  0.00     0.001 A 
ENDBRANCH   8   9
ENDBRANCH   7   8
ENDBRANCH   3   7
BRANCH   1  19
HETATM   19  C   UNL     1      43.916  -9.572   7.873  1.00  0.00     0.095 A 
HETATM   20  C   UNL     1      43.699  -8.271   8.279  1.00  0.00     0.107 A 
HETATM   21  O   UNL     1      44.890  -7.644   8.452  1.00  0.00    -0.215 OA
HETATM   22  N   UNL     1      45.917  -8.520   8.184  1.00  0.00    -0.131 NA
HETATM   23  C   UNL     1      45.338  -9.682   7.845  1.00  0.00     0.087 A 
HETATM   24  C   UNL     1      46.213 -10.842   7.555  1.00  0.00     0.075 C 
BRANCH  20  25
HETATM   25  C   UNL     1      42.495  -7.447   8.544  1.00  0.00     0.065 C 
HETATM   26  C   UNL     1      41.913  -6.867   7.265  1.00  0.00     0.012 C 
ENDBRANCH  20  25
ENDBRANCH   1  19
TORSDOF 5
ENDMDL
MODEL 6
REMARK VINA RESULT:      -8.3      3.103      4.240
REMARK  5 active torsions:
REMARK  status: ('A' for Active; 'I' for Inactive)
REMARK    1  A    between atoms: C_2  and  C_3 
REMARK    2  A    between atoms: C_8  and  N_9 
REMARK       I    between atoms: N_9  and  C_10 
REMARK       I    between atoms: C_10  and  N_11 
REMARK    3  A    between atoms: N_11  and  C_12 
REMARK    4  A    between atoms: C_12  and  C_13 
REMARK    5  A    between atoms: C_13  and  C_14 
ROOT
HETATM    1  N   UNL     1      40.489 -12.577   6.411  1.00  0.00    -0.305 N 
HETATM    2  C   UNL     1      41.817 -12.721   6.093  1.00  0.00     0.320 C 
HETATM    3  N   UNL     1      42.347 -13.837   6.710  1.00  0.00    -0.343 N 
HETATM    4  O   UNL     1      42.472 -12.012   5.343  1.00  0.00    -0.247 OA
HETATM    5  H   UNL     1      40.029 -13.417   6.731  1.00  0.00     0.171 HD
HETATM    6  H   UNL     1      41.956 -14.056   7.615  1.00  0.00     0.164 HD
ENDROOT
BRANCH   3   7
HETATM    7  C   UNL     1      43.743 -14.181   6.500  1.00  0.00     0.129 C 
BRANCH   7   8
HETATM    8  C   UNL     1      44.027 -15.673   6.704  1.00  0.00     0.058 C 
BRANCH   8   9
HETATM    9  C   UNL     1      43.862 -16.590   5.510  1.00  0.00    -0.056 A 
HETATM   10  C   UNL     1      44.064 -17.977   5.570  1.00  0.00     0.019 A 
HETATM   11  C   UNL     1      43.871 -18.798   4.442  1.00  0.00    -0.025 A 
HETATM   12  C   UNL     1      43.449 -18.216   3.226  1.00  0.00    -0.026 A 
HETATM   13  C   UNL     1      44.085 -20.184   4.499  1.00  0.00     0.012 A 
HETATM   14  C   UNL     1      43.230 -16.834   3.170  1.00  0.00     0.013 A 
HETATM   15  C   UNL     1      43.250 -19.036   2.102  1.00  0.00     0.012 A 
HETATM   16  C   UNL     1      43.430 -16.034   4.298  1.00  0.00     0.008 A 
HETATM   17  C   UNL     1      43.468 -20.412   2.177  1.00  0.00     0.001 A 
HETATM   18  C   UNL     1      43.886 -20.986   3.373  1.00  0.00     0.001 A 
ENDBRANCH   8   9
ENDBRANCH   7   8
ENDBRANCH   3   7
BRANCH   1  19
HETATM   19  C   UNL     1      39.667 -11.526   6.032  1.00  0.00     0.095 A 
HETATM   20  C   UNL     1      39.156 -11.394   4.757  1.00  0.00     0.107 A 
HETATM   21  O   UNL     1      38.393 -10.275   4.686  1.00  0.00    -0.215 OA
HETATM   22  N   UNL     1      38.367  -9.655   5.914  1.00  0.00    -0.131 NA
HETATM   23  C   UNL     1      39.124 -10.406   6.728  1.00  0.00     0.087 A 
HETATM   24  C   UNL     1      39.233 -10.006   8.151  1.00  0.00     0.075 C 
BRANCH  20  25
HETATM   25  C   UNL     1      39.268 -12.177   3.502  1.00  0.00     0.065 C 
HETATM   26  C   UNL     1      38.525 -11.513   2.353  1.00  0.00     0.012 C 
ENDBRANCH  20  25
ENDBRANCH   1  19
TORSDOF 5
ENDMDL
MODEL 7
REMARK VINA RESULT:      -8.2      4.693      8.536
REMARK  5 active torsions:
REMARK  status: ('A' for Active; 'I' for Inactive)
REMARK    1  A    between atoms: C_2  and  C_3 
REMARK    2  A    between atoms: C_8  and  N_9 
REMARK       I    between atoms: N_9  and  C_10 
REMARK       I    between atoms: C_10  and  N_11 
REMARK    3  A    between atoms: N_11  and  C_12 
REMARK    4  A    between atoms: C_12  and  C_13 
REMARK    5  A    between atoms: C_13  and  C_14 
ROOT
HETATM    1  N   UNL     1      43.350 -16.942   2.221  1.00  0.00    -0.305 N 
HETATM    2  C   UNL     1      42.154 -16.281   2.076  1.00  0.00     0.320 C 
HETATM    3  N   UNL     1      42.254 -15.301   1.109  1.00  0.00    -0.343 N 
HETATM    4  O   UNL     1      41.111 -16.515   2.669  1.00  0.00    -0.247 OA
HETATM    5  H   UNL     1      43.977 -16.875   1.432  1.00  0.00     0.171 HD
HETATM    6  H   UNL     1      43.158 -14.856   1.037  1.00  0.00     0.164 HD
ENDROOT
BRANCH   3   7
HETATM    7  C   UNL     1      41.096 -14.483   0.790  1.00  0.00     0.129 C 
BRANCH   7   8
HETATM    8  C   UNL     1      41.165 -13.082   1.408  1.00  0.00     0.058 C 
BRANCH   8   9
HETATM    9  C   UNL     1      41.756 -12.954   2.796  1.00  0.00    -0.056 A 
HETATM   10  C   UNL     1      42.980 -12.321   3.057  1.00  0.00     0.019 A 
HETATM   11  C   UNL     1      43.480 -12.197   4.367  1.00  0.00    -0.025 A 
HETATM   12  C   UNL     1      42.726 -12.706   5.447  1.00  0.00    -0.026 A 
HETATM   13  C   UNL     1      44.711 -11.573   4.626  1.00  0.00     0.012 A 
HETATM   14  C   UNL     1      41.495 -13.324   5.190  1.00  0.00     0.013 A 
HETATM   15  C   UNL     1      43.221 -12.577   6.756  1.00  0.00     0.012 A 
HETATM   16  C   UNL     1      41.016 -13.441   3.882  1.00  0.00     0.008 A 
HETATM   17  C   UNL     1      44.447 -11.955   6.995  1.00  0.00     0.001 A 
HETATM   18  C   UNL     1      45.192 -11.454   5.932  1.00  0.00     0.001 A 
ENDBRANCH   8   9
ENDBRANCH   7   8
ENDBRANCH   3   7
BRANCH   1  19
HETATM   19  C   UNL     1      43.630 -17.929   3.154  1.00  0.00     0.095 A 
HETATM   20  C   UNL     1      43.756 -17.671   4.504  1.00  0.00     0.107 A 
HETATM   21  O   UNL     1      44.030 -18.824   5.164  1.00  0.00    -0.215 OA
HETATM   22  N   UNL     1      44.070 -19.870   4.270  1.00  0.00    -0.131 NA
HETATM   23  C   UNL     1      43.822 -19.338   3.063  1.00  0.00     0.087 A 
HETATM   24  C   UNL     1      43.745 -20.252   1.899  1.00  0.00     0.075 C 
BRANCH  20  25
HETATM   25  C   UNL     1      43.671 -16.453   5.347  1.00  0.00     0.065 C 
HETATM   26  C   UNL     1      44.789 -16.397   6.375  1.00  0.00     0.012 C 
ENDBRANCH  20  25
ENDBRANCH   1  19
TORSDOF 5
ENDMDL
MODEL 8
REMARK VINA RESULT:      -8.1      3.674      4.471
REMARK  5 active torsions:
REMARK  status: ('A' for Active; 'I' for Inactive)
REMARK    1  A    between atoms: C_2  and  C_3 
REMARK    2  A    between atoms: C_8  and  N_9 
REMARK       I    between atoms: N_9  and  C_10 
REMARK       I    between atoms: C_10  and  N_11 
REMARK    3  A    between atoms: N_11  and  C_12 
REMARK    4  A    between atoms: C_12  and  C_13 
REMARK    5  A    between atoms: C_13  and  C_14 
ROOT
HETATM    1  N   UNL     1      42.119 -12.670   5.975  1.00  0.00    -0.305 N 
HETATM    2  C   UNL     1      41.896 -13.964   6.377  1.00  0.00     0.320 C 
HETATM    3  N   UNL     1      42.898 -14.390   7.226  1.00  0.00    -0.343 N 
HETATM    4  O   UNL     1      40.940 -14.668   6.084  1.00  0.00    -0.247 OA
HETATM    5  H   UNL     1      42.730 -12.133   6.573  1.00  0.00     0.171 HD
HETATM    6  H   UNL     1      43.813 -14.006   7.039  1.00  0.00     0.164 HD
ENDROOT
BRANCH   3   7
HETATM    7  C   UNL     1      42.853 -15.733   7.778  1.00  0.00     0.129 C 
BRANCH   7   8
HETATM    8  C   UNL     1      44.017 -16.612   7.309  1.00  0.00     0.058 C 
BRANCH   8   9
HETATM    9  C   UNL     1      43.901 -17.268   5.949  1.00  0.00    -0.056 A 
HETATM   10  C   UNL     1      44.017 -18.651   5.748  1.00  0.00     0.019 A 
HETATM   11  C   UNL     1      43.872 -19.223   4.469  1.00  0.00    -0.025 A 
HETATM   12  C   UNL     1      43.588 -18.390   3.366  1.00  0.00    -0.026 A 
HETATM   13  C   UNL     1      44.000 -20.607   4.267  1.00  0.00     0.012 A 
HETATM   14  C   UNL     1      43.455 -17.010   3.567  1.00  0.00     0.013 A 
HETATM   15  C   UNL     1      43.438 -18.961   2.091  1.00  0.00     0.012 A 
HETATM   16  C   UNL     1      43.605 -16.459   4.843  1.00  0.00     0.008 A 
HETATM   17  C   UNL     1      43.568 -20.338   1.908  1.00  0.00     0.001 A 
HETATM   18  C   UNL     1      43.850 -21.160   2.994  1.00  0.00     0.001 A 
ENDBRANCH   8   9
ENDBRANCH   7   8
ENDBRANCH   3   7
BRANCH   1  19
HETATM   19  C   UNL     1      41.357 -11.955   5.062  1.00  0.00     0.095 A 
HETATM   20  C   UNL     1      41.743 -11.761   3.752  1.00  0.00     0.107 A 
HETATM   21  O   UNL     1      40.802 -11.029   3.105  1.00  0.00    -0.215 OA
HETATM   22  N   UNL     1      39.767 -10.742   3.965  1.00  0.00    -0.131 NA
HETATM   23  C   UNL     1      40.092 -11.303   5.140  1.00  0.00     0.087 A 
HETATM   24  C   UNL     1      39.121 -11.203   6.256  1.00  0.00     0.075 C 
BRANCH  20  25
HETATM   25  C   UNL     1      42.919 -12.156   2.940  1.00  0.00     0.065 C 
HETATM   26  C   UNL     1      42.754 -13.543   2.341  1.00  0.00     0.012 C 
ENDBRANCH  20  25
ENDBRANCH   1  19
TORSDOF 5
ENDMDL
MODEL 9
REMARK VINA RESULT:      -8.0     16.797     18.434
REMARK  5 active torsions:
REMARK  status: ('A' for Active; 'I' for Inactive)
REMARK    1  A    between atoms: C_2  and  C_3 
REMARK    2  A    between atoms: C_8  and  N_9 
REMARK       I    between atoms: N_9  and  C_10 
REMARK       I    between atoms: C_10  and  N_11 
REMARK    3  A    between atoms: N_11  and  C_12 
REMARK    4  A    between atoms: C_12  and  C_13 
REMARK    5  A    between atoms: C_13  and  C_14 
ROOT
HETATM    1  N   UNL     1      47.591 -30.475   1.749  1.00  0.00    -0.305 N 
HETATM    2  C   UNL     1      46.625 -29.510   1.905  1.00  0.00     0.320 C 
HETATM    3  N   UNL     1      45.465 -30.061   2.411  1.00  0.00    -0.343 N 
HETATM    4  O   UNL     1      46.741 -28.315   1.679  1.00  0.00    -0.247 OA
HETATM    5  H   UNL     1      47.460 -31.308   2.304  1.00  0.00     0.171 HD
HETATM    6  H   UNL     1      45.274 -31.009   2.120  1.00  0.00     0.164 HD
ENDROOT
BRANCH   3   7
HETATM    7  C   UNL     1      44.314 -29.210   2.662  1.00  0.00     0.129 C 
BRANCH   7   8
HETATM    8  C   UNL     1      43.179 -29.428   1.654  1.00  0.00     0.058 C 
BRANCH   8   9
HETATM    9  C   UNL     1      43.559 -29.781   0.232  1.00  0.00    -0.056 A 
HETATM   10  C   UNL     1      43.949 -28.830  -0.721  1.00  0.00     0.019 A 
HETATM   11  C   UNL     1      44.323 -29.206  -2.026  1.00  0.00    -0.025 A 
HETATM   12  C   UNL     1      44.322 -30.572  -2.380  1.00  0.00    -0.026 A 
HETATM   13  C   UNL     1      44.702 -28.251  -2.984  1.00  0.00     0.012 A 
HETATM   14  C   UNL     1      43.949 -31.526  -1.424  1.00  0.00     0.013 A 
HETATM   15  C   UNL     1      44.701 -30.948  -3.680  1.00  0.00     0.012 A 
HETATM   16  C   UNL     1      43.577 -31.134  -0.135  1.00  0.00     0.008 A 
HETATM   17  C   UNL     1      45.074 -29.986  -4.619  1.00  0.00     0.001 A 
HETATM   18  C   UNL     1      45.074 -28.639  -4.272  1.00  0.00     0.001 A 
ENDBRANCH   8   9
ENDBRANCH   7   8
ENDBRANCH   3   7
BRANCH   1  19
HETATM   19  C   UNL     1      48.848 -30.290   1.192  1.00  0.00     0.095 A 
HETATM   20  C   UNL     1      49.050 -30.109  -0.160  1.00  0.00     0.107 A 
HETATM   21  O   UNL     1      50.376 -29.955  -0.405  1.00  0.00    -0.215 OA
HETATM   22  N   UNL     1      51.074 -30.010   0.779  1.00  0.00    -0.131 NA
HETATM   23  C   UNL     1      50.160 -30.202   1.743  1.00  0.00     0.087 A 
HETATM   24  C   UNL     1      50.624 -30.245   3.150  1.00  0.00     0.075 C 
BRANCH  20  25
HETATM   25  C   UNL     1      48.167 -30.061  -1.351  1.00  0.00     0.065 C 
HETATM   26  C   UNL     1      47.961 -28.638  -1.845  1.00  0.00     0.012 C 
ENDBRANCH  20  25
ENDBRANCH   1  19
TORSDOF 5
ENDMDL
MODEL 10
REMARK VINA RESULT:      -7.9      3.223      3.876
REMARK  5 active torsions:
REMARK  status: ('A' for Active; 'I' for Inactive)
REMARK    1  A    between atoms: C_2  and  C_3 
REMARK    2  A    between atoms: C_8  and  N_9 
REMARK       I    between atoms: N_9  and  C_10 
REMARK       I    between atoms: C_10  and  N_11 
REMARK    3  A    between atoms: N_11  and  C_12 
REMARK    4  A    between atoms: C_12  and  C_13 
REMARK    5  A    between atoms: C_13  and  C_14 
ROOT
HETATM    1  N   UNL     1      40.657 -10.781   5.862  1.00  0.00    -0.305 N 
HETATM    2  C   UNL     1      40.481 -12.095   5.500  1.00  0.00     0.320 C 
HETATM    3  N   UNL     1      41.701 -12.727   5.356  1.00  0.00    -0.343 N 
HETATM    4  O   UNL     1      39.418 -12.679   5.353  1.00  0.00    -0.247 OA
HETATM    5  H   UNL     1      41.549 -10.566   6.282  1.00  0.00     0.171 HD
HETATM    6  H   UNL     1      42.452 -12.143   5.016  1.00  0.00     0.164 HD
ENDROOT
BRANCH   3   7
HETATM    7  C   UNL     1      41.745 -14.131   4.983  1.00  0.00     0.129 C 
BRANCH   7   8
HETATM    8  C   UNL     1      42.924 -14.468   4.064  1.00  0.00     0.058 C 
BRANCH   8   9
HETATM    9  C   UNL     1      43.146 -15.922   3.709  1.00  0.00    -0.056 A 
HETATM   10  C   UNL     1      43.473 -16.906   4.654  1.00  0.00     0.019 A 
HETATM   11  C   UNL     1      43.642 -18.254   4.285  1.00  0.00    -0.025 A 
HETATM   12  C   UNL     1      43.464 -18.630   2.935  1.00  0.00    -0.026 A 
HETATM   13  C   UNL     1      43.981 -19.236   5.230  1.00  0.00     0.012 A 
HETATM   14  C   UNL     1      43.121 -17.652   1.993  1.00  0.00     0.013 A 
HETATM   15  C   UNL     1      43.627 -19.977   2.568  1.00  0.00     0.012 A 
HETATM   16  C   UNL     1      42.960 -16.318   2.377  1.00  0.00     0.008 A 
HETATM   17  C   UNL     1      43.964 -20.940   3.520  1.00  0.00     0.001 A 
HETATM   18  C   UNL     1      44.141 -20.570   4.849  1.00  0.00     0.001 A 
ENDBRANCH   8   9
ENDBRANCH   7   8
ENDBRANCH   3   7
BRANCH   1  19
HETATM   19  C   UNL     1      39.654  -9.836   6.014  1.00  0.00     0.095 A 
HETATM   20  C   UNL     1      39.428  -9.164   7.198  1.00  0.00     0.107 A 
HETATM   21  O   UNL     1      38.388  -8.307   7.044  1.00  0.00    -0.215 OA
HETATM   22  N   UNL     1      37.917  -8.379   5.753  1.00  0.00    -0.131 NA
HETATM   23  C   UNL     1      38.679  -9.289   5.128  1.00  0.00     0.087 A 
HETATM   24  C   UNL     1      38.435  -9.537   3.687  1.00  0.00     0.075 C 
BRANCH  20  25
HETATM   25  C   UNL     1      40.048  -9.187   8.545  1.00  0.00     0.065 C 
HETATM   26  C   UNL     1      39.138  -9.835   9.576  1.00  0.00     0.012 C 
ENDBRANCH  20  25
ENDBRANCH   1  19
TORSDOF 5
ENDMDL
