MODEL 1
REMARK VINA RESULT:      -8.4      0.000      0.000
REMARK  9 active torsions:
REMARK  status: ('A' for Active; 'I' for Inactive)
REMARK    1  A    between atoms: C_3  and  O_4 
REMARK    2  A    between atoms: O_4  and  C_5 
REMARK    3  A    between atoms: C_5  and  C_6 
REMARK    4  A    between atoms: N_7  and  C_8 
REMARK    5  A    between atoms: C_14  and  S_15 
REMARK    6  A    between atoms: S_15  and  C_16 
REMARK    7  A    between atoms: C_16  and  C_17 
REMARK       I    between atoms: C_17  and  N_18 
REMARK    8  A    between atoms: N_18  and  C_19 
REMARK    9  A    between atoms: C_19  and  C_20 
ROOT
HETATM    1  C   UNL     1      42.906 -16.148   6.471  1.00  0.00     0.160 A 
HETATM    2  N   UNL     1      42.689 -15.088   5.590  1.00  0.00    -0.274 N 
HETATM    3  C   UNL     1      42.985 -13.972   6.358  1.00  0.00     0.196 A 
HETATM    4  N   UNL     1      43.368 -14.323   7.562  1.00  0.00    -0.122 NA
HETATM    5  N   UNL     1      43.307 -15.679   7.640  1.00  0.00    -0.131 NA
ENDROOT
BRANCH   3   6
HETATM    6  S   UNL     1      42.592 -12.323   5.976  1.00  0.00    -0.081 SA
BRANCH   6   7
HETATM    7  C   UNL     1      44.260 -11.650   5.725  1.00  0.00     0.185 C 
BRANCH   7   8
HETATM    8  C   UNL     1      44.971 -11.211   6.998  1.00  0.00     0.227 C 
HETATM    9  N   UNL     1      44.204 -11.124   8.134  1.00  0.00    -0.360 N 
HETATM   10  H   UNL     1      43.215 -11.359   8.085  1.00  0.00     0.162 HD
HETATM   11  O   UNL     1      46.149 -10.855   6.970  1.00  0.00    -0.273 OA
BRANCH   9  12
HETATM   12  C   UNL     1      44.669 -10.520   9.364  1.00  0.00     0.126 C 
BRANCH  12  13
HETATM   13  C   UNL     1      43.896  -9.235   9.705  1.00  0.00    -0.005 C 
HETATM   14  C   UNL     1      43.960  -8.909  11.200  1.00  0.00     0.011 C 
HETATM   15  C   UNL     1      44.448  -8.063   8.894  1.00  0.00     0.011 C 
ENDBRANCH  12  13
ENDBRANCH   9  12
ENDBRANCH   7   8
ENDBRANCH   6   7
ENDBRANCH   3   6
BRANCH   2  16
HETATM   16  C   UNL     1      42.247 -15.128   4.238  1.00  0.00     0.043 A 
HETATM   17  C   UNL     1      43.071 -14.678   3.199  1.00  0.00     0.030 A 
HETATM   18  C   UNL     1      42.623 -14.729   1.875  1.00  0.00     0.002 A 
HETATM   19  C   UNL     1      41.357 -15.230   1.581  1.00  0.00     0.000 A 
HETATM   20  C   UNL     1      40.534 -15.681   2.609  1.00  0.00     0.002 A 
HETATM   21  C   UNL     1      40.974 -15.631   3.933  1.00  0.00     0.030 A 
ENDBRANCH   2  16
BRANCH   1  22
HETATM   22  C   UNL     1      42.807 -17.603   6.168  1.00  0.00     0.256 C 
BRANCH  22  23
HETATM   23  O   UNL     1      43.989 -17.983   5.473  1.00  0.00    -0.343 OA
BRANCH  23  24
HETATM   24  C   UNL     1      43.815 -18.703   4.320  1.00  0.00     0.075 A 
HETATM   25  C   UNL     1      43.980 -20.096   4.430  1.00  0.00    -0.029 A 
HETATM   26  C   UNL     1      44.256 -20.755   5.752  1.00  0.00     0.051 C 
HETATM   27  C   UNL     1      43.802 -20.901   3.293  1.00  0.00     0.009 A 
HETATM   28  C   UNL     1      43.501 -20.329   2.057  1.00  0.00     0.001 A 
HETATM   29  C   UNL     1      43.366 -18.950   1.947  1.00  0.00     0.003 A 
HETATM   30  C   UNL     1      43.523 -18.139   3.073  1.00  0.00     0.037 A 
ENDBRANCH  23  24
ENDBRANCH  22  23
ENDBRANCH   1  22
TORSDOF 9
ENDMDL
MODEL 2
REMARK VINA RESULT:      -8.4      1.271      1.551
REMARK  9 active torsions:
REMARK  status: ('A' for Active; 'I' for Inactive)
REMARK    1  A    between atoms: C_3  and  O_4 
REMARK    2  A    between atoms: O_4  and  C_5 
REMARK    3  A    between atoms: C_5  and  C_6 
REMARK    4  A    between atoms: N_7  and  C_8 
REMARK    5  A    between atoms: C_14  and  S_15 
REMARK    6  A    between atoms: S_15  and  C_16 
REMARK    7  A    between atoms: C_16  and  C_17 
REMARK       I    between atoms: C_17  and  N_18 
REMARK    8  A    between atoms: N_18  and  C_19 
REMARK    9  A    between atoms: C_19  and  C_20 
ROOT
HETATM    1  C   UNL     1      43.011 -15.750   5.821  1.00  0.00     0.160 A 
HETATM    2  N   UNL     1      42.682 -14.830   4.825  1.00  0.00    -0.274 N 
HETATM    3  C   UNL     1      43.212 -13.641   5.305  1.00  0.00     0.196 A 
HETATM    4  N   UNL     1      43.821 -13.831   6.450  1.00  0.00    -0.122 NA
HETATM    5  N   UNL     1      43.685 -15.143   6.781  1.00  0.00    -0.131 NA
ENDROOT
BRANCH   3   6
HETATM    6  S   UNL     1      42.859 -12.043   4.720  1.00  0.00    -0.081 SA
BRANCH   6   7
HETATM    7  C   UNL     1      41.810 -11.435   6.071  1.00  0.00     0.185 C 
BRANCH   7   8
HETATM    8  C   UNL     1      42.528 -10.569   7.098  1.00  0.00     0.227 C 
HETATM    9  N   UNL     1      43.442 -11.199   7.906  1.00  0.00    -0.360 N 
HETATM   10  H   UNL     1      43.607 -12.197   7.785  1.00  0.00     0.162 HD
HETATM   11  O   UNL     1      42.217  -9.388   7.252  1.00  0.00    -0.273 OA
BRANCH   9  12
HETATM   12  C   UNL     1      44.044 -10.576   9.065  1.00  0.00     0.126 C 
BRANCH  12  13
HETATM   13  C   UNL     1      45.472 -10.082   8.779  1.00  0.00    -0.005 C 
HETATM   14  C   UNL     1      46.100 -10.807   7.586  1.00  0.00     0.011 C 
HETATM   15  C   UNL     1      45.461  -8.574   8.525  1.00  0.00     0.011 C 
ENDBRANCH  12  13
ENDBRANCH   9  12
ENDBRANCH   7   8
ENDBRANCH   6   7
ENDBRANCH   3   6
BRANCH   2  16
HETATM   16  C   UNL     1      41.957 -15.041   3.620  1.00  0.00     0.043 A 
HETATM   17  C   UNL     1      42.569 -14.866   2.373  1.00  0.00     0.030 A 
HETATM   18  C   UNL     1      41.844 -15.083   1.197  1.00  0.00     0.002 A 
HETATM   19  C   UNL     1      40.509 -15.476   1.257  1.00  0.00     0.000 A 
HETATM   20  C   UNL     1      39.895 -15.654   2.494  1.00  0.00     0.002 A 
HETATM   21  C   UNL     1      40.613 -15.437   3.672  1.00  0.00     0.030 A 
ENDBRANCH   2  16
BRANCH   1  22
HETATM   22  C   UNL     1      42.750 -17.216   5.810  1.00  0.00     0.256 C 
BRANCH  22  23
HETATM   23  O   UNL     1      43.926 -17.863   5.337  1.00  0.00    -0.343 OA
BRANCH  23  24
HETATM   24  C   UNL     1      43.788 -18.636   4.214  1.00  0.00     0.075 A 
HETATM   25  C   UNL     1      43.957 -20.021   4.392  1.00  0.00    -0.029 A 
HETATM   26  C   UNL     1      44.200 -20.618   5.750  1.00  0.00     0.051 C 
HETATM   27  C   UNL     1      43.816 -20.878   3.288  1.00  0.00     0.009 A 
HETATM   28  C   UNL     1      43.547 -20.365   2.020  1.00  0.00     0.001 A 
HETATM   29  C   UNL     1      43.407 -18.993   1.843  1.00  0.00     0.003 A 
HETATM   30  C   UNL     1      43.528 -18.131   2.935  1.00  0.00     0.037 A 
ENDBRANCH  23  24
ENDBRANCH  22  23
ENDBRANCH   1  22
TORSDOF 9
ENDMDL
MODEL 3
REMARK VINA RESULT:      -8.3      3.481      6.977
REMARK  9 active torsions:
REMARK  status: ('A' for Active; 'I' for Inactive)
REMARK    1  A    between atoms: C_3  and  O_4 
REMARK    2  A    between atoms: O_4  and  C_5 
REMARK    3  A    between atoms: C_5  and  C_6 
REMARK    4  A    between atoms: N_7  and  C_8 
REMARK    5  A    between atoms: C_14  and  S_15 
REMARK    6  A    between atoms: S_15  and  C_16 
REMARK    7  A    between atoms: C_16  and  C_17 
REMARK       I    between atoms: C_17  and  N_18 
REMARK    8  A    between atoms: N_18  and  C_19 
REMARK    9  A    between atoms: C_19  and  C_20 
ROOT
HETATM    1  C   UNL     1      42.074 -15.717   2.541  1.00  0.00     0.160 A 
HETATM    2  N   UNL     1      41.697 -14.523   3.156  1.00  0.00    -0.274 N 
HETATM    3  C   UNL     1      40.330 -14.469   2.932  1.00  0.00     0.196 A 
HETATM    4  N   UNL     1      39.922 -15.531   2.280  1.00  0.00    -0.122 NA
HETATM    5  N   UNL     1      41.010 -16.305   2.023  1.00  0.00    -0.131 NA
ENDROOT
BRANCH   3   6
HETATM    6  S   UNL     1      39.305 -13.080   3.134  1.00  0.00    -0.081 SA
BRANCH   6   7
HETATM    7  C   UNL     1      39.944 -12.018   1.806  1.00  0.00     0.185 C 
BRANCH   7   8
HETATM    8  C   UNL     1      40.192 -12.729   0.483  1.00  0.00     0.227 C 
HETATM    9  N   UNL     1      39.131 -13.412  -0.060  1.00  0.00    -0.360 N 
HETATM   10  H   UNL     1      38.237 -13.410   0.429  1.00  0.00     0.162 HD
HETATM   11  O   UNL     1      41.320 -12.767  -0.009  1.00  0.00    -0.273 OA
BRANCH   9  12
HETATM   12  C   UNL     1      39.255 -14.311  -1.186  1.00  0.00     0.126 C 
BRANCH  12  13
HETATM   13  C   UNL     1      38.559 -13.762  -2.443  1.00  0.00    -0.005 C 
HETATM   14  C   UNL     1      39.387 -12.671  -3.126  1.00  0.00     0.011 C 
HETATM   15  C   UNL     1      38.287 -14.901  -3.427  1.00  0.00     0.011 C 
ENDBRANCH  12  13
ENDBRANCH   9  12
ENDBRANCH   7   8
ENDBRANCH   6   7
ENDBRANCH   3   6
BRANCH   2  16
HETATM   16  C   UNL     1      42.512 -13.570   3.828  1.00  0.00     0.043 A 
HETATM   17  C   UNL     1      43.215 -12.593   3.111  1.00  0.00     0.030 A 
HETATM   18  C   UNL     1      44.007 -11.660   3.786  1.00  0.00     0.002 A 
HETATM   19  C   UNL     1      44.101 -11.693   5.176  1.00  0.00     0.000 A 
HETATM   20  C   UNL     1      43.404 -12.660   5.895  1.00  0.00     0.002 A 
HETATM   21  C   UNL     1      42.612 -13.596   5.226  1.00  0.00     0.030 A 
ENDBRANCH   2  16
BRANCH   1  22
HETATM   22  C   UNL     1      43.432 -16.329   2.523  1.00  0.00     0.256 C 
BRANCH  22  23
HETATM   23  O   UNL     1      43.280 -17.715   2.240  1.00  0.00    -0.343 OA
BRANCH  23  24
HETATM   24  C   UNL     1      43.537 -18.582   3.271  1.00  0.00     0.075 A 
HETATM   25  C   UNL     1      43.627 -19.942   2.927  1.00  0.00    -0.029 A 
HETATM   26  C   UNL     1      43.522 -20.404   1.500  1.00  0.00     0.051 C 
HETATM   27  C   UNL     1      43.904 -20.887   3.929  1.00  0.00     0.009 A 
HETATM   28  C   UNL     1      44.053 -20.491   5.257  1.00  0.00     0.001 A 
HETATM   29  C   UNL     1      43.935 -19.148   5.597  1.00  0.00     0.003 A 
HETATM   30  C   UNL     1      43.677 -18.196   4.608  1.00  0.00     0.037 A 
ENDBRANCH  23  24
ENDBRANCH  22  23
ENDBRANCH   1  22
TORSDOF 9
ENDMDL
MODEL 4
REMARK VINA RESULT:      -8.2      3.904      7.184
REMARK  9 active torsions:
REMARK  status: ('A' for Active; 'I' for Inactive)
REMARK    1  A    between atoms: C_3  and  O_4 
REMARK    2  A    between atoms: O_4  and  C_5 
REMARK    3  A    between atoms: C_5  and  C_6 
REMARK    4  A    between atoms: N_7  and  C_8 
REMARK    5  A    between atoms: C_14  and  S_15 
REMARK    6  A    between atoms: S_15  and  C_16 
REMARK    7  A    between atoms: C_16  and  C_17 
REMARK       I    between atoms: C_17  and  N_18 
REMARK    8  A    between atoms: N_18  and  C_19 
REMARK    9  A    between atoms: C_19  and  C_20 
ROOT
HETATM    1  C   UNL     1      42.348 -15.510   1.936  1.00  0.00     0.160 A 
HETATM    2  N   UNL     1      41.527 -15.001   2.943  1.00  0.00    -0.274 N 
HETATM    3  C   UNL     1      40.545 -14.322   2.239  1.00  0.00     0.196 A 
HETATM    4  N   UNL     1      40.735 -14.435   0.947  1.00  0.00    -0.122 NA
HETATM    5  N   UNL     1      41.866 -15.164   0.755  1.00  0.00    -0.131 NA
ENDROOT
BRANCH   3   6
HETATM    6  S   UNL     1      39.411 -13.177   2.892  1.00  0.00    -0.081 SA
BRANCH   6   7
HETATM    7  C   UNL     1      39.521 -11.871   1.635  1.00  0.00     0.185 C 
BRANCH   7   8
HETATM    8  C   UNL     1      38.491 -11.971   0.518  1.00  0.00     0.227 C 
HETATM    9  N   UNL     1      38.769 -12.847  -0.502  1.00  0.00    -0.360 N 
HETATM   10  H   UNL     1      39.629 -13.390  -0.469  1.00  0.00     0.162 HD
HETATM   11  O   UNL     1      37.515 -11.220   0.494  1.00  0.00    -0.273 OA
BRANCH   9  12
HETATM   12  C   UNL     1      38.011 -12.901  -1.733  1.00  0.00     0.126 C 
BRANCH  12  13
HETATM   13  C   UNL     1      38.815 -13.540  -2.879  1.00  0.00    -0.005 C 
HETATM   14  C   UNL     1      40.287 -13.121  -2.848  1.00  0.00     0.011 C 
HETATM   15  C   UNL     1      38.705 -15.063  -2.806  1.00  0.00     0.011 C 
ENDBRANCH  12  13
ENDBRANCH   9  12
ENDBRANCH   7   8
ENDBRANCH   6   7
ENDBRANCH   3   6
BRANCH   2  16
HETATM   16  C   UNL     1      41.669 -15.121   4.354  1.00  0.00     0.043 A 
HETATM   17  C   UNL     1      42.662 -14.409   5.039  1.00  0.00     0.030 A 
HETATM   18  C   UNL     1      42.784 -14.532   6.426  1.00  0.00     0.002 A 
HETATM   19  C   UNL     1      41.919 -15.361   7.137  1.00  0.00     0.000 A 
HETATM   20  C   UNL     1      40.928 -16.070   6.462  1.00  0.00     0.002 A 
HETATM   21  C   UNL     1      40.802 -15.952   5.076  1.00  0.00     0.030 A 
ENDBRANCH   2  16
BRANCH   1  22
HETATM   22  C   UNL     1      43.538 -16.389   2.105  1.00  0.00     0.256 C 
BRANCH  22  23
HETATM   23  O   UNL     1      43.091 -17.739   2.053  1.00  0.00    -0.343 OA
BRANCH  23  24
HETATM   24  C   UNL     1      43.438 -18.539   3.111  1.00  0.00     0.075 A 
HETATM   25  C   UNL     1      43.561 -19.912   2.834  1.00  0.00    -0.029 A 
HETATM   26  C   UNL     1      43.393 -20.454   1.442  1.00  0.00     0.051 C 
HETATM   27  C   UNL     1      43.929 -20.791   3.866  1.00  0.00     0.009 A 
HETATM   28  C   UNL     1      44.137 -20.319   5.161  1.00  0.00     0.001 A 
HETATM   29  C   UNL     1      43.988 -18.964   5.437  1.00  0.00     0.003 A 
HETATM   30  C   UNL     1      43.639 -18.077   4.417  1.00  0.00     0.037 A 
ENDBRANCH  23  24
ENDBRANCH  22  23
ENDBRANCH   1  22
TORSDOF 9
ENDMDL
MODEL 5
REMARK VINA RESULT:      -8.2      3.754      7.105
REMARK  9 active torsions:
REMARK  status: ('A' for Active; 'I' for Inactive)
REMARK    1  A    between atoms: C_3  and  O_4 
REMARK    2  A    between atoms: O_4  and  C_5 
REMARK    3  A    between atoms: C_5  and  C_6 
REMARK    4  A    between atoms: N_7  and  C_8 
REMARK    5  A    between atoms: C_14  and  S_15 
REMARK    6  A    between atoms: S_15  and  C_16 
REMARK    7  A    between atoms: C_16  and  C_17 
REMARK       I    between atoms: C_17  and  N_18 
REMARK    8  A    between atoms: N_18  and  C_19 
REMARK    9  A    between atoms: C_19  and  C_20 
ROOT
HETATM    1  C   UNL     1      41.885 -15.441   1.984  1.00  0.00     0.160 A 
HETATM    2  N   UNL     1      41.528 -14.298   2.700  1.00  0.00    -0.274 N 
HETATM    3  C   UNL     1      40.182 -14.146   2.405  1.00  0.00     0.196 A 
HETATM    4  N   UNL     1      39.764 -15.112   1.621  1.00  0.00    -0.122 NA
HETATM    5  N   UNL     1      40.827 -15.913   1.346  1.00  0.00    -0.131 NA
ENDROOT
BRANCH   3   6
HETATM    6  S   UNL     1      39.214 -12.732   2.695  1.00  0.00    -0.081 SA
BRANCH   6   7
HETATM    7  C   UNL     1      39.910 -11.611   1.447  1.00  0.00     0.185 C 
BRANCH   7   8
HETATM    8  C   UNL     1      39.233 -11.672   0.084  1.00  0.00     0.227 C 
HETATM    9  N   UNL     1      38.663 -12.870  -0.269  1.00  0.00    -0.360 N 
HETATM   10  H   UNL     1      38.706 -13.652   0.382  1.00  0.00     0.162 HD
HETATM   11  O   UNL     1      39.294 -10.717  -0.691  1.00  0.00    -0.273 OA
BRANCH   9  12
HETATM   12  C   UNL     1      38.177 -13.158  -1.601  1.00  0.00     0.126 C 
BRANCH  12  13
HETATM   13  C   UNL     1      38.989 -14.271  -2.285  1.00  0.00    -0.005 C 
HETATM   14  C   UNL     1      38.257 -14.851  -3.497  1.00  0.00     0.011 C 
HETATM   15  C   UNL     1      40.355 -13.732  -2.711  1.00  0.00     0.011 C 
ENDBRANCH  12  13
ENDBRANCH   9  12
ENDBRANCH   7   8
ENDBRANCH   6   7
ENDBRANCH   3   6
BRANCH   2  16
HETATM   16  C   UNL     1      42.345 -13.465   3.515  1.00  0.00     0.043 A 
HETATM   17  C   UNL     1      43.127 -12.451   2.949  1.00  0.00     0.030 A 
HETATM   18  C   UNL     1      43.920 -11.638   3.764  1.00  0.00     0.002 A 
HETATM   19  C   UNL     1      43.935 -11.828   5.144  1.00  0.00     0.000 A 
HETATM   20  C   UNL     1      43.158 -12.833   5.713  1.00  0.00     0.002 A 
HETATM   21  C   UNL     1      42.365 -13.650   4.904  1.00  0.00     0.030 A 
ENDBRANCH   2  16
BRANCH   1  22
HETATM   22  C   UNL     1      43.210 -16.121   1.978  1.00  0.00     0.256 C 
BRANCH  22  23
HETATM   23  O   UNL     1      43.400 -16.711   3.259  1.00  0.00    -0.343 OA
BRANCH  23  24
HETATM   24  C   UNL     1      43.526 -18.076   3.290  1.00  0.00     0.075 A 
HETATM   25  C   UNL     1      43.942 -18.631   4.514  1.00  0.00    -0.029 A 
HETATM   26  C   UNL     1      44.162 -17.778   5.732  1.00  0.00     0.051 C 
HETATM   27  C   UNL     1      44.077 -20.024   4.625  1.00  0.00     0.009 A 
HETATM   28  C   UNL     1      43.839 -20.852   3.529  1.00  0.00     0.001 A 
HETATM   29  C   UNL     1      43.454 -20.297   2.314  1.00  0.00     0.003 A 
HETATM   30  C   UNL     1      43.298 -18.915   2.193  1.00  0.00     0.037 A 
ENDBRANCH  23  24
ENDBRANCH  22  23
ENDBRANCH   1  22
TORSDOF 9
ENDMDL
MODEL 6
REMARK VINA RESULT:      -8.1      1.069      1.825
REMARK  9 active torsions:
REMARK  status: ('A' for Active; 'I' for Inactive)
REMARK    1  A    between atoms: C_3  and  O_4 
REMARK    2  A    between atoms: O_4  and  C_5 
REMARK    3  A    between atoms: C_5  and  C_6 
REMARK    4  A    between atoms: N_7  and  C_8 
REMARK    5  A    between atoms: C_14  and  S_15 
REMARK    6  A    between atoms: S_15  and  C_16 
REMARK    7  A    between atoms: C_16  and  C_17 
REMARK       I    between atoms: C_17  and  N_18 
REMARK    8  A    between atoms: N_18  and  C_19 
REMARK    9  A    between atoms: C_19  and  C_20 
ROOT
HETATM    1  C   UNL     1      42.850 -15.404   6.195  1.00  0.00     0.160 A 
HETATM    2  N   UNL     1      42.635 -14.211   5.505  1.00  0.00    -0.274 N 
HETATM    3  C   UNL     1      43.037 -13.242   6.413  1.00  0.00     0.196 A 
HETATM    4  N   UNL     1      43.477 -13.794   7.518  1.00  0.00    -0.122 NA
HETATM    5  N   UNL     1      43.349 -15.142   7.390  1.00  0.00    -0.131 NA
ENDROOT
BRANCH   3   6
HETATM    6  S   UNL     1      42.709 -11.539   6.318  1.00  0.00    -0.081 SA
BRANCH   6   7
HETATM    7  C   UNL     1      44.337 -10.877   6.777  1.00  0.00     0.185 C 
BRANCH   7   8
HETATM    8  C   UNL     1      44.617 -10.851   8.274  1.00  0.00     0.227 C 
HETATM    9  N   UNL     1      43.536 -10.676   9.102  1.00  0.00    -0.360 N 
HETATM   10  H   UNL     1      42.608 -10.581   8.694  1.00  0.00     0.162 HD
HETATM   11  O   UNL     1      45.773 -10.882   8.697  1.00  0.00    -0.273 OA
BRANCH   9  12
HETATM   12  C   UNL     1      43.654 -10.412  10.519  1.00  0.00     0.126 C 
BRANCH  12  13
HETATM   13  C   UNL     1      43.898  -8.922  10.813  1.00  0.00    -0.005 C 
HETATM   14  C   UNL     1      43.212  -8.017   9.785  1.00  0.00     0.011 C 
HETATM   15  C   UNL     1      43.404  -8.580  12.219  1.00  0.00     0.011 C 
ENDBRANCH  12  13
ENDBRANCH   9  12
ENDBRANCH   7   8
ENDBRANCH   6   7
ENDBRANCH   3   6
BRANCH   2  16
HETATM   16  C   UNL     1      42.106 -14.019   4.198  1.00  0.00     0.043 A 
HETATM   17  C   UNL     1      42.947 -13.714   3.121  1.00  0.00     0.030 A 
HETATM   18  C   UNL     1      42.412 -13.534   1.841  1.00  0.00     0.002 A 
HETATM   19  C   UNL     1      41.041 -13.659   1.629  1.00  0.00     0.000 A 
HETATM   20  C   UNL     1      40.199 -13.963   2.696  1.00  0.00     0.002 A 
HETATM   21  C   UNL     1      40.727 -14.143   3.976  1.00  0.00     0.030 A 
ENDBRANCH   2  16
BRANCH   1  22
HETATM   22  C   UNL     1      42.655 -16.788   5.679  1.00  0.00     0.256 C 
BRANCH  22  23
HETATM   23  O   UNL     1      43.774 -17.107   4.860  1.00  0.00    -0.343 OA
BRANCH  23  24
HETATM   24  C   UNL     1      43.789 -18.361   4.306  1.00  0.00     0.075 A 
HETATM   25  C   UNL     1      43.441 -18.440   2.946  1.00  0.00    -0.029 A 
HETATM   26  C   UNL     1      43.144 -17.210   2.134  1.00  0.00     0.051 C 
HETATM   27  C   UNL     1      43.449 -19.690   2.306  1.00  0.00     0.009 A 
HETATM   28  C   UNL     1      43.762 -20.849   3.015  1.00  0.00     0.001 A 
HETATM   29  C   UNL     1      44.079 -20.770   4.366  1.00  0.00     0.003 A 
HETATM   30  C   UNL     1      44.092 -19.531   5.011  1.00  0.00     0.037 A 
ENDBRANCH  23  24
ENDBRANCH  22  23
ENDBRANCH   1  22
TORSDOF 9
ENDMDL
MODEL 7
REMARK VINA RESULT:      -7.9      3.180      4.620
REMARK  9 active torsions:
REMARK  status: ('A' for Active; 'I' for Inactive)
REMARK    1  A    between atoms: C_3  and  O_4 
REMARK    2  A    between atoms: O_4  and  C_5 
REMARK    3  A    between atoms: C_5  and  C_6 
REMARK    4  A    between atoms: N_7  and  C_8 
REMARK    5  A    between atoms: C_14  and  S_15 
REMARK    6  A    between atoms: S_15  and  C_16 
REMARK    7  A    between atoms: C_16  and  C_17 
REMARK       I    between atoms: C_17  and  N_18 
REMARK    8  A    between atoms: N_18  and  C_19 
REMARK    9  A    between atoms: C_19  and  C_20 
ROOT
HETATM    1  C   UNL     1      43.508 -16.006   5.971  1.00  0.00     0.160 A 
HETATM    2  N   UNL     1      42.492 -15.314   5.312  1.00  0.00    -0.274 N 
HETATM    3  C   UNL     1      41.845 -14.644   6.340  1.00  0.00     0.196 A 
HETATM    4  N   UNL     1      42.428 -14.882   7.490  1.00  0.00    -0.122 NA
HETATM    5  N   UNL     1      43.457 -15.742   7.265  1.00  0.00    -0.131 NA
ENDROOT
BRANCH   3   6
HETATM    6  S   UNL     1      40.288 -13.878   6.254  1.00  0.00    -0.081 SA
BRANCH   6   7
HETATM    7  C   UNL     1      40.744 -12.323   5.436  1.00  0.00     0.185 C 
BRANCH   7   8
HETATM    8  C   UNL     1      39.776 -11.861   4.355  1.00  0.00     0.227 C 
HETATM    9  N   UNL     1      39.583 -12.710   3.294  1.00  0.00    -0.360 N 
HETATM   10  H   UNL     1      40.077 -13.601   3.275  1.00  0.00     0.162 HD
HETATM   11  O   UNL     1      39.280 -10.734   4.395  1.00  0.00    -0.273 OA
BRANCH   9  12
HETATM   12  C   UNL     1      38.874 -12.334   2.091  1.00  0.00     0.126 C 
BRANCH  12  13
HETATM   13  C   UNL     1      39.808 -12.243   0.873  1.00  0.00    -0.005 C 
HETATM   14  C   UNL     1      39.045 -12.397  -0.445  1.00  0.00     0.011 C 
HETATM   15  C   UNL     1      40.556 -10.909   0.889  1.00  0.00     0.011 C 
ENDBRANCH  12  13
ENDBRANCH   9  12
ENDBRANCH   7   8
ENDBRANCH   6   7
ENDBRANCH   3   6
BRANCH   2  16
HETATM   16  C   UNL     1      42.169 -15.310   3.926  1.00  0.00     0.043 A 
HETATM   17  C   UNL     1      42.932 -14.570   3.014  1.00  0.00     0.030 A 
HETATM   18  C   UNL     1      42.605 -14.581   1.654  1.00  0.00     0.002 A 
HETATM   19  C   UNL     1      41.522 -15.329   1.197  1.00  0.00     0.000 A 
HETATM   20  C   UNL     1      40.761 -16.068   2.099  1.00  0.00     0.002 A 
HETATM   21  C   UNL     1      41.081 -16.060   3.459  1.00  0.00     0.030 A 
ENDBRANCH   2  16
BRANCH   1  22
HETATM   22  C   UNL     1      44.568 -16.850   5.353  1.00  0.00     0.256 C 
BRANCH  22  23
HETATM   23  O   UNL     1      44.152 -18.207   5.446  1.00  0.00    -0.343 OA
BRANCH  23  24
HETATM   24  C   UNL     1      43.949 -18.867   4.262  1.00  0.00     0.075 A 
HETATM   25  C   UNL     1      43.988 -20.272   4.322  1.00  0.00    -0.029 A 
HETATM   26  C   UNL     1      44.168 -21.001   5.624  1.00  0.00     0.051 C 
HETATM   27  C   UNL     1      43.773 -21.016   3.150  1.00  0.00     0.009 A 
HETATM   28  C   UNL     1      43.558 -20.376   1.931  1.00  0.00     0.001 A 
HETATM   29  C   UNL     1      43.547 -18.986   1.871  1.00  0.00     0.003 A 
HETATM   30  C   UNL     1      43.742 -18.234   3.031  1.00  0.00     0.037 A 
ENDBRANCH  23  24
ENDBRANCH  22  23
ENDBRANCH   1  22
TORSDOF 9
ENDMDL
MODEL 8
REMARK VINA RESULT:      -7.8      4.123      7.536
REMARK  9 active torsions:
REMARK  status: ('A' for Active; 'I' for Inactive)
REMARK    1  A    between atoms: C_3  and  O_4 
REMARK    2  A    between atoms: O_4  and  C_5 
REMARK    3  A    between atoms: C_5  and  C_6 
REMARK    4  A    between atoms: N_7  and  C_8 
REMARK    5  A    between atoms: C_14  and  S_15 
REMARK    6  A    between atoms: S_15  and  C_16 
REMARK    7  A    between atoms: C_16  and  C_17 
REMARK       I    between atoms: C_17  and  N_18 
REMARK    8  A    between atoms: N_18  and  C_19 
REMARK    9  A    between atoms: C_19  and  C_20 
ROOT
HETATM    1  C   UNL     1      40.041 -13.394   5.098  1.00  0.00     0.160 A 
HETATM    2  N   UNL     1      40.618 -13.447   3.828  1.00  0.00    -0.274 N 
HETATM    3  C   UNL     1      40.280 -12.221   3.275  1.00  0.00     0.196 A 
HETATM    4  N   UNL     1      39.600 -11.496   4.130  1.00  0.00    -0.122 NA
HETATM    5  N   UNL     1      39.437 -12.230   5.263  1.00  0.00    -0.131 NA
ENDROOT
BRANCH   3   6
HETATM    6  S   UNL     1      40.391 -11.780   1.598  1.00  0.00    -0.081 SA
BRANCH   6   7
HETATM    7  C   UNL     1      38.637 -11.856   1.134  1.00  0.00     0.185 C 
BRANCH   7   8
HETATM    8  C   UNL     1      38.362 -11.692  -0.355  1.00  0.00     0.227 C 
HETATM    9  N   UNL     1      37.976 -12.818  -1.040  1.00  0.00    -0.360 N 
HETATM   10  H   UNL     1      37.882 -13.698  -0.536  1.00  0.00     0.162 HD
HETATM   11  O   UNL     1      38.581 -10.620  -0.920  1.00  0.00    -0.273 OA
BRANCH   9  12
HETATM   12  C   UNL     1      37.889 -12.882  -2.482  1.00  0.00     0.126 C 
BRANCH  12  13
HETATM   13  C   UNL     1      38.949 -13.820  -3.085  1.00  0.00    -0.005 C 
HETATM   14  C   UNL     1      40.367 -13.268  -2.908  1.00  0.00     0.011 C 
HETATM   15  C   UNL     1      38.846 -15.204  -2.443  1.00  0.00     0.011 C 
ENDBRANCH  12  13
ENDBRANCH   9  12
ENDBRANCH   7   8
ENDBRANCH   6   7
ENDBRANCH   3   6
BRANCH   2  16
HETATM   16  C   UNL     1      41.353 -14.506   3.226  1.00  0.00     0.043 A 
HETATM   17  C   UNL     1      40.731 -15.720   2.906  1.00  0.00     0.030 A 
HETATM   18  C   UNL     1      41.466 -16.749   2.309  1.00  0.00     0.002 A 
HETATM   19  C   UNL     1      42.819 -16.574   2.027  1.00  0.00     0.000 A 
HETATM   20  C   UNL     1      43.442 -15.369   2.341  1.00  0.00     0.002 A 
HETATM   21  C   UNL     1      42.714 -14.338   2.939  1.00  0.00     0.030 A 
ENDBRANCH   2  16
BRANCH   1  22
HETATM   22  C   UNL     1      40.138 -14.421   6.172  1.00  0.00     0.256 C 
BRANCH  22  23
HETATM   23  O   UNL     1      41.419 -14.294   6.779  1.00  0.00    -0.343 OA
BRANCH  23  24
HETATM   24  C   UNL     1      42.331 -15.277   6.494  1.00  0.00     0.075 A 
HETATM   25  C   UNL     1      43.676 -14.870   6.421  1.00  0.00    -0.029 A 
HETATM   26  C   UNL     1      44.089 -13.455   6.713  1.00  0.00     0.051 C 
HETATM   27  C   UNL     1      44.668 -15.826   6.148  1.00  0.00     0.009 A 
HETATM   28  C   UNL     1      44.328 -17.158   5.915  1.00  0.00     0.001 A 
HETATM   29  C   UNL     1      42.995 -17.550   5.961  1.00  0.00     0.003 A 
HETATM   30  C   UNL     1      41.999 -16.614   6.249  1.00  0.00     0.037 A 
ENDBRANCH  23  24
ENDBRANCH  22  23
ENDBRANCH   1  22
TORSDOF 9
ENDMDL
MODEL 9
REMARK VINA RESULT:      -7.7      2.277      3.619
REMARK  9 active torsions:
REMARK  status: ('A' for Active; 'I' for Inactive)
REMARK    1  A    between atoms: C_3  and  O_4 
REMARK    2  A    between atoms: O_4  and  C_5 
REMARK    3  A    between atoms: C_5  and  C_6 
REMARK    4  A    between atoms: N_7  and  C_8 
REMARK    5  A    between atoms: C_14  and  S_15 
REMARK    6  A    between atoms: S_15  and  C_16 
REMARK    7  A    between atoms: C_16  and  C_17 
REMARK       I    between atoms: C_17  and  N_18 
REMARK    8  A    between atoms: N_18  and  C_19 
REMARK    9  A    between atoms: C_19  and  C_20 
ROOT
HETATM    1  C   UNL     1      41.854 -14.961   2.349  1.00  0.00     0.160 A 
HETATM    2  N   UNL     1      41.983 -14.109   3.447  1.00  0.00    -0.274 N 
HETATM    3  C   UNL     1      41.796 -12.851   2.895  1.00  0.00     0.196 A 
HETATM    4  N   UNL     1      41.549 -12.937   1.610  1.00  0.00    -0.122 NA
HETATM    5  N   UNL     1      41.599 -14.251   1.264  1.00  0.00    -0.131 NA
ENDROOT
BRANCH   3   6
HETATM    6  S   UNL     1      42.167 -11.328   3.647  1.00  0.00    -0.081 SA
BRANCH   6   7
HETATM    7  C   UNL     1      40.927 -11.320   4.974  1.00  0.00     0.185 C 
BRANCH   7   8
HETATM    8  C   UNL     1      41.370 -10.633   6.258  1.00  0.00     0.227 C 
HETATM    9  N   UNL     1      42.712 -10.663   6.543  1.00  0.00    -0.360 N 
HETATM   10  H   UNL     1      43.347 -11.126   5.895  1.00  0.00     0.162 HD
HETATM   11  O   UNL     1      40.541 -10.170   7.042  1.00  0.00    -0.273 OA
BRANCH   9  12
HETATM   12  C   UNL     1      43.266 -10.254   7.816  1.00  0.00     0.126 C 
BRANCH  12  13
HETATM   13  C   UNL     1      44.619 -10.928   8.102  1.00  0.00    -0.005 C 
HETATM   14  C   UNL     1      45.490 -11.017   6.846  1.00  0.00     0.011 C 
HETATM   15  C   UNL     1      45.361 -10.161   9.197  1.00  0.00     0.011 C 
ENDBRANCH  12  13
ENDBRANCH   9  12
ENDBRANCH   7   8
ENDBRANCH   6   7
ENDBRANCH   3   6
BRANCH   2  16
HETATM   16  C   UNL     1      42.266 -14.437   4.802  1.00  0.00     0.043 A 
HETATM   17  C   UNL     1      43.428 -13.969   5.426  1.00  0.00     0.030 A 
HETATM   18  C   UNL     1      43.689 -14.296   6.761  1.00  0.00     0.002 A 
HETATM   19  C   UNL     1      42.794 -15.086   7.478  1.00  0.00     0.000 A 
HETATM   20  C   UNL     1      41.635 -15.554   6.864  1.00  0.00     0.002 A 
HETATM   21  C   UNL     1      41.370 -15.232   5.531  1.00  0.00     0.030 A 
ENDBRANCH   2  16
BRANCH   1  22
HETATM   22  C   UNL     1      41.896 -16.450   2.357  1.00  0.00     0.256 C 
BRANCH  22  23
HETATM   23  O   UNL     1      43.209 -16.845   2.738  1.00  0.00    -0.343 OA
BRANCH  23  24
HETATM   24  C   UNL     1      43.407 -18.185   2.947  1.00  0.00     0.075 A 
HETATM   25  C   UNL     1      44.028 -18.537   4.159  1.00  0.00    -0.029 A 
HETATM   26  C   UNL     1      44.382 -17.504   5.192  1.00  0.00     0.051 C 
HETATM   27  C   UNL     1      44.249 -19.893   4.449  1.00  0.00     0.009 A 
HETATM   28  C   UNL     1      43.894 -20.883   3.534  1.00  0.00     0.001 A 
HETATM   29  C   UNL     1      43.306 -20.529   2.325  1.00  0.00     0.003 A 
HETATM   30  C   UNL     1      43.063 -19.186   2.031  1.00  0.00     0.037 A 
ENDBRANCH  23  24
ENDBRANCH  22  23
ENDBRANCH   1  22
TORSDOF 9
ENDMDL
MODEL 10
REMARK VINA RESULT:      -7.7      2.532      4.045
REMARK  9 active torsions:
REMARK  status: ('A' for Active; 'I' for Inactive)
REMARK    1  A    between atoms: C_3  and  O_4 
REMARK    2  A    between atoms: O_4  and  C_5 
REMARK    3  A    between atoms: C_5  and  C_6 
REMARK    4  A    between atoms: N_7  and  C_8 
REMARK    5  A    between atoms: C_14  and  S_15 
REMARK    6  A    between atoms: S_15  and  C_16 
REMARK    7  A    between atoms: C_16  and  C_17 
REMARK       I    between atoms: C_17  and  N_18 
REMARK    8  A    between atoms: N_18  and  C_19 
REMARK    9  A    between atoms: C_19  and  C_20 
ROOT
HETATM    1  C   UNL     1      42.225 -12.095   3.717  1.00  0.00     0.160 A 
HETATM    2  N   UNL     1      42.534 -12.729   4.920  1.00  0.00    -0.274 N 
HETATM    3  C   UNL     1      43.461 -11.875   5.500  1.00  0.00     0.196 A 
HETATM    4  N   UNL     1      43.664 -10.824   4.742  1.00  0.00    -0.122 NA
HETATM    5  N   UNL     1      42.905 -10.965   3.623  1.00  0.00    -0.131 NA
ENDROOT
BRANCH   3   6
HETATM    6  S   UNL     1      44.502 -12.240   6.842  1.00  0.00    -0.081 SA
BRANCH   6   7
HETATM    7  C   UNL     1      45.754 -10.941   6.634  1.00  0.00     0.185 C 
BRANCH   7   8
HETATM    8  C   UNL     1      45.990 -10.077   7.866  1.00  0.00     0.227 C 
HETATM    9  N   UNL     1      45.354 -10.461   9.020  1.00  0.00    -0.360 N 
HETATM   10  H   UNL     1      44.768 -11.294   9.011  1.00  0.00     0.162 HD
HETATM   11  O   UNL     1      46.637  -9.033   7.786  1.00  0.00    -0.273 OA
BRANCH   9  12
HETATM   12  C   UNL     1      45.297  -9.638  10.209  1.00  0.00     0.126 C 
BRANCH  12  13
HETATM   13  C   UNL     1      43.890  -9.617  10.831  1.00  0.00    -0.005 C 
HETATM   14  C   UNL     1      42.796  -9.500   9.767  1.00  0.00     0.011 C 
HETATM   15  C   UNL     1      43.671 -10.879  11.666  1.00  0.00     0.011 C 
ENDBRANCH  12  13
ENDBRANCH   9  12
ENDBRANCH   7   8
ENDBRANCH   6   7
ENDBRANCH   3   6
BRANCH   2  16
HETATM   16  C   UNL     1      42.047 -13.966   5.427  1.00  0.00     0.043 A 
HETATM   17  C   UNL     1      42.863 -15.103   5.453  1.00  0.00     0.030 A 
HETATM   18  C   UNL     1      42.370 -16.310   5.961  1.00  0.00     0.002 A 
HETATM   19  C   UNL     1      41.067 -16.388   6.446  1.00  0.00     0.000 A 
HETATM   20  C   UNL     1      40.251 -15.260   6.425  1.00  0.00     0.002 A 
HETATM   21  C   UNL     1      40.736 -14.053   5.918  1.00  0.00     0.030 A 
ENDBRANCH   2  16
BRANCH   1  22
HETATM   22  C   UNL     1      41.224 -12.530   2.703  1.00  0.00     0.256 C 
BRANCH  22  23
HETATM   23  O   UNL     1      41.922 -13.216   1.671  1.00  0.00    -0.343 OA
BRANCH  23  24
HETATM   24  C   UNL     1      42.168 -14.549   1.880  1.00  0.00     0.075 A 
HETATM   25  C   UNL     1      41.050 -15.341   2.198  1.00  0.00    -0.029 A 
HETATM   26  C   UNL     1      39.661 -14.768   2.232  1.00  0.00     0.051 C 
HETATM   27  C   UNL     1      41.223 -16.718   2.411  1.00  0.00     0.009 A 
HETATM   28  C   UNL     1      42.490 -17.295   2.345  1.00  0.00     0.001 A 
HETATM   29  C   UNL     1      43.596 -16.503   2.057  1.00  0.00     0.003 A 
HETATM   30  C   UNL     1      43.437 -15.135   1.826  1.00  0.00     0.037 A 
ENDBRANCH  23  24
ENDBRANCH  22  23
ENDBRANCH   1  22
TORSDOF 9
ENDMDL
