MODEL 1
REMARK VINA RESULT:      -9.1      0.000      0.000
REMARK  8 active torsions:
REMARK  status: ('A' for Active; 'I' for Inactive)
REMARK    1  A    between atoms: C_2  and  O_3 
REMARK    2  A    between atoms: O_3  and  C_4 
REMARK    3  A    between atoms: C_5  and  C_6 
REMARK    4  A    between atoms: C_6  and  N_7 
REMARK    5  A    between atoms: C_9  and  C_10 
REMARK    6  A    between atoms: C_10  and  C_11 
REMARK       I    between atoms: C_11  and  N_12 
REMARK    7  A    between atoms: N_12  and  C_13 
REMARK    8  A    between atoms: C_13  and  C_14 
ROOT
HETATM    1  N   UNL     1      42.260 -15.907   2.954  1.00  0.00    -0.052 N 
HETATM    2  H   UNL     1      41.646 -16.667   3.279  1.00  0.00     0.281 HD
HETATM    3  C   UNL     1      42.095 -14.924   4.132  1.00  0.00     0.288 C 
HETATM    4  C   UNL     1      40.613 -14.554   4.352  1.00  0.00     0.249 C 
HETATM    5  O   UNL     1      40.223 -13.991   5.370  1.00  0.00    -0.271 OA
HETATM    6  N   UNL     1      39.718 -14.956   3.392  1.00  0.00    -0.358 N 
HETATM    7  C   UNL     1      40.052 -15.229   1.998  1.00  0.00     0.150 C 
HETATM    8  C   UNL     1      41.538 -15.501   1.695  1.00  0.00     0.256 C 
HETATM    9  H   UNL     1      38.768 -14.649   3.590  1.00  0.00     0.162 HD
ENDROOT
BRANCH   3  10
HETATM   10  C   UNL     1      42.986 -13.681   4.171  1.00  0.00     0.145 C 
BRANCH  10  11
HETATM   11  C   UNL     1      42.347 -12.431   3.619  1.00  0.00     0.220 C 
HETATM   12  N   UNL     1      42.341 -12.356   2.251  1.00  0.00    -0.355 N 
HETATM   13  H   UNL     1      42.882 -13.009   1.695  1.00  0.00     0.162 HD
HETATM   14  O   UNL     1      41.855 -11.569   4.340  1.00  0.00    -0.274 OA
BRANCH  12  15
HETATM   15  C   UNL     1      41.678 -11.290   1.537  1.00  0.00     0.179 C 
BRANCH  15  16
HETATM   16  C   UNL     1      40.762 -11.884   0.540  1.00  0.00     0.028 A 
HETATM   17  N   UNL     1      41.207 -12.726  -0.452  1.00  0.00    -0.357 N 
HETATM   18  H   UNL     1      42.166 -13.028  -0.572  1.00  0.00     0.166 HD
HETATM   19  C   UNL     1      40.170 -13.084  -1.283  1.00  0.00     0.043 A 
HETATM   20  C   UNL     1      39.023 -12.448  -0.804  1.00  0.00    -0.005 A 
HETATM   21  C   UNL     1      40.162 -13.903  -2.419  1.00  0.00     0.033 A 
HETATM   22  C   UNL     1      39.406 -11.707   0.348  1.00  0.00     0.040 A 
HETATM   23  C   UNL     1      37.810 -12.626  -1.491  1.00  0.00     0.056 A 
HETATM   24  C   UNL     1      37.796 -13.436  -2.625  1.00  0.00     0.117 A 
HETATM   25  C   UNL     1      38.945 -14.068  -3.085  1.00  0.00     0.044 A 
HETATM   26  F   UNL     1      36.646 -13.606  -3.290  1.00  0.00    -0.206 F 
ENDBRANCH  15  16
ENDBRANCH  12  15
ENDBRANCH  10  11
ENDBRANCH   3  10
BRANCH   1  27
HETATM   27  C   UNL     1      43.564 -16.651   2.794  1.00  0.00     0.277 C 
BRANCH  27  28
HETATM   28  C   UNL     1      43.651 -18.131   3.058  1.00  0.00     0.001 A 
HETATM   29  C   UNL     1      43.994 -18.565   4.358  1.00  0.00     0.076 A 
HETATM   30  C   UNL     1      44.138 -19.925   4.646  1.00  0.00     0.037 A 
HETATM   31  C   UNL     1      43.864 -20.877   3.668  1.00  0.00     0.003 A 
HETATM   32  C   UNL     1      43.427 -20.471   2.413  1.00  0.00     0.001 A 
HETATM   33  C   UNL     1      43.307 -19.110   2.115  1.00  0.00     0.012 A 
BRANCH  29  34
HETATM   34  O   UNL     1      44.186 -17.584   5.299  1.00  0.00    -0.351 OA
BRANCH  34  35
HETATM   35  C   UNL     1      43.420 -17.736   6.503  1.00  0.00     0.171 C 
HETATM   36  C   UNL     1      43.453 -16.412   7.246  1.00  0.00     0.034 C 
ENDBRANCH  34  35
ENDBRANCH  29  34
ENDBRANCH  27  28
ENDBRANCH   1  27
TORSDOF 8
ENDMDL
MODEL 2
REMARK VINA RESULT:      -9.0      3.154      6.519
REMARK  8 active torsions:
REMARK  status: ('A' for Active; 'I' for Inactive)
REMARK    1  A    between atoms: C_2  and  O_3 
REMARK    2  A    between atoms: O_3  and  C_4 
REMARK    3  A    between atoms: C_5  and  C_6 
REMARK    4  A    between atoms: C_6  and  N_7 
REMARK    5  A    between atoms: C_9  and  C_10 
REMARK    6  A    between atoms: C_10  and  C_11 
REMARK       I    between atoms: C_11  and  N_12 
REMARK    7  A    between atoms: N_12  and  C_13 
REMARK    8  A    between atoms: C_13  and  C_14 
ROOT
HETATM    1  N   UNL     1      41.542 -11.692   3.827  1.00  0.00    -0.052 N 
HETATM    2  H   UNL     1      40.559 -11.997   3.838  1.00  0.00     0.281 HD
HETATM    3  C   UNL     1      41.769 -11.507   5.342  1.00  0.00     0.288 C 
HETATM    4  C   UNL     1      40.755 -10.511   5.944  1.00  0.00     0.249 C 
HETATM    5  O   UNL     1      40.588 -10.399   7.154  1.00  0.00    -0.271 OA
HETATM    6  N   UNL     1      39.975  -9.803   5.065  1.00  0.00    -0.358 N 
HETATM    7  C   UNL     1      40.329  -9.512   3.679  1.00  0.00     0.150 C 
HETATM    8  C   UNL     1      41.415 -10.406   3.052  1.00  0.00     0.256 C 
HETATM    9  H   UNL     1      39.356  -9.145   5.533  1.00  0.00     0.162 HD
ENDROOT
BRANCH   3  10
HETATM   10  C   UNL     1      43.188 -11.217   5.834  1.00  0.00     0.145 C 
BRANCH  10  11
HETATM   11  C   UNL     1      43.796 -12.310   6.679  1.00  0.00     0.220 C 
HETATM   12  N   UNL     1      43.241 -13.547   6.487  1.00  0.00    -0.355 N 
HETATM   13  H   UNL     1      42.386 -13.654   5.953  1.00  0.00     0.162 HD
HETATM   14  O   UNL     1      44.726 -12.105   7.453  1.00  0.00    -0.274 OA
BRANCH  12  15
HETATM   15  C   UNL     1      43.761 -14.736   7.123  1.00  0.00     0.179 C 
BRANCH  15  16
HETATM   16  C   UNL     1      43.828 -15.820   6.119  1.00  0.00     0.028 A 
HETATM   17  N   UNL     1      43.508 -15.614   4.797  1.00  0.00    -0.357 N 
HETATM   18  H   UNL     1      43.233 -14.725   4.397  1.00  0.00     0.166 HD
HETATM   19  C   UNL     1      43.588 -16.793   4.091  1.00  0.00     0.043 A 
HETATM   20  C   UNL     1      43.971 -17.786   4.995  1.00  0.00    -0.005 A 
HETATM   21  C   UNL     1      43.338 -17.056   2.738  1.00  0.00     0.033 A 
HETATM   22  C   UNL     1      44.130 -17.160   6.261  1.00  0.00     0.040 A 
HETATM   23  C   UNL     1      44.106 -19.107   4.535  1.00  0.00     0.056 A 
HETATM   24  C   UNL     1      43.854 -19.376   3.191  1.00  0.00     0.117 A 
HETATM   25  C   UNL     1      43.480 -18.376   2.303  1.00  0.00     0.044 A 
HETATM   26  F   UNL     1      43.973 -20.634   2.745  1.00  0.00    -0.206 F 
ENDBRANCH  15  16
ENDBRANCH  12  15
ENDBRANCH  10  11
ENDBRANCH   3  10
BRANCH   1  27
HETATM   27  C   UNL     1      42.189 -12.862   3.124  1.00  0.00     0.277 C 
BRANCH  27  28
HETATM   28  C   UNL     1      41.368 -13.831   2.314  1.00  0.00     0.001 A 
HETATM   29  C   UNL     1      40.596 -14.796   2.996  1.00  0.00     0.076 A 
HETATM   30  C   UNL     1      39.856 -15.751   2.293  1.00  0.00     0.037 A 
HETATM   31  C   UNL     1      39.807 -15.709   0.902  1.00  0.00     0.003 A 
HETATM   32  C   UNL     1      40.479 -14.704   0.218  1.00  0.00     0.001 A 
HETATM   33  C   UNL     1      41.241 -13.763   0.919  1.00  0.00     0.012 A 
BRANCH  29  34
HETATM   34  O   UNL     1      40.628 -14.746   4.368  1.00  0.00    -0.351 OA
BRANCH  34  35
HETATM   35  C   UNL     1      40.221 -15.952   5.031  1.00  0.00     0.171 C 
HETATM   36  C   UNL     1      40.195 -15.677   6.523  1.00  0.00     0.034 C 
ENDBRANCH  34  35
ENDBRANCH  29  34
ENDBRANCH  27  28
ENDBRANCH   1  27
TORSDOF 8
ENDMDL
MODEL 3
REMARK VINA RESULT:      -9.0      5.389      7.872
REMARK  8 active torsions:
REMARK  status: ('A' for Active; 'I' for Inactive)
REMARK    1  A    between atoms: C_2  and  O_3 
REMARK    2  A    between atoms: O_3  and  C_4 
REMARK    3  A    between atoms: C_5  and  C_6 
REMARK    4  A    between atoms: C_6  and  N_7 
REMARK    5  A    between atoms: C_9  and  C_10 
REMARK    6  A    between atoms: C_10  and  C_11 
REMARK       I    between atoms: C_11  and  N_12 
REMARK    7  A    between atoms: N_12  and  C_13 
REMARK    8  A    between atoms: C_13  and  C_14 
ROOT
HETATM    1  N   UNL     1      41.825 -14.079   3.190  1.00  0.00    -0.052 N 
HETATM    2  H   UNL     1      41.375 -14.811   3.757  1.00  0.00     0.281 HD
HETATM    3  C   UNL     1      41.923 -12.961   4.250  1.00  0.00     0.288 C 
HETATM    4  C   UNL     1      40.536 -12.614   4.831  1.00  0.00     0.249 C 
HETATM    5  O   UNL     1      40.403 -11.941   5.848  1.00  0.00    -0.271 OA
HETATM    6  N   UNL     1      39.442 -13.163   4.210  1.00  0.00    -0.358 N 
HETATM    7  C   UNL     1      39.400 -13.598   2.818  1.00  0.00     0.150 C 
HETATM    8  C   UNL     1      40.762 -13.858   2.145  1.00  0.00     0.256 C 
HETATM    9  H   UNL     1      38.564 -12.864   4.629  1.00  0.00     0.162 HD
ENDROOT
BRANCH   3  10
HETATM   10  C   UNL     1      42.707 -11.695   3.899  1.00  0.00     0.145 C 
BRANCH  10  11
HETATM   11  C   UNL     1      43.966 -11.491   4.706  1.00  0.00     0.220 C 
HETATM   12  N   UNL     1      43.809 -11.676   6.055  1.00  0.00    -0.355 N 
HETATM   13  H   UNL     1      42.883 -11.765   6.460  1.00  0.00     0.162 HD
HETATM   14  O   UNL     1      45.042 -11.208   4.190  1.00  0.00    -0.274 OA
BRANCH  12  15
HETATM   15  C   UNL     1      44.919 -11.632   6.978  1.00  0.00     0.179 C 
BRANCH  15  16
HETATM   16  C   UNL     1      44.493 -10.915   8.199  1.00  0.00     0.028 A 
HETATM   17  N   UNL     1      43.187 -10.535   8.406  1.00  0.00    -0.357 N 
HETATM   18  H   UNL     1      42.419 -10.727   7.775  1.00  0.00     0.166 HD
HETATM   19  C   UNL     1      43.071  -9.828   9.581  1.00  0.00     0.043 A 
HETATM   20  C   UNL     1      44.347  -9.755  10.143  1.00  0.00    -0.005 A 
HETATM   21  C   UNL     1      41.947  -9.242  10.176  1.00  0.00     0.033 A 
HETATM   22  C   UNL     1      45.228 -10.451   9.272  1.00  0.00     0.040 A 
HETATM   23  C   UNL     1      44.518  -9.058  11.352  1.00  0.00     0.056 A 
HETATM   24  C   UNL     1      43.404  -8.469  11.947  1.00  0.00     0.117 A 
HETATM   25  C   UNL     1      42.139  -8.556  11.378  1.00  0.00     0.044 A 
HETATM   26  F   UNL     1      43.558  -7.796  13.096  1.00  0.00    -0.206 F 
ENDBRANCH  15  16
ENDBRANCH  12  15
ENDBRANCH  10  11
ENDBRANCH   3  10
BRANCH   1  27
HETATM   27  C   UNL     1      43.082 -14.794   2.757  1.00  0.00     0.277 C 
BRANCH  27  28
HETATM   28  C   UNL     1      43.292 -16.252   3.069  1.00  0.00     0.001 A 
HETATM   29  C   UNL     1      43.491 -16.633   4.414  1.00  0.00     0.076 A 
HETATM   30  C   UNL     1      43.741 -17.965   4.755  1.00  0.00     0.037 A 
HETATM   31  C   UNL     1      43.715 -18.951   3.773  1.00  0.00     0.003 A 
HETATM   32  C   UNL     1      43.420 -18.609   2.459  1.00  0.00     0.001 A 
HETATM   33  C   UNL     1      43.195 -17.273   2.112  1.00  0.00     0.012 A 
BRANCH  29  34
HETATM   34  O   UNL     1      43.439 -15.627   5.348  1.00  0.00    -0.351 OA
BRANCH  34  35
HETATM   35  C   UNL     1      42.449 -15.799   6.374  1.00  0.00     0.171 C 
HETATM   36  C   UNL     1      43.045 -15.312   7.682  1.00  0.00     0.034 C 
ENDBRANCH  34  35
ENDBRANCH  29  34
ENDBRANCH  27  28
ENDBRANCH   1  27
TORSDOF 8
ENDMDL
MODEL 4
REMARK VINA RESULT:      -8.8      1.859      2.254
REMARK  8 active torsions:
REMARK  status: ('A' for Active; 'I' for Inactive)
REMARK    1  A    between atoms: C_2  and  O_3 
REMARK    2  A    between atoms: O_3  and  C_4 
REMARK    3  A    between atoms: C_5  and  C_6 
REMARK    4  A    between atoms: C_6  and  N_7 
REMARK    5  A    between atoms: C_9  and  C_10 
REMARK    6  A    between atoms: C_10  and  C_11 
REMARK       I    between atoms: C_11  and  N_12 
REMARK    7  A    between atoms: N_12  and  C_13 
REMARK    8  A    between atoms: C_13  and  C_14 
ROOT
HETATM    1  N   UNL     1      42.649 -15.843   3.812  1.00  0.00    -0.052 N 
HETATM    2  H   UNL     1      42.995 -16.147   4.733  1.00  0.00     0.281 HD
HETATM    3  C   UNL     1      42.948 -14.332   3.913  1.00  0.00     0.288 C 
HETATM    4  C   UNL     1      42.255 -13.703   5.141  1.00  0.00     0.249 C 
HETATM    5  O   UNL     1      42.546 -12.587   5.556  1.00  0.00    -0.271 OA
HETATM    6  N   UNL     1      41.346 -14.482   5.814  1.00  0.00    -0.358 N 
HETATM    7  C   UNL     1      40.607 -15.598   5.232  1.00  0.00     0.150 C 
HETATM    8  C   UNL     1      41.192 -16.202   3.941  1.00  0.00     0.256 C 
HETATM    9  H   UNL     1      40.909 -13.990   6.590  1.00  0.00     0.162 HD
ENDROOT
BRANCH   3  10
HETATM   10  C   UNL     1      42.754 -13.468   2.666  1.00  0.00     0.145 C 
BRANCH  10  11
HETATM   11  C   UNL     1      41.419 -13.638   1.985  1.00  0.00     0.220 C 
HETATM   12  N   UNL     1      41.471 -14.337   0.807  1.00  0.00    -0.355 N 
HETATM   13  H   UNL     1      42.361 -14.551   0.372  1.00  0.00     0.162 HD
HETATM   14  O   UNL     1      40.374 -13.206   2.461  1.00  0.00    -0.274 OA
BRANCH  12  15
HETATM   15  C   UNL     1      40.284 -14.696   0.066  1.00  0.00     0.179 C 
BRANCH  15  16
HETATM   16  C   UNL     1      39.961 -13.599  -0.872  1.00  0.00     0.028 A 
HETATM   17  N   UNL     1      40.933 -12.792  -1.416  1.00  0.00    -0.357 N 
HETATM   18  H   UNL     1      41.927 -12.888  -1.252  1.00  0.00     0.166 HD
HETATM   19  C   UNL     1      40.365 -11.812  -2.198  1.00  0.00     0.043 A 
HETATM   20  C   UNL     1      38.982 -12.001  -2.150  1.00  0.00    -0.005 A 
HETATM   21  C   UNL     1      40.963 -10.775  -2.925  1.00  0.00     0.033 A 
HETATM   22  C   UNL     1      38.742 -13.132  -1.324  1.00  0.00     0.040 A 
HETATM   23  C   UNL     1      38.151 -11.111  -2.853  1.00  0.00     0.056 A 
HETATM   24  C   UNL     1      38.739 -10.074  -3.575  1.00  0.00     0.117 A 
HETATM   25  C   UNL     1      40.117  -9.904  -3.617  1.00  0.00     0.044 A 
HETATM   26  F   UNL     1      37.954  -9.217  -4.242  1.00  0.00    -0.206 F 
ENDBRANCH  15  16
ENDBRANCH  12  15
ENDBRANCH  10  11
ENDBRANCH   3  10
BRANCH   1  27
HETATM   27  C   UNL     1      43.495 -16.700   2.899  1.00  0.00     0.277 C 
BRANCH  27  28
HETATM   28  C   UNL     1      43.618 -18.184   3.123  1.00  0.00     0.001 A 
HETATM   29  C   UNL     1      44.009 -18.644   4.399  1.00  0.00     0.076 A 
HETATM   30  C   UNL     1      44.188 -20.008   4.647  1.00  0.00     0.037 A 
HETATM   31  C   UNL     1      43.901 -20.940   3.654  1.00  0.00     0.003 A 
HETATM   32  C   UNL     1      43.417 -20.511   2.425  1.00  0.00     0.001 A 
HETATM   33  C   UNL     1      43.261 -19.145   2.166  1.00  0.00     0.012 A 
BRANCH  29  34
HETATM   34  O   UNL     1      44.213 -17.684   5.359  1.00  0.00    -0.351 OA
BRANCH  34  35
HETATM   35  C   UNL     1      43.483 -17.876   6.579  1.00  0.00     0.171 C 
HETATM   36  C   UNL     1      43.705 -16.655   7.453  1.00  0.00     0.034 C 
ENDBRANCH  34  35
ENDBRANCH  29  34
ENDBRANCH  27  28
ENDBRANCH   1  27
TORSDOF 8
ENDMDL
MODEL 5
REMARK VINA RESULT:      -8.8      4.737      8.294
REMARK  8 active torsions:
REMARK  status: ('A' for Active; 'I' for Inactive)
REMARK    1  A    between atoms: C_2  and  O_3 
REMARK    2  A    between atoms: O_3  and  C_4 
REMARK    3  A    between atoms: C_5  and  C_6 
REMARK    4  A    between atoms: C_6  and  N_7 
REMARK    5  A    between atoms: C_9  and  C_10 
REMARK    6  A    between atoms: C_10  and  C_11 
REMARK       I    between atoms: C_11  and  N_12 
REMARK    7  A    between atoms: N_12  and  C_13 
REMARK    8  A    between atoms: C_13  and  C_14 
ROOT
HETATM    1  N   UNL     1      42.874 -11.767   6.888  1.00  0.00    -0.052 N 
HETATM    2  H   UNL     1      42.488 -12.099   7.783  1.00  0.00     0.281 HD
HETATM    3  C   UNL     1      41.688 -12.102   5.959  1.00  0.00     0.288 C 
HETATM    4  C   UNL     1      41.326 -13.601   6.028  1.00  0.00     0.249 C 
HETATM    5  O   UNL     1      40.276 -14.042   5.573  1.00  0.00    -0.271 OA
HETATM    6  N   UNL     1      42.193 -14.424   6.702  1.00  0.00    -0.358 N 
HETATM    7  C   UNL     1      43.612 -14.155   6.909  1.00  0.00     0.150 C 
HETATM    8  C   UNL     1      44.057 -12.689   6.748  1.00  0.00     0.256 C 
HETATM    9  H   UNL     1      41.904 -15.399   6.679  1.00  0.00     0.162 HD
ENDROOT
BRANCH   3  10
HETATM   10  C   UNL     1      41.739 -11.612   4.511  1.00  0.00     0.145 C 
BRANCH  10  11
HETATM   11  C   UNL     1      42.751 -12.319   3.643  1.00  0.00     0.220 C 
HETATM   12  N   UNL     1      42.269 -13.430   3.003  1.00  0.00    -0.355 N 
HETATM   13  H   UNL     1      41.365 -13.817   3.249  1.00  0.00     0.162 HD
HETATM   14  O   UNL     1      43.901 -11.914   3.507  1.00  0.00    -0.274 OA
BRANCH  12  15
HETATM   15  C   UNL     1      43.054 -14.175   2.046  1.00  0.00     0.179 C 
BRANCH  15  16
HETATM   16  C   UNL     1      43.209 -15.561   2.536  1.00  0.00     0.028 A 
HETATM   17  N   UNL     1      43.446 -15.847   3.860  1.00  0.00    -0.357 N 
HETATM   18  H   UNL     1      43.508 -15.160   4.601  1.00  0.00     0.166 HD
HETATM   19  C   UNL     1      43.617 -17.201   4.039  1.00  0.00     0.043 A 
HETATM   20  C   UNL     1      43.483 -17.799   2.785  1.00  0.00    -0.005 A 
HETATM   21  C   UNL     1      43.889 -17.932   5.202  1.00  0.00     0.033 A 
HETATM   22  C   UNL     1      43.216 -16.761   1.852  1.00  0.00     0.040 A 
HETATM   23  C   UNL     1      43.637 -19.193   2.678  1.00  0.00     0.056 A 
HETATM   24  C   UNL     1      43.913 -19.926   3.830  1.00  0.00     0.117 A 
HETATM   25  C   UNL     1      44.036 -19.316   5.072  1.00  0.00     0.044 A 
HETATM   26  F   UNL     1      44.068 -21.253   3.736  1.00  0.00    -0.206 F 
ENDBRANCH  15  16
ENDBRANCH  12  15
ENDBRANCH  10  11
ENDBRANCH   3  10
BRANCH   1  27
HETATM   27  C   UNL     1      43.159 -10.323   7.225  1.00  0.00     0.277 C 
BRANCH  27  28
HETATM   28  C   UNL     1      43.515  -9.909   8.629  1.00  0.00     0.001 A 
HETATM   29  C   UNL     1      42.498  -9.386   9.457  1.00  0.00     0.076 A 
HETATM   30  C   UNL     1      42.784  -8.940  10.751  1.00  0.00     0.037 A 
HETATM   31  C   UNL     1      44.068  -9.084  11.269  1.00  0.00     0.003 A 
HETATM   32  C   UNL     1      45.057  -9.690  10.505  1.00  0.00     0.001 A 
HETATM   33  C   UNL     1      44.779 -10.114   9.201  1.00  0.00     0.012 A 
BRANCH  29  34
HETATM   34  O   UNL     1      41.237  -9.331   8.916  1.00  0.00    -0.351 OA
BRANCH  34  35
HETATM   35  C   UNL     1      40.489  -8.148   9.234  1.00  0.00     0.171 C 
HETATM   36  C   UNL     1      39.138  -8.582   9.772  1.00  0.00     0.034 C 
ENDBRANCH  34  35
ENDBRANCH  29  34
ENDBRANCH  27  28
ENDBRANCH   1  27
TORSDOF 8
ENDMDL
MODEL 6
REMARK VINA RESULT:      -8.8      5.164      7.915
REMARK  8 active torsions:
REMARK  status: ('A' for Active; 'I' for Inactive)
REMARK    1  A    between atoms: C_2  and  O_3 
REMARK    2  A    between atoms: O_3  and  C_4 
REMARK    3  A    between atoms: C_5  and  C_6 
REMARK    4  A    between atoms: C_6  and  N_7 
REMARK    5  A    between atoms: C_9  and  C_10 
REMARK    6  A    between atoms: C_10  and  C_11 
REMARK       I    between atoms: C_11  and  N_12 
REMARK    7  A    between atoms: N_12  and  C_13 
REMARK    8  A    between atoms: C_13  and  C_14 
ROOT
HETATM    1  N   UNL     1      41.730 -14.308   3.376  1.00  0.00    -0.052 N 
HETATM    2  H   UNL     1      41.120 -14.886   3.971  1.00  0.00     0.281 HD
HETATM    3  C   UNL     1      41.411 -12.915   3.959  1.00  0.00     0.288 C 
HETATM    4  C   UNL     1      39.900 -12.607   3.885  1.00  0.00     0.249 C 
HETATM    5  O   UNL     1      39.391 -11.679   4.505  1.00  0.00    -0.271 OA
HETATM    6  N   UNL     1      39.120 -13.471   3.159  1.00  0.00    -0.358 N 
HETATM    7  C   UNL     1      39.598 -14.317   2.070  1.00  0.00     0.150 C 
HETATM    8  C   UNL     1      41.117 -14.576   2.026  1.00  0.00     0.256 C 
HETATM    9  H   UNL     1      38.144 -13.186   3.130  1.00  0.00     0.162 HD
ENDROOT
BRANCH   3  10
HETATM   10  C   UNL     1      42.242 -11.722   3.485  1.00  0.00     0.145 C 
BRANCH  10  11
HETATM   11  C   UNL     1      43.583 -11.579   4.162  1.00  0.00     0.220 C 
HETATM   12  N   UNL     1      43.526 -11.575   5.531  1.00  0.00    -0.355 N 
HETATM   13  H   UNL     1      42.636 -11.497   6.012  1.00  0.00     0.162 HD
HETATM   14  O   UNL     1      44.634 -11.498   3.536  1.00  0.00    -0.274 OA
BRANCH  12  15
HETATM   15  C   UNL     1      44.712 -11.557   6.356  1.00  0.00     0.179 C 
BRANCH  15  16
HETATM   16  C   UNL     1      44.383 -10.914   7.646  1.00  0.00     0.028 A 
HETATM   17  N   UNL     1      43.109 -10.492   7.949  1.00  0.00    -0.357 N 
HETATM   18  H   UNL     1      42.301 -10.603   7.349  1.00  0.00     0.166 HD
HETATM   19  C   UNL     1      43.086  -9.869   9.176  1.00  0.00     0.043 A 
HETATM   20  C   UNL     1      44.390  -9.895   9.673  1.00  0.00    -0.005 A 
HETATM   21  C   UNL     1      42.023  -9.279   9.871  1.00  0.00     0.033 A 
HETATM   22  C   UNL     1      45.192 -10.564   8.709  1.00  0.00     0.040 A 
HETATM   23  C   UNL     1      44.655  -9.298  10.918  1.00  0.00     0.056 A 
HETATM   24  C   UNL     1      43.603  -8.704  11.612  1.00  0.00     0.117 A 
HETATM   25  C   UNL     1      42.309  -8.693  11.108  1.00  0.00     0.044 A 
HETATM   26  F   UNL     1      43.847  -8.127  12.796  1.00  0.00    -0.206 F 
ENDBRANCH  15  16
ENDBRANCH  12  15
ENDBRANCH  10  11
ENDBRANCH   3  10
BRANCH   1  27
HETATM   27  C   UNL     1      43.074 -14.935   3.661  1.00  0.00     0.277 C 
BRANCH  27  28
HETATM   28  C   UNL     1      43.275 -15.826   4.859  1.00  0.00     0.001 A 
HETATM   29  C   UNL     1      43.321 -17.223   4.661  1.00  0.00     0.076 A 
HETATM   30  C   UNL     1      43.455 -18.098   5.743  1.00  0.00     0.037 A 
HETATM   31  C   UNL     1      43.629 -17.593   7.029  1.00  0.00     0.003 A 
HETATM   32  C   UNL     1      43.689 -16.220   7.229  1.00  0.00     0.001 A 
HETATM   33  C   UNL     1      43.529 -15.343   6.151  1.00  0.00     0.012 A 
BRANCH  29  34
HETATM   34  O   UNL     1      43.213 -17.660   3.364  1.00  0.00    -0.351 OA
BRANCH  34  35
HETATM   35  C   UNL     1      44.054 -18.773   3.024  1.00  0.00     0.171 C 
HETATM   36  C   UNL     1      43.262 -19.694   2.114  1.00  0.00     0.034 C 
ENDBRANCH  34  35
ENDBRANCH  29  34
ENDBRANCH  27  28
ENDBRANCH   1  27
TORSDOF 8
ENDMDL
MODEL 7
REMARK VINA RESULT:      -8.8      3.830      6.296
REMARK  8 active torsions:
REMARK  status: ('A' for Active; 'I' for Inactive)
REMARK    1  A    between atoms: C_2  and  O_3 
REMARK    2  A    between atoms: O_3  and  C_4 
REMARK    3  A    between atoms: C_5  and  C_6 
REMARK    4  A    between atoms: C_6  and  N_7 
REMARK    5  A    between atoms: C_9  and  C_10 
REMARK    6  A    between atoms: C_10  and  C_11 
REMARK       I    between atoms: C_11  and  N_12 
REMARK    7  A    between atoms: N_12  and  C_13 
REMARK    8  A    between atoms: C_13  and  C_14 
ROOT
HETATM    1  N   UNL     1      42.073 -13.925   1.173  1.00  0.00    -0.052 N 
HETATM    2  H   UNL     1      42.567 -14.220   0.319  1.00  0.00     0.281 HD
HETATM    3  C   UNL     1      40.812 -14.807   1.056  1.00  0.00     0.288 C 
HETATM    4  C   UNL     1      40.074 -14.558  -0.277  1.00  0.00     0.249 C 
HETATM    5  O   UNL     1      39.199 -15.311  -0.690  1.00  0.00    -0.271 OA
HETATM    6  N   UNL     1      40.494 -13.495  -1.037  1.00  0.00    -0.358 N 
HETATM    7  C   UNL     1      41.181 -12.316  -0.519  1.00  0.00     0.150 C 
HETATM    8  C   UNL     1      41.849 -12.468   0.861  1.00  0.00     0.256 C 
HETATM    9  H   UNL     1      39.942 -13.376  -1.883  1.00  0.00     0.162 HD
ENDROOT
BRANCH   3  10
HETATM   10  C   UNL     1      39.834 -14.835   2.232  1.00  0.00     0.145 C 
BRANCH  10  11
HETATM   11  C   UNL     1      39.478 -13.477   2.787  1.00  0.00     0.220 C 
HETATM   12  N   UNL     1      40.241 -13.087   3.855  1.00  0.00    -0.355 N 
HETATM   13  H   UNL     1      40.858 -13.744   4.319  1.00  0.00     0.162 HD
HETATM   14  O   UNL     1      38.595 -12.778   2.302  1.00  0.00    -0.274 OA
BRANCH  12  15
HETATM   15  C   UNL     1      40.123 -11.776   4.453  1.00  0.00     0.179 C 
BRANCH  15  16
HETATM   16  C   UNL     1      41.360 -11.487   5.209  1.00  0.00     0.028 A 
HETATM   17  N   UNL     1      42.610 -11.707   4.678  1.00  0.00    -0.357 N 
HETATM   18  H   UNL     1      42.793 -12.050   3.743  1.00  0.00     0.166 HD
HETATM   19  C   UNL     1      43.586 -11.422   5.606  1.00  0.00     0.043 A 
HETATM   20  C   UNL     1      42.936 -11.005   6.769  1.00  0.00    -0.005 A 
HETATM   21  C   UNL     1      44.980 -11.512   5.509  1.00  0.00     0.033 A 
HETATM   22  C   UNL     1      41.539 -11.040   6.503  1.00  0.00     0.040 A 
HETATM   23  C   UNL     1      43.707 -10.670   7.896  1.00  0.00     0.056 A 
HETATM   24  C   UNL     1      45.094 -10.764   7.808  1.00  0.00     0.117 A 
HETATM   25  C   UNL     1      45.727 -11.173   6.640  1.00  0.00     0.044 A 
HETATM   26  F   UNL     1      45.837 -10.453   8.879  1.00  0.00    -0.206 F 
ENDBRANCH  15  16
ENDBRANCH  12  15
ENDBRANCH  10  11
ENDBRANCH   3  10
BRANCH   1  27
HETATM   27  C   UNL     1      43.107 -14.256   2.223  1.00  0.00     0.277 C 
BRANCH  27  28
HETATM   28  C   UNL     1      43.246 -15.656   2.760  1.00  0.00     0.001 A 
HETATM   29  C   UNL     1      43.100 -15.863   4.149  1.00  0.00     0.076 A 
HETATM   30  C   UNL     1      43.270 -17.133   4.708  1.00  0.00     0.037 A 
HETATM   31  C   UNL     1      43.505 -18.230   3.884  1.00  0.00     0.003 A 
HETATM   32  C   UNL     1      43.551 -18.061   2.506  1.00  0.00     0.001 A 
HETATM   33  C   UNL     1      43.407 -16.787   1.947  1.00  0.00     0.012 A 
BRANCH  29  34
HETATM   34  O   UNL     1      42.801 -14.756   4.904  1.00  0.00    -0.351 OA
BRANCH  34  35
HETATM   35  C   UNL     1      42.217 -15.032   6.186  1.00  0.00     0.171 C 
HETATM   36  C   UNL     1      43.211 -14.606   7.252  1.00  0.00     0.034 C 
ENDBRANCH  34  35
ENDBRANCH  29  34
ENDBRANCH  27  28
ENDBRANCH   1  27
TORSDOF 8
ENDMDL
MODEL 8
REMARK VINA RESULT:      -8.8      2.713      7.068
REMARK  8 active torsions:
REMARK  status: ('A' for Active; 'I' for Inactive)
REMARK    1  A    between atoms: C_2  and  O_3 
REMARK    2  A    between atoms: O_3  and  C_4 
REMARK    3  A    between atoms: C_5  and  C_6 
REMARK    4  A    between atoms: C_6  and  N_7 
REMARK    5  A    between atoms: C_9  and  C_10 
REMARK    6  A    between atoms: C_10  and  C_11 
REMARK       I    between atoms: C_11  and  N_12 
REMARK    7  A    between atoms: N_12  and  C_13 
REMARK    8  A    between atoms: C_13  and  C_14 
ROOT
HETATM    1  N   UNL     1      40.784 -11.919   2.724  1.00  0.00    -0.052 N 
HETATM    2  H   UNL     1      39.979 -12.538   2.550  1.00  0.00     0.281 HD
HETATM    3  C   UNL     1      41.243 -12.474   4.088  1.00  0.00     0.288 C 
HETATM    4  C   UNL     1      40.104 -12.417   5.129  1.00  0.00     0.249 C 
HETATM    5  O   UNL     1      40.162 -13.022   6.195  1.00  0.00    -0.271 OA
HETATM    6  N   UNL     1      38.972 -11.725   4.782  1.00  0.00    -0.358 N 
HETATM    7  C   UNL     1      38.917 -10.649   3.797  1.00  0.00     0.150 C 
HETATM    8  C   UNL     1      40.084 -10.586   2.793  1.00  0.00     0.256 C 
HETATM    9  H   UNL     1      38.281 -11.705   5.528  1.00  0.00     0.162 HD
ENDROOT
BRANCH   3  10
HETATM   10  C   UNL     1      42.556 -11.957   4.678  1.00  0.00     0.145 C 
BRANCH  10  11
HETATM   11  C   UNL     1      43.260 -12.928   5.594  1.00  0.00     0.220 C 
HETATM   12  N   UNL     1      43.086 -14.245   5.261  1.00  0.00    -0.355 N 
HETATM   13  H   UNL     1      42.399 -14.517   4.567  1.00  0.00     0.162 HD
HETATM   14  O   UNL     1      43.948 -12.561   6.541  1.00  0.00    -0.274 OA
BRANCH  12  15
HETATM   15  C   UNL     1      43.768 -15.315   5.952  1.00  0.00     0.179 C 
BRANCH  15  16
HETATM   16  C   UNL     1      43.680 -16.542   5.131  1.00  0.00     0.028 A 
HETATM   17  N   UNL     1      43.958 -17.787   5.645  1.00  0.00    -0.357 N 
HETATM   18  H   UNL     1      44.214 -17.976   6.606  1.00  0.00     0.166 HD
HETATM   19  C   UNL     1      43.868 -18.746   4.662  1.00  0.00     0.043 A 
HETATM   20  C   UNL     1      43.521 -18.089   3.480  1.00  0.00    -0.005 A 
HETATM   21  C   UNL     1      44.079 -20.129   4.725  1.00  0.00     0.033 A 
HETATM   22  C   UNL     1      43.394 -16.708   3.790  1.00  0.00     0.040 A 
HETATM   23  C   UNL     1      43.383 -18.841   2.300  1.00  0.00     0.056 A 
HETATM   24  C   UNL     1      43.597 -20.217   2.356  1.00  0.00     0.117 A 
HETATM   25  C   UNL     1      43.935 -20.857   3.541  1.00  0.00     0.044 A 
HETATM   26  F   UNL     1      43.475 -20.941   1.234  1.00  0.00    -0.206 F 
ENDBRANCH  15  16
ENDBRANCH  12  15
ENDBRANCH  10  11
ENDBRANCH   3  10
BRANCH   1  27
HETATM   27  C   UNL     1      41.620 -12.198   1.497  1.00  0.00     0.277 C 
BRANCH  27  28
HETATM   28  C   UNL     1      40.989 -12.693   0.223  1.00  0.00     0.001 A 
HETATM   29  C   UNL     1      40.092 -13.782   0.293  1.00  0.00     0.076 A 
HETATM   30  C   UNL     1      39.517 -14.314  -0.864  1.00  0.00     0.037 A 
HETATM   31  C   UNL     1      39.760 -13.720  -2.099  1.00  0.00     0.003 A 
HETATM   32  C   UNL     1      40.559 -12.586  -2.174  1.00  0.00     0.001 A 
HETATM   33  C   UNL     1      41.156 -12.067  -1.021  1.00  0.00     0.012 A 
BRANCH  29  34
HETATM   34  O   UNL     1      39.837 -14.284   1.545  1.00  0.00    -0.351 OA
BRANCH  34  35
HETATM   35  C   UNL     1      40.156 -15.672   1.722  1.00  0.00     0.171 C 
HETATM   36  C   UNL     1      40.178 -15.959   3.212  1.00  0.00     0.034 C 
ENDBRANCH  34  35
ENDBRANCH  29  34
ENDBRANCH  27  28
ENDBRANCH   1  27
TORSDOF 8
ENDMDL
MODEL 9
REMARK VINA RESULT:      -8.7      6.137      8.876
REMARK  8 active torsions:
REMARK  status: ('A' for Active; 'I' for Inactive)
REMARK    1  A    between atoms: C_2  and  O_3 
REMARK    2  A    between atoms: O_3  and  C_4 
REMARK    3  A    between atoms: C_5  and  C_6 
REMARK    4  A    between atoms: C_6  and  N_7 
REMARK    5  A    between atoms: C_9  and  C_10 
REMARK    6  A    between atoms: C_10  and  C_11 
REMARK       I    between atoms: C_11  and  N_12 
REMARK    7  A    between atoms: N_12  and  C_13 
REMARK    8  A    between atoms: C_13  and  C_14 
ROOT
HETATM    1  N   UNL     1      41.855 -13.621   3.966  1.00  0.00    -0.052 N 
HETATM    2  H   UNL     1      41.295 -13.164   3.233  1.00  0.00     0.281 HD
HETATM    3  C   UNL     1      41.521 -12.697   5.156  1.00  0.00     0.288 C 
HETATM    4  C   UNL     1      41.880 -11.228   4.844  1.00  0.00     0.249 C 
HETATM    5  O   UNL     1      41.481 -10.296   5.534  1.00  0.00    -0.271 OA
HETATM    6  N   UNL     1      42.602 -10.989   3.702  1.00  0.00    -0.358 N 
HETATM    7  C   UNL     1      43.476 -11.957   3.046  1.00  0.00     0.150 C 
HETATM    8  C   UNL     1      43.238 -13.438   3.400  1.00  0.00     0.256 C 
HETATM    9  H   UNL     1      42.827 -10.004   3.580  1.00  0.00     0.162 HD
ENDROOT
BRANCH   3  10
HETATM   10  C   UNL     1      42.009 -13.100   6.549  1.00  0.00     0.145 C 
BRANCH  10  11
HETATM   11  C   UNL     1      43.341 -12.511   6.944  1.00  0.00     0.220 C 
HETATM   12  N   UNL     1      43.254 -11.442   7.796  1.00  0.00    -0.355 N 
HETATM   13  H   UNL     1      42.361 -11.000   7.983  1.00  0.00     0.162 HD
HETATM   14  O   UNL     1      44.408 -12.970   6.552  1.00  0.00    -0.274 OA
BRANCH  12  15
HETATM   15  C   UNL     1      44.421 -10.813   8.372  1.00  0.00     0.179 C 
BRANCH  15  16
HETATM   16  C   UNL     1      44.050 -10.230   9.679  1.00  0.00     0.028 A 
HETATM   17  N   UNL     1      43.176 -10.857  10.537  1.00  0.00    -0.357 N 
HETATM   18  H   UNL     1      42.743 -11.757  10.372  1.00  0.00     0.166 HD
HETATM   19  C   UNL     1      42.948 -10.076  11.648  1.00  0.00     0.043 A 
HETATM   20  C   UNL     1      43.702  -8.912  11.492  1.00  0.00    -0.005 A 
HETATM   21  C   UNL     1      42.130 -10.305  12.761  1.00  0.00     0.033 A 
HETATM   22  C   UNL     1      44.398  -9.026  10.258  1.00  0.00     0.040 A 
HETATM   23  C   UNL     1      43.635  -7.921  12.487  1.00  0.00     0.056 A 
HETATM   24  C   UNL     1      42.818  -8.139  13.594  1.00  0.00     0.117 A 
HETATM   25  C   UNL     1      42.079  -9.307  13.738  1.00  0.00     0.044 A 
HETATM   26  F   UNL     1      42.741  -7.197  14.544  1.00  0.00    -0.206 F 
ENDBRANCH  15  16
ENDBRANCH  12  15
ENDBRANCH  10  11
ENDBRANCH   3  10
BRANCH   1  27
HETATM   27  C   UNL     1      41.273 -15.015   3.933  1.00  0.00     0.277 C 
BRANCH  27  28
HETATM   28  C   UNL     1      42.139 -16.210   3.631  1.00  0.00     0.001 A 
HETATM   29  C   UNL     1      42.911 -16.765   4.675  1.00  0.00     0.076 A 
HETATM   30  C   UNL     1      43.770 -17.842   4.438  1.00  0.00     0.037 A 
HETATM   31  C   UNL     1      43.812 -18.435   3.180  1.00  0.00     0.003 A 
HETATM   32  C   UNL     1      42.984 -17.967   2.168  1.00  0.00     0.001 A 
HETATM   33  C   UNL     1      42.143 -16.873   2.395  1.00  0.00     0.012 A 
BRANCH  29  34
HETATM   34  O   UNL     1      42.777 -16.182   5.911  1.00  0.00    -0.351 OA
BRANCH  34  35
HETATM   35  C   UNL     1      43.831 -16.474   6.840  1.00  0.00     0.171 C 
HETATM   36  C   UNL     1      43.374 -16.029   8.217  1.00  0.00     0.034 C 
ENDBRANCH  34  35
ENDBRANCH  29  34
ENDBRANCH  27  28
ENDBRANCH   1  27
TORSDOF 8
ENDMDL
MODEL 10
REMARK VINA RESULT:      -8.6      4.154      7.973
REMARK  8 active torsions:
REMARK  status: ('A' for Active; 'I' for Inactive)
REMARK    1  A    between atoms: C_2  and  O_3 
REMARK    2  A    between atoms: O_3  and  C_4 
REMARK    3  A    between atoms: C_5  and  C_6 
REMARK    4  A    between atoms: C_6  and  N_7 
REMARK    5  A    between atoms: C_9  and  C_10 
REMARK    6  A    between atoms: C_10  and  C_11 
REMARK       I    between atoms: C_11  and  N_12 
REMARK    7  A    between atoms: N_12  and  C_13 
REMARK    8  A    between atoms: C_13  and  C_14 
ROOT
HETATM    1  N   UNL     1      41.927 -10.333   5.318  1.00  0.00    -0.052 N 
HETATM    2  H   UNL     1      42.763  -9.875   4.927  1.00  0.00     0.281 HD
HETATM    3  C   UNL     1      41.875 -11.583   4.415  1.00  0.00     0.288 C 
HETATM    4  C   UNL     1      41.802 -11.195   2.923  1.00  0.00     0.249 C 
HETATM    5  O   UNL     1      41.998 -12.007   2.025  1.00  0.00    -0.271 OA
HETATM    6  N   UNL     1      41.588  -9.871   2.630  1.00  0.00    -0.358 N 
HETATM    7  C   UNL     1      40.936  -8.913   3.517  1.00  0.00     0.150 C 
HETATM    8  C   UNL     1      40.882  -9.293   5.009  1.00  0.00     0.256 C 
HETATM    9  H   UNL     1      41.520  -9.698   1.629  1.00  0.00     0.162 HD
ENDROOT
BRANCH   3  10
HETATM   10  C   UNL     1      40.864 -12.681   4.751  1.00  0.00     0.145 C 
BRANCH  10  11
HETATM   11  C   UNL     1      41.445 -13.873   5.470  1.00  0.00     0.220 C 
HETATM   12  N   UNL     1      42.764 -14.114   5.189  1.00  0.00    -0.355 N 
HETATM   13  H   UNL     1      43.229 -13.628   4.430  1.00  0.00     0.162 HD
HETATM   14  O   UNL     1      40.793 -14.552   6.257  1.00  0.00    -0.274 OA
BRANCH  12  15
HETATM   15  C   UNL     1      43.524 -15.143   5.861  1.00  0.00     0.179 C 
BRANCH  15  16
HETATM   16  C   UNL     1      43.486 -16.373   5.041  1.00  0.00     0.028 A 
HETATM   17  N   UNL     1      43.847 -17.601   5.546  1.00  0.00    -0.357 N 
HETATM   18  H   UNL     1      44.135 -17.774   6.501  1.00  0.00     0.166 HD
HETATM   19  C   UNL     1      43.787 -18.563   4.564  1.00  0.00     0.043 A 
HETATM   20  C   UNL     1      43.375 -17.927   3.392  1.00  0.00    -0.005 A 
HETATM   21  C   UNL     1      44.078 -19.932   4.621  1.00  0.00     0.033 A 
HETATM   22  C   UNL     1      43.178 -16.555   3.707  1.00  0.00     0.040 A 
HETATM   23  C   UNL     1      43.253 -18.685   2.214  1.00  0.00     0.056 A 
HETATM   24  C   UNL     1      43.545 -20.047   2.263  1.00  0.00     0.117 A 
HETATM   25  C   UNL     1      43.948 -20.667   3.439  1.00  0.00     0.044 A 
HETATM   26  F   UNL     1      43.439 -20.776   1.144  1.00  0.00    -0.206 F 
ENDBRANCH  15  16
ENDBRANCH  12  15
ENDBRANCH  10  11
ENDBRANCH   3  10
BRANCH   1  27
HETATM   27  C   UNL     1      42.343 -10.487   6.762  1.00  0.00     0.277 C 
BRANCH  27  28
HETATM   28  C   UNL     1      43.794 -10.430   7.162  1.00  0.00     0.001 A 
HETATM   29  C   UNL     1      44.152  -9.676   8.301  1.00  0.00     0.076 A 
HETATM   30  C   UNL     1      45.489  -9.548   8.687  1.00  0.00     0.037 A 
HETATM   31  C   UNL     1      46.482 -10.236   7.995  1.00  0.00     0.003 A 
HETATM   32  C   UNL     1      46.138 -11.064   6.934  1.00  0.00     0.001 A 
HETATM   33  C   UNL     1      44.803 -11.173   6.530  1.00  0.00     0.012 A 
BRANCH  29  34
HETATM   34  O   UNL     1      43.123  -9.076   8.984  1.00  0.00    -0.351 OA
BRANCH  34  35
HETATM   35  C   UNL     1      42.859  -9.617  10.287  1.00  0.00     0.171 C 
HETATM   36  C   UNL     1      43.180  -8.544  11.311  1.00  0.00     0.034 C 
ENDBRANCH  34  35
ENDBRANCH  29  34
ENDBRANCH  27  28
ENDBRANCH   1  27
TORSDOF 8
ENDMDL
