MODEL 1
REMARK VINA RESULT:      -9.1      0.000      0.000
REMARK  3 active torsions:
REMARK  status: ('A' for Active; 'I' for Inactive)
REMARK    1  A    between atoms: C_3  and  N_4 
REMARK       I    between atoms: N_4  and  C_5 
REMARK    2  A    between atoms: C_5  and  C_6 
REMARK    3  A    between atoms: C_7  and  C_8 
ROOT
HETATM    1  C   UNL     1      42.827 -14.743   5.675  1.00  0.00     0.063 C 
HETATM    2  C   UNL     1      42.987 -13.548   4.736  1.00  0.00     0.216 C 
HETATM    3  N   UNL     1      43.814 -12.515   5.344  1.00  0.00    -0.091 N 
HETATM    4  C   UNL     1      44.063 -12.426   6.682  1.00  0.00     0.735 A 
HETATM    5  N   UNL     1      43.590 -13.393   7.495  1.00  0.00    -0.191 N 
HETATM    6  N   UNL     1      44.380 -11.490   4.692  1.00  0.00     0.012 NA
HETATM    7  N   UNL     1      44.959 -10.771   5.650  1.00  0.00     0.033 NA
HETATM    8  N   UNL     1      44.763 -11.340   6.896  1.00  0.00     0.030 NA
HETATM    9  C   UNL     1      43.087 -14.601   7.004  1.00  0.00     0.037 C 
HETATM   10  C   UNL     1      42.887 -15.680   8.041  1.00  0.00     0.070 C 
HETATM   11  H   UNL     1      43.881 -13.385   8.471  1.00  0.00     0.184 HD
ENDROOT
BRANCH   1  12
HETATM   12  C   UNL     1      42.575 -16.099   5.071  1.00  0.00     0.256 C 
HETATM   13  N   UNL     1      43.696 -16.847   4.796  1.00  0.00    -0.323 N 
HETATM   14  H   UNL     1      44.586 -16.354   4.729  1.00  0.00     0.169 HD
HETATM   15  O   UNL     1      41.421 -16.458   4.861  1.00  0.00    -0.267 OA
BRANCH  13  16
HETATM   16  C   UNL     1      43.737 -18.175   4.304  1.00  0.00     0.041 A 
HETATM   17  C   UNL     1      43.514 -18.573   2.974  1.00  0.00    -0.035 A 
HETATM   18  C   UNL     1      43.074 -17.656   1.865  1.00  0.00     0.050 C 
HETATM   19  C   UNL     1      43.653 -19.938   2.642  1.00  0.00     0.009 A 
HETATM   20  C   UNL     1      43.940 -20.897   3.612  1.00  0.00     0.001 A 
HETATM   21  C   UNL     1      44.084 -20.510   4.936  1.00  0.00     0.002 A 
HETATM   22  C   UNL     1      43.975 -19.162   5.278  1.00  0.00     0.030 A 
ENDBRANCH  13  16
ENDBRANCH   1  12
BRANCH   2  23
HETATM   23  C   UNL     1      41.627 -12.971   4.332  1.00  0.00     0.064 A 
HETATM   24  N   UNL     1      41.440 -12.777   2.995  1.00  0.00    -0.263 NA
HETATM   25  C   UNL     1      40.251 -12.272   2.587  1.00  0.00     0.117 A 
HETATM   26  C   UNL     1      39.201 -11.996   3.440  1.00  0.00     0.019 A 
HETATM   27  C   UNL     1      39.378 -12.244   4.793  1.00  0.00     0.003 A 
HETATM   28  C   UNL     1      40.597 -12.741   5.248  1.00  0.00     0.030 A 
ENDBRANCH   2  23
TORSDOF 3
ENDMDL
MODEL 2
REMARK VINA RESULT:      -8.8      2.116      4.166
REMARK  3 active torsions:
REMARK  status: ('A' for Active; 'I' for Inactive)
REMARK    1  A    between atoms: C_3  and  N_4 
REMARK       I    between atoms: N_4  and  C_5 
REMARK    2  A    between atoms: C_5  and  C_6 
REMARK    3  A    between atoms: C_7  and  C_8 
ROOT
HETATM    1  C   UNL     1      40.611 -14.056   4.240  1.00  0.00     0.063 C 
HETATM    2  C   UNL     1      40.747 -13.342   5.584  1.00  0.00     0.216 C 
HETATM    3  N   UNL     1      39.793 -12.247   5.691  1.00  0.00    -0.091 N 
HETATM    4  C   UNL     1      39.168 -11.673   4.623  1.00  0.00     0.735 A 
HETATM    5  N   UNL     1      39.371 -12.193   3.396  1.00  0.00    -0.191 N 
HETATM    6  N   UNL     1      39.455 -11.620   6.826  1.00  0.00     0.012 NA
HETATM    7  N   UNL     1      38.633 -10.650   6.434  1.00  0.00     0.033 NA
HETATM    8  N   UNL     1      38.450 -10.668   5.062  1.00  0.00     0.030 NA
HETATM    9  C   UNL     1      39.978 -13.437   3.205  1.00  0.00     0.037 C 
HETATM   10  C   UNL     1      39.854 -14.003   1.810  1.00  0.00     0.070 C 
HETATM   11  H   UNL     1      38.809 -11.838   2.624  1.00  0.00     0.184 HD
ENDROOT
BRANCH   1  12
HETATM   12  C   UNL     1      41.009 -15.505   4.156  1.00  0.00     0.256 C 
HETATM   13  N   UNL     1      42.280 -15.748   3.690  1.00  0.00    -0.323 N 
HETATM   14  H   UNL     1      42.741 -15.003   3.169  1.00  0.00     0.169 HD
HETATM   15  O   UNL     1      40.206 -16.369   4.493  1.00  0.00    -0.267 OA
BRANCH  13  16
HETATM   16  C   UNL     1      42.927 -17.004   3.588  1.00  0.00     0.041 A 
HETATM   17  C   UNL     1      43.839 -17.545   4.512  1.00  0.00    -0.035 A 
HETATM   18  C   UNL     1      44.374 -16.818   5.716  1.00  0.00     0.050 C 
HETATM   19  C   UNL     1      44.346 -18.841   4.285  1.00  0.00     0.009 A 
HETATM   20  C   UNL     1      44.015 -19.562   3.140  1.00  0.00     0.001 A 
HETATM   21  C   UNL     1      43.174 -18.996   2.193  1.00  0.00     0.002 A 
HETATM   22  C   UNL     1      42.643 -17.725   2.413  1.00  0.00     0.030 A 
ENDBRANCH  13  16
ENDBRANCH   1  12
BRANCH   2  23
HETATM   23  C   UNL     1      42.173 -12.828   5.800  1.00  0.00     0.064 A 
HETATM   24  N   UNL     1      42.501 -11.692   5.121  1.00  0.00    -0.263 NA
HETATM   25  C   UNL     1      43.751 -11.194   5.282  1.00  0.00     0.117 A 
HETATM   26  C   UNL     1      44.690 -11.740   6.135  1.00  0.00     0.019 A 
HETATM   27  C   UNL     1      44.334 -12.864   6.863  1.00  0.00     0.003 A 
HETATM   28  C   UNL     1      43.064 -13.415   6.703  1.00  0.00     0.030 A 
ENDBRANCH   2  23
TORSDOF 3
ENDMDL
MODEL 3
REMARK VINA RESULT:      -8.1      2.628      7.191
REMARK  3 active torsions:
REMARK  status: ('A' for Active; 'I' for Inactive)
REMARK    1  A    between atoms: C_3  and  N_4 
REMARK       I    between atoms: N_4  and  C_5 
REMARK    2  A    between atoms: C_5  and  C_6 
REMARK    3  A    between atoms: C_7  and  C_8 
ROOT
HETATM    1  C   UNL     1      41.957 -12.806   4.754  1.00  0.00     0.063 C 
HETATM    2  C   UNL     1      42.585 -14.087   4.207  1.00  0.00     0.216 C 
HETATM    3  N   UNL     1      41.675 -14.763   3.292  1.00  0.00    -0.091 N 
HETATM    4  C   UNL     1      40.331 -14.535   3.245  1.00  0.00     0.735 A 
HETATM    5  N   UNL     1      39.810 -13.569   4.029  1.00  0.00    -0.191 N 
HETATM    6  N   UNL     1      42.017 -15.733   2.432  1.00  0.00     0.012 NA
HETATM    7  N   UNL     1      40.865 -16.101   1.877  1.00  0.00     0.033 NA
HETATM    8  N   UNL     1      39.806 -15.367   2.380  1.00  0.00     0.030 NA
HETATM    9  C   UNL     1      40.608 -12.628   4.684  1.00  0.00     0.037 C 
HETATM   10  C   UNL     1      39.864 -11.448   5.263  1.00  0.00     0.070 C 
HETATM   11  H   UNL     1      38.830 -13.323   3.900  1.00  0.00     0.184 HD
ENDROOT
BRANCH   1  12
HETATM   12  C   UNL     1      42.869 -11.687   5.180  1.00  0.00     0.256 C 
HETATM   13  N   UNL     1      43.167 -11.639   6.522  1.00  0.00    -0.323 N 
HETATM   14  H   UNL     1      42.548 -12.140   7.160  1.00  0.00     0.169 HD
HETATM   15  O   UNL     1      43.287 -10.899   4.339  1.00  0.00    -0.267 OA
BRANCH  13  16
HETATM   16  C   UNL     1      44.055 -10.744   7.169  1.00  0.00     0.041 A 
HETATM   17  C   UNL     1      43.705  -9.531   7.786  1.00  0.00    -0.035 A 
HETATM   18  C   UNL     1      42.331  -8.918   7.757  1.00  0.00     0.050 C 
HETATM   19  C   UNL     1      44.711  -8.786   8.438  1.00  0.00     0.009 A 
HETATM   20  C   UNL     1      46.042  -9.196   8.426  1.00  0.00     0.001 A 
HETATM   21  C   UNL     1      46.396 -10.355   7.751  1.00  0.00     0.002 A 
HETATM   22  C   UNL     1      45.411 -11.116   7.122  1.00  0.00     0.030 A 
ENDBRANCH  13  16
ENDBRANCH   1  12
BRANCH   2  23
HETATM   23  C   UNL     1      43.000 -15.031   5.338  1.00  0.00     0.064 A 
HETATM   24  N   UNL     1      42.418 -14.797   6.548  1.00  0.00    -0.263 NA
HETATM   25  C   UNL     1      42.749 -15.608   7.581  1.00  0.00     0.117 A 
HETATM   26  C   UNL     1      43.599 -16.691   7.465  1.00  0.00     0.019 A 
HETATM   27  C   UNL     1      44.148 -16.957   6.219  1.00  0.00     0.003 A 
HETATM   28  C   UNL     1      43.846 -16.127   5.142  1.00  0.00     0.030 A 
ENDBRANCH   2  23
TORSDOF 3
ENDMDL
MODEL 4
REMARK VINA RESULT:      -8.0      3.453      5.658
REMARK  3 active torsions:
REMARK  status: ('A' for Active; 'I' for Inactive)
REMARK    1  A    between atoms: C_3  and  N_4 
REMARK       I    between atoms: N_4  and  C_5 
REMARK    2  A    between atoms: C_5  and  C_6 
REMARK    3  A    between atoms: C_7  and  C_8 
ROOT
HETATM    1  C   UNL     1      40.425 -13.112   1.332  1.00  0.00     0.063 C 
HETATM    2  C   UNL     1      40.797 -12.716  -0.096  1.00  0.00     0.216 C 
HETATM    3  N   UNL     1      40.971 -11.274  -0.208  1.00  0.00    -0.091 N 
HETATM    4  C   UNL     1      40.478 -10.374   0.691  1.00  0.00     0.735 A 
HETATM    5  N   UNL     1      39.862 -10.835   1.799  1.00  0.00    -0.191 N 
HETATM    6  N   UNL     1      41.570 -10.641  -1.226  1.00  0.00     0.012 NA
HETATM    7  N   UNL     1      41.421  -9.349  -0.943  1.00  0.00     0.033 NA
HETATM    8  N   UNL     1      40.736  -9.169   0.246  1.00  0.00     0.030 NA
HETATM    9  C   UNL     1      39.935 -12.175   2.190  1.00  0.00     0.037 C 
HETATM   10  C   UNL     1      39.456 -12.459   3.594  1.00  0.00     0.070 C 
HETATM   11  H   UNL     1      39.605 -10.164   2.521  1.00  0.00     0.184 HD
ENDROOT
BRANCH   1  12
HETATM   12  C   UNL     1      40.795 -14.490   1.812  1.00  0.00     0.256 C 
HETATM   13  N   UNL     1      42.081 -14.633   2.280  1.00  0.00    -0.323 N 
HETATM   14  H   UNL     1      42.763 -13.927   2.006  1.00  0.00     0.169 HD
HETATM   15  O   UNL     1      39.961 -15.388   1.762  1.00  0.00    -0.267 OA
BRANCH  13  16
HETATM   16  C   UNL     1      42.655 -15.792   2.858  1.00  0.00     0.041 A 
HETATM   17  C   UNL     1      42.976 -15.970   4.215  1.00  0.00    -0.035 A 
HETATM   18  C   UNL     1      42.869 -14.903   5.269  1.00  0.00     0.050 C 
HETATM   19  C   UNL     1      43.490 -17.216   4.633  1.00  0.00     0.009 A 
HETATM   20  C   UNL     1      43.745 -18.240   3.723  1.00  0.00     0.001 A 
HETATM   21  C   UNL     1      43.499 -18.035   2.374  1.00  0.00     0.002 A 
HETATM   22  C   UNL     1      42.967 -16.818   1.946  1.00  0.00     0.030 A 
ENDBRANCH  13  16
ENDBRANCH   1  12
BRANCH   2  23
HETATM   23  C   UNL     1      39.751 -13.205  -1.101  1.00  0.00     0.064 A 
HETATM   24  N   UNL     1      38.562 -12.537  -1.088  1.00  0.00    -0.263 NA
HETATM   25  C   UNL     1      37.604 -12.929  -1.962  1.00  0.00     0.117 A 
HETATM   26  C   UNL     1      37.782 -13.928  -2.899  1.00  0.00     0.019 A 
HETATM   27  C   UNL     1      39.011 -14.568  -2.943  1.00  0.00     0.003 A 
HETATM   28  C   UNL     1      40.009 -14.205  -2.042  1.00  0.00     0.030 A 
ENDBRANCH   2  23
TORSDOF 3
ENDMDL
MODEL 5
REMARK VINA RESULT:      -7.3      2.724      4.589
REMARK  3 active torsions:
REMARK  status: ('A' for Active; 'I' for Inactive)
REMARK    1  A    between atoms: C_3  and  N_4 
REMARK       I    between atoms: N_4  and  C_5 
REMARK    2  A    between atoms: C_5  and  C_6 
REMARK    3  A    between atoms: C_7  and  C_8 
ROOT
HETATM    1  C   UNL     1      42.642 -13.227   4.410  1.00  0.00     0.063 C 
HETATM    2  C   UNL     1      42.624 -11.764   4.849  1.00  0.00     0.216 C 
HETATM    3  N   UNL     1      43.402 -11.576   6.065  1.00  0.00    -0.091 N 
HETATM    4  C   UNL     1      43.746 -12.586   6.916  1.00  0.00     0.735 A 
HETATM    5  N   UNL     1      43.423 -13.852   6.583  1.00  0.00    -0.191 N 
HETATM    6  N   UNL     1      43.825 -10.396   6.542  1.00  0.00     0.012 NA
HETATM    7  N   UNL     1      44.412 -10.700   7.697  1.00  0.00     0.033 NA
HETATM    8  N   UNL     1      44.364 -12.061   7.945  1.00  0.00     0.030 NA
HETATM    9  C   UNL     1      42.990 -14.198   5.300  1.00  0.00     0.037 C 
HETATM   10  C   UNL     1      42.965 -15.680   5.010  1.00  0.00     0.070 C 
HETATM   11  H   UNL     1      43.786 -14.609   7.159  1.00  0.00     0.184 HD
ENDROOT
BRANCH   1  12
HETATM   12  C   UNL     1      42.462 -13.538   2.949  1.00  0.00     0.256 C 
HETATM   13  N   UNL     1      41.188 -13.373   2.456  1.00  0.00    -0.323 N 
HETATM   14  H   UNL     1      40.423 -13.352   3.129  1.00  0.00     0.169 HD
HETATM   15  O   UNL     1      43.427 -13.912   2.291  1.00  0.00    -0.267 OA
BRANCH  13  16
HETATM   16  C   UNL     1      40.767 -13.520   1.111  1.00  0.00     0.041 A 
HETATM   17  C   UNL     1      40.144 -14.651   0.557  1.00  0.00    -0.035 A 
HETATM   18  C   UNL     1      39.926 -15.953   1.280  1.00  0.00     0.050 C 
HETATM   19  C   UNL     1      39.733 -14.607  -0.792  1.00  0.00     0.009 A 
HETATM   20  C   UNL     1      39.991 -13.497  -1.595  1.00  0.00     0.001 A 
HETATM   21  C   UNL     1      40.673 -12.412  -1.065  1.00  0.00     0.002 A 
HETATM   22  C   UNL     1      41.064 -12.429   0.274  1.00  0.00     0.030 A 
ENDBRANCH  13  16
ENDBRANCH   1  12
BRANCH   2  23
HETATM   23  C   UNL     1      41.192 -11.260   5.052  1.00  0.00     0.064 A 
HETATM   24  N   UNL     1      40.667 -10.539   4.021  1.00  0.00    -0.263 NA
HETATM   25  C   UNL     1      39.401 -10.075   4.150  1.00  0.00     0.117 A 
HETATM   26  C   UNL     1      38.595 -10.337   5.241  1.00  0.00     0.019 A 
HETATM   27  C   UNL     1      39.115 -11.115   6.263  1.00  0.00     0.003 A 
HETATM   28  C   UNL     1      40.423 -11.588   6.172  1.00  0.00     0.030 A 
ENDBRANCH   2  23
TORSDOF 3
ENDMDL
MODEL 6
REMARK VINA RESULT:      -7.2     15.550     17.001
REMARK  3 active torsions:
REMARK  status: ('A' for Active; 'I' for Inactive)
REMARK    1  A    between atoms: C_3  and  N_4 
REMARK       I    between atoms: N_4  and  C_5 
REMARK    2  A    between atoms: C_5  and  C_6 
REMARK    3  A    between atoms: C_7  and  C_8 
ROOT
HETATM    1  C   UNL     1      46.910 -30.202   0.594  1.00  0.00     0.063 C 
HETATM    2  C   UNL     1      47.105 -30.752  -0.818  1.00  0.00     0.216 C 
HETATM    3  N   UNL     1      48.495 -30.630  -1.236  1.00  0.00    -0.091 N 
HETATM    4  C   UNL     1      49.397 -29.789  -0.652  1.00  0.00     0.735 A 
HETATM    5  N   UNL     1      49.017 -29.082   0.432  1.00  0.00    -0.191 N 
HETATM    6  N   UNL     1      49.052 -31.266  -2.276  1.00  0.00     0.012 NA
HETATM    7  N   UNL     1      50.293 -30.790  -2.327  1.00  0.00     0.033 NA
HETATM    8  N   UNL     1      50.519 -29.864  -1.324  1.00  0.00     0.030 NA
HETATM    9  C   UNL     1      47.840 -29.364   1.131  1.00  0.00     0.037 C 
HETATM   10  C   UNL     1      47.719 -28.692   2.478  1.00  0.00     0.070 C 
HETATM   11  H   UNL     1      49.727 -28.551   0.933  1.00  0.00     0.184 HD
ENDROOT
BRANCH   1  12
HETATM   12  C   UNL     1      45.789 -30.759   1.430  1.00  0.00     0.256 C 
HETATM   13  N   UNL     1      44.538 -30.255   1.161  1.00  0.00    -0.323 N 
HETATM   14  H   UNL     1      44.485 -29.368   0.661  1.00  0.00     0.169 HD
HETATM   15  O   UNL     1      46.037 -31.604   2.283  1.00  0.00    -0.267 OA
BRANCH  13  16
HETATM   16  C   UNL     1      43.310 -30.660   1.742  1.00  0.00     0.041 A 
HETATM   17  C   UNL     1      42.517 -31.744   1.330  1.00  0.00    -0.035 A 
HETATM   18  C   UNL     1      42.784 -32.592   0.116  1.00  0.00     0.050 C 
HETATM   19  C   UNL     1      41.348 -32.046   2.060  1.00  0.00     0.009 A 
HETATM   20  C   UNL     1      40.935 -31.256   3.131  1.00  0.00     0.001 A 
HETATM   21  C   UNL     1      41.681 -30.142   3.487  1.00  0.00     0.002 A 
HETATM   22  C   UNL     1      42.853 -29.843   2.792  1.00  0.00     0.030 A 
ENDBRANCH  13  16
ENDBRANCH   1  12
BRANCH   2  23
HETATM   23  C   UNL     1      46.185 -30.052  -1.821  1.00  0.00     0.064 A 
HETATM   24  N   UNL     1      45.030 -30.711  -2.124  1.00  0.00    -0.263 NA
HETATM   25  C   UNL     1      44.179 -30.131  -3.004  1.00  0.00     0.117 A 
HETATM   26  C   UNL     1      44.389 -28.887  -3.567  1.00  0.00     0.019 A 
HETATM   27  C   UNL     1      45.539 -28.197  -3.215  1.00  0.00     0.003 A 
HETATM   28  C   UNL     1      46.446 -28.778  -2.331  1.00  0.00     0.030 A 
ENDBRANCH   2  23
TORSDOF 3
ENDMDL
MODEL 7
REMARK VINA RESULT:      -7.2      2.170      4.219
REMARK  3 active torsions:
REMARK  status: ('A' for Active; 'I' for Inactive)
REMARK    1  A    between atoms: C_3  and  N_4 
REMARK       I    between atoms: N_4  and  C_5 
REMARK    2  A    between atoms: C_5  and  C_6 
REMARK    3  A    between atoms: C_7  and  C_8 
ROOT
HETATM    1  C   UNL     1      41.322 -14.727   3.554  1.00  0.00     0.063 C 
HETATM    2  C   UNL     1      40.714 -14.406   4.919  1.00  0.00     0.216 C 
HETATM    3  N   UNL     1      39.995 -13.140   4.883  1.00  0.00    -0.091 N 
HETATM    4  C   UNL     1      40.176 -12.185   3.924  1.00  0.00     0.735 A 
HETATM    5  N   UNL     1      41.008 -12.450   2.896  1.00  0.00    -0.191 N 
HETATM    6  N   UNL     1      39.119 -12.718   5.806  1.00  0.00     0.012 NA
HETATM    7  N   UNL     1      38.786 -11.493   5.407  1.00  0.00     0.033 NA
HETATM    8  N   UNL     1      39.443 -11.147   4.239  1.00  0.00     0.030 NA
HETATM    9  C   UNL     1      41.484 -13.737   2.633  1.00  0.00     0.037 C 
HETATM   10  C   UNL     1      42.146 -13.913   1.287  1.00  0.00     0.070 C 
HETATM   11  H   UNL     1      41.046 -11.785   2.125  1.00  0.00     0.184 HD
ENDROOT
BRANCH   1  12
HETATM   12  C   UNL     1      41.547 -16.171   3.193  1.00  0.00     0.256 C 
HETATM   13  N   UNL     1      42.717 -16.727   3.657  1.00  0.00    -0.323 N 
HETATM   14  H   UNL     1      43.463 -16.089   3.934  1.00  0.00     0.169 HD
HETATM   15  O   UNL     1      40.705 -16.761   2.525  1.00  0.00    -0.267 OA
BRANCH  13  16
HETATM   16  C   UNL     1      43.132 -18.075   3.528  1.00  0.00     0.041 A 
HETATM   17  C   UNL     1      43.585 -18.905   4.567  1.00  0.00    -0.035 A 
HETATM   18  C   UNL     1      43.818 -18.458   5.985  1.00  0.00     0.050 C 
HETATM   19  C   UNL     1      43.905 -20.248   4.273  1.00  0.00     0.009 A 
HETATM   20  C   UNL     1      43.843 -20.742   2.972  1.00  0.00     0.001 A 
HETATM   21  C   UNL     1      43.468 -19.899   1.936  1.00  0.00     0.002 A 
HETATM   22  C   UNL     1      43.124 -18.575   2.212  1.00  0.00     0.030 A 
ENDBRANCH  13  16
ENDBRANCH   1  12
BRANCH   2  23
HETATM   23  C   UNL     1      41.784 -14.377   6.013  1.00  0.00     0.064 A 
HETATM   24  N   UNL     1      41.851 -15.486   6.804  1.00  0.00    -0.263 NA
HETATM   25  C   UNL     1      42.785 -15.512   7.785  1.00  0.00     0.117 A 
HETATM   26  C   UNL     1      43.707 -14.505   7.994  1.00  0.00     0.019 A 
HETATM   27  C   UNL     1      43.669 -13.402   7.153  1.00  0.00     0.003 A 
HETATM   28  C   UNL     1      42.705 -13.334   6.150  1.00  0.00     0.030 A 
ENDBRANCH   2  23
TORSDOF 3
ENDMDL
MODEL 8
REMARK VINA RESULT:      -7.1      5.386      8.588
REMARK  3 active torsions:
REMARK  status: ('A' for Active; 'I' for Inactive)
REMARK    1  A    between atoms: C_3  and  N_4 
REMARK       I    between atoms: N_4  and  C_5 
REMARK    2  A    between atoms: C_5  and  C_6 
REMARK    3  A    between atoms: C_7  and  C_8 
ROOT
HETATM    1  C   UNL     1      39.022 -12.542  -1.317  1.00  0.00     0.063 C 
HETATM    2  C   UNL     1      38.551 -11.088  -1.267  1.00  0.00     0.216 C 
HETATM    3  N   UNL     1      37.267 -10.934  -1.936  1.00  0.00    -0.091 N 
HETATM    4  C   UNL     1      36.758 -11.834  -2.827  1.00  0.00     0.735 A 
HETATM    5  N   UNL     1      37.433 -12.979  -3.050  1.00  0.00    -0.191 N 
HETATM    6  N   UNL     1      36.454  -9.875  -1.822  1.00  0.00     0.012 NA
HETATM    7  N   UNL     1      35.456 -10.134  -2.664  1.00  0.00     0.033 NA
HETATM    8  N   UNL     1      35.637 -11.348  -3.301  1.00  0.00     0.030 NA
HETATM    9  C   UNL     1      38.482 -13.399  -2.227  1.00  0.00     0.037 C 
HETATM   10  C   UNL     1      38.922 -14.830  -2.429  1.00  0.00     0.070 C 
HETATM   11  H   UNL     1      36.989 -13.696  -3.621  1.00  0.00     0.184 HD
ENDROOT
BRANCH   1  12
HETATM   12  C   UNL     1      39.932 -13.036  -0.225  1.00  0.00     0.256 C 
HETATM   13  N   UNL     1      39.333 -13.796   0.753  1.00  0.00    -0.323 N 
HETATM   14  H   UNL     1      38.320 -13.726   0.848  1.00  0.00     0.169 HD
HETATM   15  O   UNL     1      41.124 -12.747  -0.259  1.00  0.00    -0.267 OA
BRANCH  13  16
HETATM   16  C   UNL     1      39.968 -14.444   1.840  1.00  0.00     0.041 A 
HETATM   17  C   UNL     1      40.104 -13.936   3.143  1.00  0.00    -0.035 A 
HETATM   18  C   UNL     1      39.697 -12.552   3.572  1.00  0.00     0.050 C 
HETATM   19  C   UNL     1      40.716 -14.743   4.126  1.00  0.00     0.009 A 
HETATM   20  C   UNL     1      41.241 -15.995   3.816  1.00  0.00     0.001 A 
HETATM   21  C   UNL     1      41.172 -16.462   2.512  1.00  0.00     0.002 A 
HETATM   22  C   UNL     1      40.549 -15.689   1.532  1.00  0.00     0.030 A 
ENDBRANCH  13  16
ENDBRANCH   1  12
BRANCH   2  23
HETATM   23  C   UNL     1      39.588 -10.146  -1.884  1.00  0.00     0.064 A 
HETATM   24  N   UNL     1      40.191  -9.282  -1.017  1.00  0.00    -0.263 NA
HETATM   25  C   UNL     1      41.120  -8.430  -1.514  1.00  0.00     0.117 A 
HETATM   26  C   UNL     1      41.529  -8.423  -2.833  1.00  0.00     0.019 A 
HETATM   27  C   UNL     1      40.950  -9.339  -3.699  1.00  0.00     0.003 A 
HETATM   28  C   UNL     1      39.975 -10.213  -3.225  1.00  0.00     0.030 A 
ENDBRANCH   2  23
TORSDOF 3
ENDMDL
MODEL 9
REMARK VINA RESULT:      -6.9      3.679      7.651
REMARK  3 active torsions:
REMARK  status: ('A' for Active; 'I' for Inactive)
REMARK    1  A    between atoms: C_3  and  N_4 
REMARK       I    between atoms: N_4  and  C_5 
REMARK    2  A    between atoms: C_5  and  C_6 
REMARK    3  A    between atoms: C_7  and  C_8 
ROOT
HETATM    1  C   UNL     1      42.341 -12.062   6.290  1.00  0.00     0.063 C 
HETATM    2  C   UNL     1      41.002 -12.725   5.973  1.00  0.00     0.216 C 
HETATM    3  N   UNL     1      40.996 -14.117   6.399  1.00  0.00    -0.091 N 
HETATM    4  C   UNL     1      42.124 -14.842   6.655  1.00  0.00     0.735 A 
HETATM    5  N   UNL     1      43.321 -14.222   6.593  1.00  0.00    -0.191 N 
HETATM    6  N   UNL     1      39.905 -14.884   6.533  1.00  0.00     0.012 NA
HETATM    7  N   UNL     1      40.384 -16.084   6.855  1.00  0.00     0.033 NA
HETATM    8  N   UNL     1      41.766 -16.072   6.928  1.00  0.00     0.030 NA
HETATM    9  C   UNL     1      43.438 -12.831   6.536  1.00  0.00     0.037 C 
HETATM   10  C   UNL     1      44.829 -12.295   6.779  1.00  0.00     0.070 C 
HETATM   11  H   UNL     1      44.144 -14.736   6.901  1.00  0.00     0.184 HD
ENDROOT
BRANCH   1  12
HETATM   12  C   UNL     1      42.367 -10.574   6.516  1.00  0.00     0.256 C 
HETATM   13  N   UNL     1      42.332 -10.169   7.830  1.00  0.00    -0.323 N 
HETATM   14  H   UNL     1      41.998 -10.841   8.520  1.00  0.00     0.169 HD
HETATM   15  O   UNL     1      42.416  -9.820   5.549  1.00  0.00    -0.267 OA
BRANCH  13  16
HETATM   16  C   UNL     1      42.424  -8.842   8.318  1.00  0.00     0.041 A 
HETATM   17  C   UNL     1      43.609  -8.158   8.640  1.00  0.00    -0.035 A 
HETATM   18  C   UNL     1      44.984  -8.771   8.632  1.00  0.00     0.050 C 
HETATM   19  C   UNL     1      43.524  -6.813   9.059  1.00  0.00     0.009 A 
HETATM   20  C   UNL     1      42.295  -6.178   9.220  1.00  0.00     0.001 A 
HETATM   21  C   UNL     1      41.124  -6.879   8.974  1.00  0.00     0.002 A 
HETATM   22  C   UNL     1      41.190  -8.202   8.535  1.00  0.00     0.030 A 
ENDBRANCH  13  16
ENDBRANCH   1  12
BRANCH   2  23
HETATM   23  C   UNL     1      40.670 -12.625   4.481  1.00  0.00     0.064 A 
HETATM   24  N   UNL     1      39.375 -12.321   4.182  1.00  0.00    -0.263 NA
HETATM   25  C   UNL     1      39.032 -12.217   2.876  1.00  0.00     0.117 A 
HETATM   26  C   UNL     1      39.929 -12.346   1.834  1.00  0.00     0.019 A 
HETATM   27  C   UNL     1      41.256 -12.603   2.145  1.00  0.00     0.003 A 
HETATM   28  C   UNL     1      41.637 -12.740   3.478  1.00  0.00     0.030 A 
ENDBRANCH   2  23
TORSDOF 3
ENDMDL
MODEL 10
REMARK VINA RESULT:      -6.9      6.189      9.163
REMARK  3 active torsions:
REMARK  status: ('A' for Active; 'I' for Inactive)
REMARK    1  A    between atoms: C_3  and  N_4 
REMARK       I    between atoms: N_4  and  C_5 
REMARK    2  A    between atoms: C_5  and  C_6 
REMARK    3  A    between atoms: C_7  and  C_8 
ROOT
HETATM    1  C   UNL     1      41.357  -9.395  10.014  1.00  0.00     0.063 C 
HETATM    2  C   UNL     1      41.643  -9.547  11.507  1.00  0.00     0.216 C 
HETATM    3  N   UNL     1      40.551 -10.238  12.179  1.00  0.00    -0.091 N 
HETATM    4  C   UNL     1      39.293 -10.360  11.663  1.00  0.00     0.735 A 
HETATM    5  N   UNL     1      39.053  -9.891  10.422  1.00  0.00    -0.191 N 
HETATM    6  N   UNL     1      40.612 -10.781  13.403  1.00  0.00     0.012 NA
HETATM    7  N   UNL     1      39.375 -11.217  13.630  1.00  0.00     0.033 NA
HETATM    8  N   UNL     1      38.543 -10.956  12.557  1.00  0.00     0.030 NA
HETATM    9  C   UNL     1      40.082  -9.525   9.551  1.00  0.00     0.037 C 
HETATM   10  C   UNL     1      39.662  -9.316   8.115  1.00  0.00     0.070 C 
HETATM   11  H   UNL     1      38.149 -10.093   9.999  1.00  0.00     0.184 HD
ENDROOT
BRANCH   1  12
HETATM   12  C   UNL     1      42.523  -9.299   9.067  1.00  0.00     0.256 C 
HETATM   13  N   UNL     1      43.183 -10.479   8.812  1.00  0.00    -0.323 N 
HETATM   14  H   UNL     1      43.050 -11.244   9.473  1.00  0.00     0.169 HD
HETATM   15  O   UNL     1      42.820  -8.210   8.587  1.00  0.00    -0.267 OA
BRANCH  13  16
HETATM   16  C   UNL     1      44.254 -10.681   7.907  1.00  0.00     0.041 A 
HETATM   17  C   UNL     1      45.602 -10.356   8.133  1.00  0.00    -0.035 A 
HETATM   18  C   UNL     1      46.117  -9.623   9.342  1.00  0.00     0.050 C 
HETATM   19  C   UNL     1      46.554 -10.680   7.143  1.00  0.00     0.009 A 
HETATM   20  C   UNL     1      46.176 -11.252   5.930  1.00  0.00     0.001 A 
HETATM   21  C   UNL     1      44.835 -11.502   5.680  1.00  0.00     0.002 A 
HETATM   22  C   UNL     1      43.883 -11.211   6.657  1.00  0.00     0.030 A 
ENDBRANCH  13  16
ENDBRANCH   1  12
BRANCH   2  23
HETATM   23  C   UNL     1      41.899  -8.189  12.166  1.00  0.00     0.064 A 
HETATM   24  N   UNL     1      42.855  -8.174  13.138  1.00  0.00    -0.263 NA
HETATM   25  C   UNL     1      43.122  -6.995  13.749  1.00  0.00     0.117 A 
HETATM   26  C   UNL     1      42.520  -5.800  13.407  1.00  0.00     0.019 A 
HETATM   27  C   UNL     1      41.586  -5.811  12.382  1.00  0.00     0.003 A 
HETATM   28  C   UNL     1      41.272  -7.012  11.749  1.00  0.00     0.030 A 
ENDBRANCH   2  23
TORSDOF 3
ENDMDL
