MODEL 1
REMARK VINA RESULT:      -9.2      0.000      0.000
REMARK  5 active torsions:
REMARK  status: ('A' for Active; 'I' for Inactive)
REMARK    1  A    between atoms: C_2  and  C_3 
REMARK    2  A    between atoms: C_5  and  C_6 
REMARK    3  A    between atoms: C_6  and  C_7 
REMARK       I    between atoms: C_7  and  N_8 
REMARK    4  A    between atoms: N_8  and  C_9 
REMARK    5  A    between atoms: C_16  and  C_17 
REMARK       I    between atoms: C_17  and  N_18 
ROOT
HETATM    1  C   UNL     1      40.731 -13.185   0.216  1.00  0.00     0.035 A 
HETATM    2  C   UNL     1      40.113 -13.882  -0.835  1.00  0.00     0.046 A 
HETATM    3  C   UNL     1      38.938 -13.367  -1.420  1.00  0.00     0.030 A 
HETATM    4  C   UNL     1      38.413 -12.180  -0.930  1.00  0.00     0.063 A 
HETATM    5  N   UNL     1      37.283 -11.952  -1.666  1.00  0.00    -0.277 N 
HETATM    6  H   UNL     1      36.637 -11.177  -1.572  1.00  0.00     0.189 HD
HETATM    7  N   UNL     1      37.038 -12.880  -2.608  1.00  0.00    -0.168 NA
HETATM    8  C   UNL     1      38.056 -13.758  -2.470  1.00  0.00     0.156 A 
HETATM    9  C   UNL     1      39.005 -11.459   0.108  1.00  0.00     0.034 A 
HETATM   10  C   UNL     1      40.178 -11.984   0.667  1.00  0.00     0.032 A 
ENDROOT
BRANCH   1  11
HETATM   11  N   UNL     1      41.864 -13.788   0.795  1.00  0.00    -0.327 N 
HETATM   12  C   UNL     1      41.915 -14.981   1.500  1.00  0.00     0.226 C 
HETATM   13  O   UNL     1      40.957 -15.613   1.933  1.00  0.00    -0.273 OA
HETATM   14  H   UNL     1      42.751 -13.333   0.612  1.00  0.00     0.169 HD
BRANCH  12  15
HETATM   15  C   UNL     1      43.340 -15.484   1.696  1.00  0.00     0.141 C 
BRANCH  15  16
HETATM   16  C   UNL     1      43.444 -16.503   2.810  1.00  0.00    -0.049 A 
HETATM   17  C   UNL     1      43.539 -17.872   2.513  1.00  0.00     0.014 A 
HETATM   18  C   UNL     1      43.670 -18.826   3.531  1.00  0.00    -0.058 A 
HETATM   19  C   UNL     1      43.686 -18.398   4.863  1.00  0.00     0.007 A 
HETATM   20  C   UNL     1      43.563 -17.043   5.170  1.00  0.00     0.001 A 
HETATM   21  C   UNL     1      43.440 -16.098   4.150  1.00  0.00     0.007 A 
BRANCH  18  22
HETATM   22  C   UNL     1      43.833 -20.286   3.189  1.00  0.00     0.034 C 
HETATM   23  C   UNL     1      43.584 -20.552   1.711  1.00  0.00     0.010 C 
ENDBRANCH  18  22
ENDBRANCH  15  16
ENDBRANCH  12  15
ENDBRANCH   1  11
BRANCH   8  24
HETATM   24  C   UNL     1      38.172 -14.941  -3.333  1.00  0.00     0.270 C 
HETATM   25  N   UNL     1      38.277 -16.122  -2.653  1.00  0.00    -0.365 N 
HETATM   26  H   UNL     1      38.256 -16.101  -1.640  1.00  0.00     0.159 HD
HETATM   27  H   UNL     1      38.339 -16.991  -3.160  1.00  0.00     0.159 HD
HETATM   28  O   UNL     1      38.173 -14.907  -4.560  1.00  0.00    -0.266 OA
ENDBRANCH   8  24
TORSDOF 5
ENDMDL
MODEL 2
REMARK VINA RESULT:      -8.9      1.115      2.261
REMARK  5 active torsions:
REMARK  status: ('A' for Active; 'I' for Inactive)
REMARK    1  A    between atoms: C_2  and  C_3 
REMARK    2  A    between atoms: C_5  and  C_6 
REMARK    3  A    between atoms: C_6  and  C_7 
REMARK       I    between atoms: C_7  and  N_8 
REMARK    4  A    between atoms: N_8  and  C_9 
REMARK    5  A    between atoms: C_16  and  C_17 
REMARK       I    between atoms: C_17  and  N_18 
ROOT
HETATM    1  C   UNL     1      41.185 -14.096   0.907  1.00  0.00     0.035 A 
HETATM    2  C   UNL     1      40.515 -14.484  -0.265  1.00  0.00     0.046 A 
HETATM    3  C   UNL     1      39.407 -13.738  -0.716  1.00  0.00     0.030 A 
HETATM    4  C   UNL     1      38.997 -12.638   0.024  1.00  0.00     0.063 A 
HETATM    5  N   UNL     1      37.907 -12.143  -0.637  1.00  0.00    -0.277 N 
HETATM    6  H   UNL     1      37.341 -11.345  -0.373  1.00  0.00     0.189 HD
HETATM    7  N   UNL     1      37.583 -12.815  -1.755  1.00  0.00    -0.168 NA
HETATM    8  C   UNL     1      38.505 -13.802  -1.818  1.00  0.00     0.156 A 
HETATM    9  C   UNL     1      39.643 -12.222   1.189  1.00  0.00     0.034 A 
HETATM   10  C   UNL     1      40.750 -12.971   1.612  1.00  0.00     0.032 A 
ENDROOT
BRANCH   1  11
HETATM   11  N   UNL     1      42.244 -14.922   1.334  1.00  0.00    -0.327 N 
HETATM   12  C   UNL     1      42.149 -16.157   1.956  1.00  0.00     0.226 C 
HETATM   13  O   UNL     1      41.137 -16.653   2.442  1.00  0.00    -0.273 OA
HETATM   14  H   UNL     1      43.176 -14.607   1.092  1.00  0.00     0.169 HD
BRANCH  12  15
HETATM   15  C   UNL     1      43.477 -16.903   1.979  1.00  0.00     0.141 C 
BRANCH  15  16
HETATM   16  C   UNL     1      43.625 -17.782   3.202  1.00  0.00    -0.049 A 
HETATM   17  C   UNL     1      43.473 -17.241   4.489  1.00  0.00     0.014 A 
HETATM   18  C   UNL     1      43.573 -18.047   5.630  1.00  0.00    -0.058 A 
HETATM   19  C   UNL     1      43.849 -19.410   5.475  1.00  0.00     0.007 A 
HETATM   20  C   UNL     1      44.030 -19.952   4.202  1.00  0.00     0.001 A 
HETATM   21  C   UNL     1      43.921 -19.144   3.070  1.00  0.00     0.007 A 
BRANCH  18  22
HETATM   22  C   UNL     1      43.346 -17.458   7.000  1.00  0.00     0.034 C 
HETATM   23  C   UNL     1      42.331 -16.325   6.967  1.00  0.00     0.010 C 
ENDBRANCH  18  22
ENDBRANCH  15  16
ENDBRANCH  12  15
ENDBRANCH   1  11
BRANCH   8  24
HETATM   24  C   UNL     1      38.514 -14.775  -2.917  1.00  0.00     0.270 C 
HETATM   25  N   UNL     1      38.335 -16.071  -2.519  1.00  0.00    -0.365 N 
HETATM   26  H   UNL     1      38.202 -16.260  -1.533  1.00  0.00     0.159 HD
HETATM   27  H   UNL     1      38.305 -16.809  -3.205  1.00  0.00     0.159 HD
HETATM   28  O   UNL     1      38.662 -14.484  -4.101  1.00  0.00    -0.266 OA
ENDBRANCH   8  24
TORSDOF 5
ENDMDL
MODEL 3
REMARK VINA RESULT:      -8.5      6.250      9.497
REMARK  5 active torsions:
REMARK  status: ('A' for Active; 'I' for Inactive)
REMARK    1  A    between atoms: C_2  and  C_3 
REMARK    2  A    between atoms: C_5  and  C_6 
REMARK    3  A    between atoms: C_6  and  C_7 
REMARK       I    between atoms: C_7  and  N_8 
REMARK    4  A    between atoms: N_8  and  C_9 
REMARK    5  A    between atoms: C_16  and  C_17 
REMARK       I    between atoms: C_17  and  N_18 
ROOT
HETATM    1  C   UNL     1      44.162 -12.118   6.673  1.00  0.00     0.035 A 
HETATM    2  C   UNL     1      43.671 -11.721   7.929  1.00  0.00     0.046 A 
HETATM    3  C   UNL     1      44.405 -10.802   8.707  1.00  0.00     0.030 A 
HETATM    4  C   UNL     1      45.607 -10.318   8.212  1.00  0.00     0.063 A 
HETATM    5  N   UNL     1      46.087  -9.482   9.181  1.00  0.00    -0.277 N 
HETATM    6  H   UNL     1      46.956  -8.960   9.165  1.00  0.00     0.189 HD
HETATM    7  N   UNL     1      45.290  -9.364  10.258  1.00  0.00    -0.168 NA
HETATM    8  C   UNL     1      44.244 -10.172   9.975  1.00  0.00     0.156 A 
HETATM    9  C   UNL     1      46.120 -10.687   6.968  1.00  0.00     0.034 A 
HETATM   10  C   UNL     1      45.369 -11.593   6.206  1.00  0.00     0.032 A 
ENDROOT
BRANCH   1  11
HETATM   11  N   UNL     1      43.411 -13.086   5.978  1.00  0.00    -0.327 N 
HETATM   12  C   UNL     1      43.445 -14.461   6.152  1.00  0.00     0.226 C 
HETATM   13  O   UNL     1      44.284 -15.096   6.783  1.00  0.00    -0.273 OA
HETATM   14  H   UNL     1      42.719 -12.729   5.331  1.00  0.00     0.169 HD
BRANCH  12  15
HETATM   15  C   UNL     1      42.280 -15.166   5.468  1.00  0.00     0.141 C 
BRANCH  15  16
HETATM   16  C   UNL     1      42.697 -15.871   4.197  1.00  0.00    -0.049 A 
HETATM   17  C   UNL     1      43.113 -17.212   4.231  1.00  0.00     0.014 A 
HETATM   18  C   UNL     1      43.471 -17.890   3.059  1.00  0.00    -0.058 A 
HETATM   19  C   UNL     1      43.428 -17.204   1.840  1.00  0.00     0.007 A 
HETATM   20  C   UNL     1      43.044 -15.864   1.797  1.00  0.00     0.001 A 
HETATM   21  C   UNL     1      42.682 -15.198   2.969  1.00  0.00     0.007 A 
BRANCH  18  22
HETATM   22  C   UNL     1      43.856 -19.347   3.110  1.00  0.00     0.034 C 
HETATM   23  C   UNL     1      43.232 -20.137   1.968  1.00  0.00     0.010 C 
ENDBRANCH  18  22
ENDBRANCH  15  16
ENDBRANCH  12  15
ENDBRANCH   1  11
BRANCH   8  24
HETATM   24  C   UNL     1      43.119 -10.325  10.907  1.00  0.00     0.270 C 
HETATM   25  N   UNL     1      43.348 -11.214  11.919  1.00  0.00    -0.365 N 
HETATM   26  H   UNL     1      44.247 -11.679  11.962  1.00  0.00     0.159 HD
HETATM   27  H   UNL     1      42.641 -11.371  12.621  1.00  0.00     0.159 HD
HETATM   28  O   UNL     1      42.055  -9.719  10.816  1.00  0.00    -0.266 OA
ENDBRANCH   8  24
TORSDOF 5
ENDMDL
MODEL 4
REMARK VINA RESULT:      -8.5      1.373      1.936
REMARK  5 active torsions:
REMARK  status: ('A' for Active; 'I' for Inactive)
REMARK    1  A    between atoms: C_2  and  C_3 
REMARK    2  A    between atoms: C_5  and  C_6 
REMARK    3  A    between atoms: C_6  and  C_7 
REMARK       I    between atoms: C_7  and  N_8 
REMARK    4  A    between atoms: N_8  and  C_9 
REMARK    5  A    between atoms: C_16  and  C_17 
REMARK       I    between atoms: C_17  and  N_18 
ROOT
HETATM    1  C   UNL     1      40.590 -12.788   1.818  1.00  0.00     0.035 A 
HETATM    2  C   UNL     1      40.402 -13.393   0.564  1.00  0.00     0.046 A 
HETATM    3  C   UNL     1      39.299 -13.022  -0.233  1.00  0.00     0.030 A 
HETATM    4  C   UNL     1      38.414 -12.070   0.254  1.00  0.00     0.063 A 
HETATM    5  N   UNL     1      37.455 -11.940  -0.713  1.00  0.00    -0.277 N 
HETATM    6  H   UNL     1      36.640 -11.338  -0.690  1.00  0.00     0.189 HD
HETATM    7  N   UNL     1      37.650 -12.712  -1.796  1.00  0.00    -0.168 NA
HETATM    8  C   UNL     1      38.789 -13.383  -1.514  1.00  0.00     0.156 A 
HETATM    9  C   UNL     1      38.573 -11.447   1.492  1.00  0.00     0.034 A 
HETATM   10  C   UNL     1      39.683 -11.822   2.262  1.00  0.00     0.032 A 
ENDROOT
BRANCH   1  11
HETATM   11  N   UNL     1      41.675 -13.251   2.587  1.00  0.00    -0.327 N 
HETATM   12  C   UNL     1      41.647 -14.201   3.596  1.00  0.00     0.226 C 
HETATM   13  O   UNL     1      40.647 -14.650   4.148  1.00  0.00    -0.273 OA
HETATM   14  H   UNL     1      42.587 -12.901   2.321  1.00  0.00     0.169 HD
BRANCH  12  15
HETATM   15  C   UNL     1      43.040 -14.686   3.981  1.00  0.00     0.141 C 
BRANCH  15  16
HETATM   16  C   UNL     1      43.253 -16.147   3.653  1.00  0.00    -0.049 A 
HETATM   17  C   UNL     1      43.555 -17.068   4.669  1.00  0.00     0.014 A 
HETATM   18  C   UNL     1      43.723 -18.429   4.386  1.00  0.00    -0.058 A 
HETATM   19  C   UNL     1      43.606 -18.866   3.062  1.00  0.00     0.007 A 
HETATM   20  C   UNL     1      43.335 -17.956   2.041  1.00  0.00     0.001 A 
HETATM   21  C   UNL     1      43.162 -16.602   2.331  1.00  0.00     0.007 A 
BRANCH  18  22
HETATM   22  C   UNL     1      43.985 -19.411   5.500  1.00  0.00     0.034 C 
HETATM   23  C   UNL     1      44.005 -20.847   4.996  1.00  0.00     0.010 C 
ENDBRANCH  18  22
ENDBRANCH  15  16
ENDBRANCH  12  15
ENDBRANCH   1  11
BRANCH   8  24
HETATM   24  C   UNL     1      39.370 -14.344  -2.462  1.00  0.00     0.270 C 
HETATM   25  N   UNL     1      38.641 -15.491  -2.612  1.00  0.00    -0.365 N 
HETATM   26  H   UNL     1      37.780 -15.590  -2.088  1.00  0.00     0.159 HD
HETATM   27  H   UNL     1      38.949 -16.201  -3.258  1.00  0.00     0.159 HD
HETATM   28  O   UNL     1      40.411 -14.160  -3.085  1.00  0.00    -0.266 OA
ENDBRANCH   8  24
TORSDOF 5
ENDMDL
MODEL 5
REMARK VINA RESULT:      -8.4      6.167      9.462
REMARK  5 active torsions:
REMARK  status: ('A' for Active; 'I' for Inactive)
REMARK    1  A    between atoms: C_2  and  C_3 
REMARK    2  A    between atoms: C_5  and  C_6 
REMARK    3  A    between atoms: C_6  and  C_7 
REMARK       I    between atoms: C_7  and  N_8 
REMARK    4  A    between atoms: N_8  and  C_9 
REMARK    5  A    between atoms: C_16  and  C_17 
REMARK       I    between atoms: C_17  and  N_18 
ROOT
HETATM    1  C   UNL     1      43.926 -12.481   7.136  1.00  0.00     0.035 A 
HETATM    2  C   UNL     1      43.787 -11.489   8.121  1.00  0.00     0.046 A 
HETATM    3  C   UNL     1      44.721 -10.434   8.188  1.00  0.00     0.030 A 
HETATM    4  C   UNL     1      45.767 -10.411   7.278  1.00  0.00     0.063 A 
HETATM    5  N   UNL     1      46.504  -9.305   7.601  1.00  0.00    -0.277 N 
HETATM    6  H   UNL     1      47.353  -8.982   7.152  1.00  0.00     0.189 HD
HETATM    7  N   UNL     1      46.015  -8.594   8.632  1.00  0.00    -0.168 NA
HETATM    8  C   UNL     1      44.910  -9.280   9.002  1.00  0.00     0.156 A 
HETATM    9  C   UNL     1      45.932 -11.377   6.283  1.00  0.00     0.034 A 
HETATM   10  C   UNL     1      44.985 -12.409   6.229  1.00  0.00     0.032 A 
ENDROOT
BRANCH   1  11
HETATM   11  N   UNL     1      42.996 -13.538   7.168  1.00  0.00    -0.327 N 
HETATM   12  C   UNL     1      41.969 -13.783   6.269  1.00  0.00     0.226 C 
HETATM   13  O   UNL     1      41.549 -13.010   5.414  1.00  0.00    -0.273 OA
HETATM   14  H   UNL     1      43.142 -14.235   7.888  1.00  0.00     0.169 HD
BRANCH  12  15
HETATM   15  C   UNL     1      41.374 -15.177   6.426  1.00  0.00     0.141 C 
BRANCH  15  16
HETATM   16  C   UNL     1      42.218 -16.243   5.762  1.00  0.00    -0.049 A 
HETATM   17  C   UNL     1      42.273 -16.336   4.362  1.00  0.00     0.014 A 
HETATM   18  C   UNL     1      43.075 -17.296   3.731  1.00  0.00    -0.058 A 
HETATM   19  C   UNL     1      43.816 -18.184   4.519  1.00  0.00     0.007 A 
HETATM   20  C   UNL     1      43.747 -18.118   5.911  1.00  0.00     0.001 A 
HETATM   21  C   UNL     1      42.951 -17.155   6.532  1.00  0.00     0.007 A 
BRANCH  18  22
HETATM   22  C   UNL     1      43.168 -17.340   2.227  1.00  0.00     0.034 C 
HETATM   23  C   UNL     1      43.264 -15.945   1.625  1.00  0.00     0.010 C 
ENDBRANCH  18  22
ENDBRANCH  15  16
ENDBRANCH  12  15
ENDBRANCH   1  11
BRANCH   8  24
HETATM   24  C   UNL     1      44.059  -8.825  10.110  1.00  0.00     0.270 C 
HETATM   25  N   UNL     1      43.217  -7.799   9.784  1.00  0.00    -0.365 N 
HETATM   26  H   UNL     1      43.229  -7.445   8.835  1.00  0.00     0.159 HD
HETATM   27  H   UNL     1      42.579  -7.433  10.474  1.00  0.00     0.159 HD
HETATM   28  O   UNL     1      44.075  -9.306  11.239  1.00  0.00    -0.266 OA
ENDBRANCH   8  24
TORSDOF 5
ENDMDL
MODEL 6
REMARK VINA RESULT:      -8.3      5.816      8.505
REMARK  5 active torsions:
REMARK  status: ('A' for Active; 'I' for Inactive)
REMARK    1  A    between atoms: C_2  and  C_3 
REMARK    2  A    between atoms: C_5  and  C_6 
REMARK    3  A    between atoms: C_6  and  C_7 
REMARK       I    between atoms: C_7  and  N_8 
REMARK    4  A    between atoms: N_8  and  C_9 
REMARK    5  A    between atoms: C_16  and  C_17 
REMARK       I    between atoms: C_17  and  N_18 
ROOT
HETATM    1  C   UNL     1      43.344 -13.540   6.383  1.00  0.00     0.035 A 
HETATM    2  C   UNL     1      44.015 -12.596   7.178  1.00  0.00     0.046 A 
HETATM    3  C   UNL     1      43.539 -11.270   7.241  1.00  0.00     0.030 A 
HETATM    4  C   UNL     1      42.417 -10.928   6.500  1.00  0.00     0.063 A 
HETATM    5  N   UNL     1      42.215  -9.597   6.742  1.00  0.00    -0.277 N 
HETATM    6  H   UNL     1      41.488  -9.008   6.355  1.00  0.00     0.189 HD
HETATM    7  N   UNL     1      43.099  -9.047   7.594  1.00  0.00    -0.168 NA
HETATM    8  C   UNL     1      43.921 -10.072   7.913  1.00  0.00     0.156 A 
HETATM    9  C   UNL     1      41.723 -11.842   5.705  1.00  0.00     0.034 A 
HETATM   10  C   UNL     1      42.207 -13.157   5.667  1.00  0.00     0.032 A 
ENDROOT
BRANCH   1  11
HETATM   11  N   UNL     1      43.910 -14.828   6.317  1.00  0.00    -0.327 N 
HETATM   12  C   UNL     1      43.360 -16.014   6.776  1.00  0.00     0.226 C 
HETATM   13  O   UNL     1      42.386 -16.129   7.513  1.00  0.00    -0.273 OA
HETATM   14  H   UNL     1      44.785 -14.901   5.811  1.00  0.00     0.169 HD
BRANCH  12  15
HETATM   15  C   UNL     1      44.095 -17.242   6.251  1.00  0.00     0.141 C 
BRANCH  15  16
HETATM   16  C   UNL     1      43.698 -17.589   4.833  1.00  0.00    -0.049 A 
HETATM   17  C   UNL     1      42.673 -16.879   4.187  1.00  0.00     0.014 A 
HETATM   18  C   UNL     1      42.316 -17.167   2.863  1.00  0.00    -0.058 A 
HETATM   19  C   UNL     1      42.986 -18.194   2.188  1.00  0.00     0.007 A 
HETATM   20  C   UNL     1      43.986 -18.924   2.830  1.00  0.00     0.001 A 
HETATM   21  C   UNL     1      44.340 -18.628   4.147  1.00  0.00     0.007 A 
BRANCH  18  22
HETATM   22  C   UNL     1      41.256 -16.351   2.167  1.00  0.00     0.034 C 
HETATM   23  C   UNL     1      40.329 -15.664   3.159  1.00  0.00     0.010 C 
ENDBRANCH  18  22
ENDBRANCH  15  16
ENDBRANCH  12  15
ENDBRANCH   1  11
BRANCH   8  24
HETATM   24  C   UNL     1      45.041  -9.896   8.846  1.00  0.00     0.270 C 
HETATM   25  N   UNL     1      45.941  -8.940   8.464  1.00  0.00    -0.365 N 
HETATM   26  H   UNL     1      45.773  -8.432   7.604  1.00  0.00     0.159 HD
HETATM   27  H   UNL     1      46.734  -8.732   9.052  1.00  0.00     0.159 HD
HETATM   28  O   UNL     1      45.184 -10.530   9.887  1.00  0.00    -0.266 OA
ENDBRANCH   8  24
TORSDOF 5
ENDMDL
MODEL 7
REMARK VINA RESULT:      -8.2      1.762      2.755
REMARK  5 active torsions:
REMARK  status: ('A' for Active; 'I' for Inactive)
REMARK    1  A    between atoms: C_2  and  C_3 
REMARK    2  A    between atoms: C_5  and  C_6 
REMARK    3  A    between atoms: C_6  and  C_7 
REMARK       I    between atoms: C_7  and  N_8 
REMARK    4  A    between atoms: N_8  and  C_9 
REMARK    5  A    between atoms: C_16  and  C_17 
REMARK       I    between atoms: C_17  and  N_18 
ROOT
HETATM    1  C   UNL     1      40.073 -13.814  -0.759  1.00  0.00     0.035 A 
HETATM    2  C   UNL     1      39.381 -12.592  -0.720  1.00  0.00     0.046 A 
HETATM    3  C   UNL     1      38.285 -12.381  -1.582  1.00  0.00     0.030 A 
HETATM    4  C   UNL     1      37.924 -13.391  -2.461  1.00  0.00     0.063 A 
HETATM    5  N   UNL     1      36.863 -12.894  -3.168  1.00  0.00    -0.277 N 
HETATM    6  H   UNL     1      36.350 -13.357  -3.909  1.00  0.00     0.189 HD
HETATM    7  N   UNL     1      36.490 -11.653  -2.809  1.00  0.00    -0.168 NA
HETATM    8  C   UNL     1      37.359 -11.325  -1.826  1.00  0.00     0.156 A 
HETATM    9  C   UNL     1      38.586 -14.618  -2.523  1.00  0.00     0.034 A 
HETATM   10  C   UNL     1      39.665 -14.810  -1.649  1.00  0.00     0.032 A 
ENDROOT
BRANCH   1  11
HETATM   11  N   UNL     1      41.196 -13.932   0.083  1.00  0.00    -0.327 N 
HETATM   12  C   UNL     1      41.400 -14.866   1.087  1.00  0.00     0.226 C 
HETATM   13  O   UNL     1      40.556 -15.616   1.568  1.00  0.00    -0.273 OA
HETATM   14  H   UNL     1      41.968 -13.309  -0.119  1.00  0.00     0.169 HD
BRANCH  12  15
HETATM   15  C   UNL     1      42.846 -14.901   1.567  1.00  0.00     0.141 C 
BRANCH  15  16
HETATM   16  C   UNL     1      43.064 -15.915   2.668  1.00  0.00    -0.049 A 
HETATM   17  C   UNL     1      43.332 -17.258   2.356  1.00  0.00     0.014 A 
HETATM   18  C   UNL     1      43.569 -18.202   3.363  1.00  0.00    -0.058 A 
HETATM   19  C   UNL     1      43.516 -17.795   4.701  1.00  0.00     0.007 A 
HETATM   20  C   UNL     1      43.222 -16.470   5.023  1.00  0.00     0.001 A 
HETATM   21  C   UNL     1      42.993 -15.533   4.014  1.00  0.00     0.007 A 
BRANCH  18  22
HETATM   22  C   UNL     1      43.917 -19.625   3.005  1.00  0.00     0.034 C 
HETATM   23  C   UNL     1      43.095 -20.129   1.827  1.00  0.00     0.010 C 
ENDBRANCH  18  22
ENDBRANCH  15  16
ENDBRANCH  12  15
ENDBRANCH   1  11
BRANCH   8  24
HETATM   24  C   UNL     1      37.289 -10.028  -1.141  1.00  0.00     0.270 C 
HETATM   25  N   UNL     1      36.063  -9.742  -0.609  1.00  0.00    -0.365 N 
HETATM   26  H   UNL     1      35.320 -10.423  -0.710  1.00  0.00     0.159 HD
HETATM   27  H   UNL     1      35.924  -8.882  -0.101  1.00  0.00     0.159 HD
HETATM   28  O   UNL     1      38.232  -9.249  -1.034  1.00  0.00    -0.266 OA
ENDBRANCH   8  24
TORSDOF 5
ENDMDL
MODEL 8
REMARK VINA RESULT:      -8.1      3.051      8.881
REMARK  5 active torsions:
REMARK  status: ('A' for Active; 'I' for Inactive)
REMARK    1  A    between atoms: C_2  and  C_3 
REMARK    2  A    between atoms: C_5  and  C_6 
REMARK    3  A    between atoms: C_6  and  C_7 
REMARK       I    between atoms: C_7  and  N_8 
REMARK    4  A    between atoms: N_8  and  C_9 
REMARK    5  A    between atoms: C_16  and  C_17 
REMARK       I    between atoms: C_17  and  N_18 
ROOT
HETATM    1  C   UNL     1      42.525 -16.009   2.380  1.00  0.00     0.035 A 
HETATM    2  C   UNL     1      42.309 -15.849   3.759  1.00  0.00     0.046 A 
HETATM    3  C   UNL     1      42.804 -16.814   4.661  1.00  0.00     0.030 A 
HETATM    4  C   UNL     1      43.487 -17.911   4.155  1.00  0.00     0.063 A 
HETATM    5  N   UNL     1      43.816 -18.667   5.247  1.00  0.00    -0.277 N 
HETATM    6  H   UNL     1      44.311 -19.551   5.253  1.00  0.00     0.189 HD
HETATM    7  N   UNL     1      43.423 -18.145   6.422  1.00  0.00    -0.168 NA
HETATM    8  C   UNL     1      42.800 -16.997   6.074  1.00  0.00     0.156 A 
HETATM    9  C   UNL     1      43.723 -18.098   2.793  1.00  0.00     0.034 A 
HETATM   10  C   UNL     1      43.233 -17.120   1.916  1.00  0.00     0.032 A 
ENDROOT
BRANCH   1  11
HETATM   11  N   UNL     1      41.949 -15.042   1.533  1.00  0.00    -0.327 N 
HETATM   12  C   UNL     1      40.601 -14.841   1.279  1.00  0.00     0.226 C 
HETATM   13  O   UNL     1      39.683 -15.602   1.570  1.00  0.00    -0.273 OA
HETATM   14  H   UNL     1      42.591 -14.374   1.123  1.00  0.00     0.169 HD
BRANCH  12  15
HETATM   15  C   UNL     1      40.330 -13.516   0.578  1.00  0.00     0.141 C 
BRANCH  15  16
HETATM   16  C   UNL     1      39.487 -13.683  -0.667  1.00  0.00    -0.049 A 
HETATM   17  C   UNL     1      38.586 -12.678  -1.056  1.00  0.00     0.014 A 
HETATM   18  C   UNL     1      37.822 -12.803  -2.223  1.00  0.00    -0.058 A 
HETATM   19  C   UNL     1      37.952 -13.961  -2.998  1.00  0.00     0.007 A 
HETATM   20  C   UNL     1      38.823 -14.977  -2.606  1.00  0.00     0.001 A 
HETATM   21  C   UNL     1      39.585 -14.843  -1.445  1.00  0.00     0.007 A 
BRANCH  18  22
HETATM   22  C   UNL     1      36.907 -11.685  -2.657  1.00  0.00     0.034 C 
HETATM   23  C   UNL     1      37.663 -10.379  -2.856  1.00  0.00     0.010 C 
ENDBRANCH  18  22
ENDBRANCH  15  16
ENDBRANCH  12  15
ENDBRANCH   1  11
BRANCH   8  24
HETATM   24  C   UNL     1      42.220 -16.101   7.084  1.00  0.00     0.270 C 
HETATM   25  N   UNL     1      43.018 -15.898   8.175  1.00  0.00    -0.365 N 
HETATM   26  H   UNL     1      43.924 -16.352   8.205  1.00  0.00     0.159 HD
HETATM   27  H   UNL     1      42.715 -15.281   8.912  1.00  0.00     0.159 HD
HETATM   28  O   UNL     1      41.122 -15.562   6.985  1.00  0.00    -0.266 OA
ENDBRANCH   8  24
TORSDOF 5
ENDMDL
MODEL 9
REMARK VINA RESULT:      -7.9      4.124      5.909
REMARK  5 active torsions:
REMARK  status: ('A' for Active; 'I' for Inactive)
REMARK    1  A    between atoms: C_2  and  C_3 
REMARK    2  A    between atoms: C_5  and  C_6 
REMARK    3  A    between atoms: C_6  and  C_7 
REMARK       I    between atoms: C_7  and  N_8 
REMARK    4  A    between atoms: N_8  and  C_9 
REMARK    5  A    between atoms: C_16  and  C_17 
REMARK       I    between atoms: C_17  and  N_18 
ROOT
HETATM    1  C   UNL     1      40.851 -12.576   3.658  1.00  0.00     0.035 A 
HETATM    2  C   UNL     1      40.547 -12.068   4.932  1.00  0.00     0.046 A 
HETATM    3  C   UNL     1      39.541 -11.090   5.073  1.00  0.00     0.030 A 
HETATM    4  C   UNL     1      38.881 -10.643   3.938  1.00  0.00     0.063 A 
HETATM    5  N   UNL     1      37.997  -9.699   4.381  1.00  0.00    -0.277 N 
HETATM    6  H   UNL     1      37.355  -9.151   3.821  1.00  0.00     0.189 HD
HETATM    7  N   UNL     1      38.011  -9.507   5.712  1.00  0.00    -0.168 NA
HETATM    8  C   UNL     1      38.959 -10.364   6.153  1.00  0.00     0.156 A 
HETATM    9  C   UNL     1      39.154 -11.130   2.658  1.00  0.00     0.034 A 
HETATM   10  C   UNL     1      40.150 -12.110   2.543  1.00  0.00     0.032 A 
ENDROOT
BRANCH   1  11
HETATM   11  N   UNL     1      41.909 -13.503   3.582  1.00  0.00    -0.327 N 
HETATM   12  C   UNL     1      41.877 -14.774   3.029  1.00  0.00     0.226 C 
HETATM   13  O   UNL     1      40.875 -15.402   2.703  1.00  0.00    -0.273 OA
HETATM   14  H   UNL     1      42.811 -13.173   3.905  1.00  0.00     0.169 HD
BRANCH  12  15
HETATM   15  C   UNL     1      43.269 -15.361   2.832  1.00  0.00     0.141 C 
BRANCH  15  16
HETATM   16  C   UNL     1      43.497 -16.600   3.669  1.00  0.00    -0.049 A 
HETATM   17  C   UNL     1      43.515 -17.870   3.070  1.00  0.00     0.014 A 
HETATM   18  C   UNL     1      43.758 -19.024   3.825  1.00  0.00    -0.058 A 
HETATM   19  C   UNL     1      43.967 -18.900   5.203  1.00  0.00     0.007 A 
HETATM   20  C   UNL     1      43.923 -17.647   5.813  1.00  0.00     0.001 A 
HETATM   21  C   UNL     1      43.687 -16.501   5.053  1.00  0.00     0.007 A 
BRANCH  18  22
HETATM   22  C   UNL     1      43.834 -20.372   3.153  1.00  0.00     0.034 C 
HETATM   23  C   UNL     1      43.333 -20.316   1.716  1.00  0.00     0.010 C 
ENDBRANCH  18  22
ENDBRANCH  15  16
ENDBRANCH  12  15
ENDBRANCH   1  11
BRANCH   8  24
HETATM   24  C   UNL     1      39.287 -10.479   7.580  1.00  0.00     0.270 C 
HETATM   25  N   UNL     1      40.531 -10.017   7.906  1.00  0.00    -0.365 N 
HETATM   26  H   UNL     1      41.114  -9.632   7.172  1.00  0.00     0.159 HD
HETATM   27  H   UNL     1      40.838 -10.035   8.866  1.00  0.00     0.159 HD
HETATM   28  O   UNL     1      38.530 -10.938   8.431  1.00  0.00    -0.266 OA
ENDBRANCH   8  24
TORSDOF 5
ENDMDL
MODEL 10
REMARK VINA RESULT:      -7.9     14.997     16.758
REMARK  5 active torsions:
REMARK  status: ('A' for Active; 'I' for Inactive)
REMARK    1  A    between atoms: C_2  and  C_3 
REMARK    2  A    between atoms: C_5  and  C_6 
REMARK    3  A    between atoms: C_6  and  C_7 
REMARK       I    between atoms: C_7  and  N_8 
REMARK    4  A    between atoms: N_8  and  C_9 
REMARK    5  A    between atoms: C_16  and  C_17 
REMARK       I    between atoms: C_17  and  N_18 
ROOT
HETATM    1  C   UNL     1      42.312 -30.513   2.938  1.00  0.00     0.035 A 
HETATM    2  C   UNL     1      41.768 -30.910   4.171  1.00  0.00     0.046 A 
HETATM    3  C   UNL     1      40.579 -31.668   4.199  1.00  0.00     0.030 A 
HETATM    4  C   UNL     1      39.967 -31.994   2.998  1.00  0.00     0.063 A 
HETATM    5  N   UNL     1      38.845 -32.697   3.342  1.00  0.00    -0.277 N 
HETATM    6  H   UNL     1      38.149 -33.084   2.716  1.00  0.00     0.189 HD
HETATM    7  N   UNL     1      38.685 -32.874   4.665  1.00  0.00    -0.168 NA
HETATM    8  C   UNL     1      39.753 -32.245   5.207  1.00  0.00     0.156 A 
HETATM    9  C   UNL     1      40.482 -31.621   1.756  1.00  0.00     0.034 A 
HETATM   10  C   UNL     1      41.671 -30.878   1.751  1.00  0.00     0.032 A 
ENDROOT
BRANCH   1  11
HETATM   11  N   UNL     1      43.464 -29.705   2.985  1.00  0.00    -0.327 N 
HETATM   12  C   UNL     1      44.758 -30.062   2.636  1.00  0.00     0.226 C 
HETATM   13  O   UNL     1      45.170 -31.199   2.431  1.00  0.00    -0.273 OA
HETATM   14  H   UNL     1      43.315 -28.735   3.235  1.00  0.00     0.169 HD
BRANCH  12  15
HETATM   15  C   UNL     1      45.681 -28.857   2.504  1.00  0.00     0.141 C 
BRANCH  15  16
HETATM   16  C   UNL     1      46.115 -28.616   1.075  1.00  0.00    -0.049 A 
HETATM   17  C   UNL     1      45.214 -28.812   0.016  1.00  0.00     0.014 A 
HETATM   18  C   UNL     1      45.589 -28.561  -1.310  1.00  0.00    -0.058 A 
HETATM   19  C   UNL     1      46.893 -28.126  -1.575  1.00  0.00     0.007 A 
HETATM   20  C   UNL     1      47.804 -27.955  -0.533  1.00  0.00     0.001 A 
HETATM   21  C   UNL     1      47.421 -28.201   0.786  1.00  0.00     0.007 A 
BRANCH  18  22
HETATM   22  C   UNL     1      44.588 -28.718  -2.427  1.00  0.00     0.034 C 
HETATM   23  C   UNL     1      45.106 -28.139  -3.736  1.00  0.00     0.010 C 
ENDBRANCH  18  22
ENDBRANCH  15  16
ENDBRANCH  12  15
ENDBRANCH   1  11
BRANCH   8  24
HETATM   24  C   UNL     1      39.968 -32.211   6.659  1.00  0.00     0.270 C 
HETATM   25  N   UNL     1      41.041 -32.943   7.084  1.00  0.00    -0.365 N 
HETATM   26  H   UNL     1      41.598 -33.431   6.393  1.00  0.00     0.159 HD
HETATM   27  H   UNL     1      41.281 -32.963   8.063  1.00  0.00     0.159 HD
HETATM   28  O   UNL     1      39.268 -31.584   7.450  1.00  0.00    -0.266 OA
ENDBRANCH   8  24
TORSDOF 5
ENDMDL
