MODEL 1
REMARK VINA RESULT:     -10.2      0.000      0.000
REMARK  6 active torsions:
REMARK  status: ('A' for Active; 'I' for Inactive)
REMARK    1  A    between atoms: O_2  and  C_3 
REMARK    2  A    between atoms: C_6  and  N_7 
REMARK    3  A    between atoms: C_14  and  C_15 
REMARK       I    between atoms: C_15  and  N_16 
REMARK    4  A    between atoms: N_16  and  C_17 
REMARK    5  A    between atoms: C_20  and  C_21 
REMARK    6  A    between atoms: C_34  and  O_35 
ROOT
HETATM    1  N   UNL     1      42.573  -9.431  10.326  1.00  0.00    -0.336 N 
HETATM    2  H   UNL     1      42.777 -10.425  10.138  1.00  0.00     0.168 HD
HETATM    3  C   UNL     1      42.477  -8.673   9.293  1.00  0.00     0.164 A 
HETATM    4  O   UNL     1      42.055  -7.389   9.520  1.00  0.00    -0.289 OA
HETATM    5  C   UNL     1      41.800  -6.496   8.460  1.00  0.00     0.121 A 
HETATM    6  C   UNL     1      41.957  -6.924   7.145  1.00  0.00     0.002 A 
HETATM    7  C   UNL     1      42.423  -8.282   6.887  1.00  0.00     0.035 A 
HETATM    8  C   UNL     1      42.719  -9.124   7.892  1.00  0.00     0.084 A 
HETATM    9  C   UNL     1      41.380  -5.200   8.784  1.00  0.00     0.102 A 
HETATM   10  C   UNL     1      41.106  -4.317   7.740  1.00  0.00     0.040 A 
HETATM   11  C   UNL     1      41.252  -4.732   6.411  1.00  0.00     0.004 A 
HETATM   12  C   UNL     1      41.678  -6.030   6.113  1.00  0.00     0.014 A 
ENDROOT
BRANCH   8  13
HETATM   13  C   UNL     1      43.215 -10.531   7.665  1.00  0.00     0.260 C 
HETATM   14  N   UNL     1      42.620 -11.248   6.659  1.00  0.00    -0.323 N 
HETATM   15  H   UNL     1      41.893 -10.812   6.108  1.00  0.00     0.169 HD
HETATM   16  O   UNL     1      44.139 -10.901   8.390  1.00  0.00    -0.267 OA
BRANCH  14  17
HETATM   17  C   UNL     1      42.881 -12.582   6.271  1.00  0.00     0.035 A 
HETATM   18  C   UNL     1      43.370 -13.576   7.118  1.00  0.00     0.030 A 
HETATM   19  C   UNL     1      43.584 -14.880   6.637  1.00  0.00     0.017 A 
HETATM   20  C   UNL     1      43.299 -15.208   5.307  1.00  0.00     0.010 A 
HETATM   21  C   UNL     1      42.805 -14.207   4.466  1.00  0.00     0.017 A 
HETATM   22  C   UNL     1      42.609 -12.907   4.937  1.00  0.00     0.030 A 
BRANCH  20  23
HETATM   23  C   UNL     1      43.468 -16.559   4.770  1.00  0.00     0.139 A 
HETATM   24  N   UNL     1      43.846 -17.614   5.468  1.00  0.00    -0.228 NA
HETATM   25  C   UNL     1      43.844 -18.672   4.593  1.00  0.00     0.086 A 
HETATM   26  C   UNL     1      43.432 -18.266   3.330  1.00  0.00     0.062 A 
HETATM   27  C   UNL     1      44.173 -20.017   4.811  1.00  0.00     0.034 A 
HETATM   28  N   UNL     1      43.207 -16.920   3.468  1.00  0.00    -0.338 N 
HETATM   29  C   UNL     1      43.312 -19.139   2.247  1.00  0.00     0.032 A 
HETATM   30  H   UNL     1      42.868 -16.306   2.744  1.00  0.00     0.167 HD
HETATM   31  C   UNL     1      43.640 -20.480   2.483  1.00  0.00     0.002 A 
HETATM   32  C   UNL     1      44.068 -20.914   3.741  1.00  0.00     0.002 A 
ENDBRANCH  20  23
ENDBRANCH  14  17
ENDBRANCH   8  13
BRANCH   1  33
HETATM   33  C   UNL     1      42.357  -9.128  11.686  1.00  0.00     0.034 A 
HETATM   34  C   UNL     1      41.225  -9.705  12.284  1.00  0.00     0.032 A 
HETATM   35  C   UNL     1      40.910  -9.443  13.626  1.00  0.00     0.039 A 
HETATM   36  C   UNL     1      41.733  -8.620  14.390  1.00  0.00     0.068 A 
HETATM   37  C   UNL     1      42.881  -8.081  13.807  1.00  0.00     0.039 A 
HETATM   38  C   UNL     1      43.198  -8.333  12.467  1.00  0.00     0.032 A 
BRANCH  36  39
HETATM   39  O   UNL     1      41.545  -8.276  15.696  1.00  0.00    -0.356 OA
HETATM   40  C   UNL     1      42.007  -6.994  16.108  1.00  0.00     0.210 C 
ENDBRANCH  36  39
ENDBRANCH   1  33
BRANCH   9  41
HETATM   41  O   UNL     1      41.279  -4.920  10.119  1.00  0.00    -0.353 OA
HETATM   42  C   UNL     1      41.985  -3.777  10.594  1.00  0.00     0.210 C 
ENDBRANCH   9  41
TORSDOF 6
ENDMDL
MODEL 2
REMARK VINA RESULT:     -10.1      6.870     11.416
REMARK  6 active torsions:
REMARK  status: ('A' for Active; 'I' for Inactive)
REMARK    1  A    between atoms: O_2  and  C_3 
REMARK    2  A    between atoms: C_6  and  N_7 
REMARK    3  A    between atoms: C_14  and  C_15 
REMARK       I    between atoms: C_15  and  N_16 
REMARK    4  A    between atoms: N_16  and  C_17 
REMARK    5  A    between atoms: C_20  and  C_21 
REMARK    6  A    between atoms: C_34  and  O_35 
ROOT
HETATM    1  N   UNL     1      42.391 -13.624   3.835  1.00  0.00    -0.336 N 
HETATM    2  H   UNL     1      41.904 -12.948   3.225  1.00  0.00     0.168 HD
HETATM    3  C   UNL     1      42.389 -14.845   3.433  1.00  0.00     0.164 A 
HETATM    4  O   UNL     1      43.161 -15.721   4.151  1.00  0.00    -0.289 OA
HETATM    5  C   UNL     1      43.332 -17.059   3.745  1.00  0.00     0.121 A 
HETATM    6  C   UNL     1      42.724 -17.509   2.577  1.00  0.00     0.002 A 
HETATM    7  C   UNL     1      41.884 -16.593   1.811  1.00  0.00     0.035 A 
HETATM    8  C   UNL     1      41.672 -15.330   2.219  1.00  0.00     0.084 A 
HETATM    9  C   UNL     1      44.131 -17.887   4.543  1.00  0.00     0.102 A 
HETATM   10  C   UNL     1      44.322 -19.207   4.137  1.00  0.00     0.040 A 
HETATM   11  C   UNL     1      43.724 -19.675   2.961  1.00  0.00     0.004 A 
HETATM   12  C   UNL     1      42.926 -18.831   2.183  1.00  0.00     0.014 A 
ENDROOT
BRANCH   8  13
HETATM   13  C   UNL     1      40.802 -14.358   1.461  1.00  0.00     0.260 C 
HETATM   14  N   UNL     1      41.059 -14.202   0.122  1.00  0.00    -0.323 N 
HETATM   15  H   UNL     1      41.800 -14.743  -0.302  1.00  0.00     0.169 HD
HETATM   16  O   UNL     1      39.910 -13.811   2.111  1.00  0.00    -0.267 OA
BRANCH  14  17
HETATM   17  C   UNL     1      40.412 -13.340  -0.791  1.00  0.00     0.035 A 
HETATM   18  C   UNL     1      39.268 -13.665  -1.519  1.00  0.00     0.030 A 
HETATM   19  C   UNL     1      38.690 -12.728  -2.395  1.00  0.00     0.017 A 
HETATM   20  C   UNL     1      39.244 -11.451  -2.544  1.00  0.00     0.010 A 
HETATM   21  C   UNL     1      40.389 -11.132  -1.808  1.00  0.00     0.017 A 
HETATM   22  C   UNL     1      40.973 -12.068  -0.951  1.00  0.00     0.030 A 
BRANCH  20  23
HETATM   23  C   UNL     1      38.659 -10.430  -3.413  1.00  0.00     0.139 A 
HETATM   24  N   UNL     1      39.338  -9.507  -4.070  1.00  0.00    -0.228 NA
HETATM   25  C   UNL     1      38.413  -8.786  -4.781  1.00  0.00     0.086 A 
HETATM   26  C   UNL     1      37.134  -9.288  -4.580  1.00  0.00     0.062 A 
HETATM   27  C   UNL     1      38.593  -7.688  -5.634  1.00  0.00     0.034 A 
HETATM   28  N   UNL     1      37.317 -10.326  -3.702  1.00  0.00    -0.338 N 
HETATM   29  C   UNL     1      35.998  -8.763  -5.199  1.00  0.00     0.032 A 
HETATM   30  H   UNL     1      36.592 -10.937  -3.358  1.00  0.00     0.167 HD
HETATM   31  C   UNL     1      36.197  -7.670  -6.051  1.00  0.00     0.002 A 
HETATM   32  C   UNL     1      37.472  -7.137  -6.265  1.00  0.00     0.002 A 
ENDBRANCH  20  23
ENDBRANCH  14  17
ENDBRANCH   8  13
BRANCH   1  33
HETATM   33  C   UNL     1      43.035 -13.045   4.947  1.00  0.00     0.034 A 
HETATM   34  C   UNL     1      43.869 -11.946   4.686  1.00  0.00     0.032 A 
HETATM   35  C   UNL     1      44.575 -11.318   5.725  1.00  0.00     0.039 A 
HETATM   36  C   UNL     1      44.437 -11.768   7.035  1.00  0.00     0.068 A 
HETATM   37  C   UNL     1      43.575 -12.832   7.300  1.00  0.00     0.039 A 
HETATM   38  C   UNL     1      42.874 -13.468   6.268  1.00  0.00     0.032 A 
BRANCH  36  39
HETATM   39  O   UNL     1      45.064 -11.258   8.135  1.00  0.00    -0.356 OA
HETATM   40  C   UNL     1      46.167 -10.387   7.914  1.00  0.00     0.210 C 
ENDBRANCH  36  39
ENDBRANCH   1  33
BRANCH   9  41
HETATM   41  O   UNL     1      44.656 -17.310   5.667  1.00  0.00    -0.353 OA
HETATM   42  C   UNL     1      43.850 -17.334   6.841  1.00  0.00     0.210 C 
ENDBRANCH   9  41
TORSDOF 6
ENDMDL
MODEL 3
REMARK VINA RESULT:      -9.9      6.992     11.330
REMARK  6 active torsions:
REMARK  status: ('A' for Active; 'I' for Inactive)
REMARK    1  A    between atoms: O_2  and  C_3 
REMARK    2  A    between atoms: C_6  and  N_7 
REMARK    3  A    between atoms: C_14  and  C_15 
REMARK       I    between atoms: C_15  and  N_16 
REMARK    4  A    between atoms: N_16  and  C_17 
REMARK    5  A    between atoms: C_20  and  C_21 
REMARK    6  A    between atoms: C_34  and  O_35 
ROOT
HETATM    1  N   UNL     1      42.740 -13.453   3.648  1.00  0.00    -0.336 N 
HETATM    2  H   UNL     1      42.389 -12.761   2.968  1.00  0.00     0.168 HD
HETATM    3  C   UNL     1      42.708 -14.681   3.269  1.00  0.00     0.164 A 
HETATM    4  O   UNL     1      43.312 -15.588   4.098  1.00  0.00    -0.289 OA
HETATM    5  C   UNL     1      43.443 -16.944   3.739  1.00  0.00     0.121 A 
HETATM    6  C   UNL     1      42.970 -17.380   2.505  1.00  0.00     0.002 A 
HETATM    7  C   UNL     1      42.307 -16.430   1.618  1.00  0.00     0.035 A 
HETATM    8  C   UNL     1      42.131 -15.146   1.974  1.00  0.00     0.084 A 
HETATM    9  C   UNL     1      44.068 -17.804   4.651  1.00  0.00     0.102 A 
HETATM   10  C   UNL     1      44.220 -19.144   4.295  1.00  0.00     0.040 A 
HETATM   11  C   UNL     1      43.756 -19.599   3.055  1.00  0.00     0.004 A 
HETATM   12  C   UNL     1      43.131 -18.722   2.163  1.00  0.00     0.014 A 
ENDROOT
BRANCH   8  13
HETATM   13  C   UNL     1      41.441 -14.136   1.090  1.00  0.00     0.260 C 
HETATM   14  N   UNL     1      40.302 -14.546   0.446  1.00  0.00    -0.323 N 
HETATM   15  H   UNL     1      39.965 -15.487   0.594  1.00  0.00     0.169 HD
HETATM   16  O   UNL     1      41.950 -13.015   1.051  1.00  0.00    -0.267 OA
BRANCH  14  17
HETATM   17  C   UNL     1      39.498 -13.806  -0.451  1.00  0.00     0.035 A 
HETATM   18  C   UNL     1      39.283 -14.140  -1.788  1.00  0.00     0.030 A 
HETATM   19  C   UNL     1      38.453 -13.344  -2.597  1.00  0.00     0.017 A 
HETATM   20  C   UNL     1      37.816 -12.212  -2.074  1.00  0.00     0.010 A 
HETATM   21  C   UNL     1      38.034 -11.887  -0.732  1.00  0.00     0.017 A 
HETATM   22  C   UNL     1      38.873 -12.666   0.068  1.00  0.00     0.030 A 
BRANCH  20  23
HETATM   23  C   UNL     1      36.913 -11.375  -2.864  1.00  0.00     0.139 A 
HETATM   24  N   UNL     1      37.095 -10.093  -3.125  1.00  0.00    -0.228 NA
HETATM   25  C   UNL     1      36.040  -9.711  -3.915  1.00  0.00     0.086 A 
HETATM   26  C   UNL     1      35.200 -10.786  -4.171  1.00  0.00     0.062 A 
HETATM   27  C   UNL     1      35.739  -8.457  -4.465  1.00  0.00     0.034 A 
HETATM   28  N   UNL     1      35.772 -11.828  -3.486  1.00  0.00    -0.338 N 
HETATM   29  C   UNL     1      34.058 -10.694  -4.969  1.00  0.00     0.032 A 
HETATM   30  H   UNL     1      35.434 -12.778  -3.474  1.00  0.00     0.167 HD
HETATM   31  C   UNL     1      33.775  -9.436  -5.514  1.00  0.00     0.002 A 
HETATM   32  C   UNL     1      34.597  -8.333  -5.265  1.00  0.00     0.002 A 
ENDBRANCH  20  23
ENDBRANCH  14  17
ENDBRANCH   8  13
BRANCH   1  33
HETATM   33  C   UNL     1      43.266 -12.892   4.830  1.00  0.00     0.034 A 
HETATM   34  C   UNL     1      43.035 -13.604   6.018  1.00  0.00     0.032 A 
HETATM   35  C   UNL     1      43.496 -13.114   7.250  1.00  0.00     0.039 A 
HETATM   36  C   UNL     1      44.210 -11.920   7.304  1.00  0.00     0.068 A 
HETATM   37  C   UNL     1      44.477 -11.235   6.119  1.00  0.00     0.039 A 
HETATM   38  C   UNL     1      44.015 -11.714   4.887  1.00  0.00     0.032 A 
BRANCH  36  39
HETATM   39  O   UNL     1      44.710 -11.327   8.427  1.00  0.00    -0.356 OA
HETATM   40  C   UNL     1      45.725 -10.345   8.251  1.00  0.00     0.210 C 
ENDBRANCH  36  39
ENDBRANCH   1  33
BRANCH   9  41
HETATM   41  O   UNL     1      44.474 -17.236   5.828  1.00  0.00    -0.353 OA
HETATM   42  C   UNL     1      43.609 -17.387   6.950  1.00  0.00     0.210 C 
ENDBRANCH   9  41
TORSDOF 6
ENDMDL
MODEL 4
REMARK VINA RESULT:      -9.4      1.728      2.079
REMARK  6 active torsions:
REMARK  status: ('A' for Active; 'I' for Inactive)
REMARK    1  A    between atoms: O_2  and  C_3 
REMARK    2  A    between atoms: C_6  and  N_7 
REMARK    3  A    between atoms: C_14  and  C_15 
REMARK       I    between atoms: C_15  and  N_16 
REMARK    4  A    between atoms: N_16  and  C_17 
REMARK    5  A    between atoms: C_20  and  C_21 
REMARK    6  A    between atoms: C_34  and  O_35 
ROOT
HETATM    1  N   UNL     1      41.579  -9.653   9.601  1.00  0.00    -0.336 N 
HETATM    2  H   UNL     1      41.976 -10.553   9.288  1.00  0.00     0.168 HD
HETATM    3  C   UNL     1      40.936  -8.984   8.711  1.00  0.00     0.164 A 
HETATM    4  O   UNL     1      40.276  -7.867   9.152  1.00  0.00    -0.289 OA
HETATM    5  C   UNL     1      39.443  -7.116   8.299  1.00  0.00     0.121 A 
HETATM    6  C   UNL     1      39.264  -7.520   6.979  1.00  0.00     0.002 A 
HETATM    7  C   UNL     1      39.974  -8.697   6.489  1.00  0.00     0.035 A 
HETATM    8  C   UNL     1      40.811  -9.389   7.281  1.00  0.00     0.084 A 
HETATM    9  C   UNL     1      38.814  -5.984   8.831  1.00  0.00     0.102 A 
HETATM   10  C   UNL     1      37.972  -5.247   7.998  1.00  0.00     0.040 A 
HETATM   11  C   UNL     1      37.774  -5.642   6.670  1.00  0.00     0.004 A 
HETATM   12  C   UNL     1      38.418  -6.773   6.160  1.00  0.00     0.014 A 
ENDROOT
BRANCH   8  13
HETATM   13  C   UNL     1      41.571 -10.603   6.808  1.00  0.00     0.260 C 
HETATM   14  N   UNL     1      40.880 -11.521   6.058  1.00  0.00    -0.323 N 
HETATM   15  H   UNL     1      39.908 -11.347   5.844  1.00  0.00     0.169 HD
HETATM   16  O   UNL     1      42.764 -10.646   7.114  1.00  0.00    -0.267 OA
BRANCH  14  17
HETATM   17  C   UNL     1      41.353 -12.742   5.528  1.00  0.00     0.035 A 
HETATM   18  C   UNL     1      42.322 -12.855   4.532  1.00  0.00     0.030 A 
HETATM   19  C   UNL     1      42.736 -14.121   4.080  1.00  0.00     0.017 A 
HETATM   20  C   UNL     1      42.194 -15.289   4.630  1.00  0.00     0.010 A 
HETATM   21  C   UNL     1      41.226 -15.167   5.631  1.00  0.00     0.017 A 
HETATM   22  C   UNL     1      40.801 -13.910   6.067  1.00  0.00     0.030 A 
BRANCH  20  23
HETATM   23  C   UNL     1      42.619 -16.628   4.221  1.00  0.00     0.139 A 
HETATM   24  N   UNL     1      42.491 -17.131   3.006  1.00  0.00    -0.228 NA
HETATM   25  C   UNL     1      43.044 -18.387   3.052  1.00  0.00     0.086 A 
HETATM   26  C   UNL     1      43.547 -18.658   4.318  1.00  0.00     0.062 A 
HETATM   27  C   UNL     1      43.161 -19.353   2.044  1.00  0.00     0.034 A 
HETATM   28  N   UNL     1      43.258 -17.530   5.042  1.00  0.00    -0.338 N 
HETATM   29  C   UNL     1      44.188 -19.854   4.647  1.00  0.00     0.032 A 
HETATM   30  H   UNL     1      43.509 -17.372   6.006  1.00  0.00     0.167 HD
HETATM   31  C   UNL     1      44.301 -20.806   3.627  1.00  0.00     0.002 A 
HETATM   32  C   UNL     1      43.794 -20.564   2.346  1.00  0.00     0.002 A 
ENDBRANCH  20  23
ENDBRANCH  14  17
ENDBRANCH   8  13
BRANCH   1  33
HETATM   33  C   UNL     1      41.756  -9.384  10.973  1.00  0.00     0.034 A 
HETATM   34  C   UNL     1      40.737  -9.825  11.834  1.00  0.00     0.032 A 
HETATM   35  C   UNL     1      40.809  -9.582  13.214  1.00  0.00     0.039 A 
HETATM   36  C   UNL     1      41.907  -8.915  13.751  1.00  0.00     0.068 A 
HETATM   37  C   UNL     1      42.939  -8.515  12.901  1.00  0.00     0.039 A 
HETATM   38  C   UNL     1      42.871  -8.748  11.522  1.00  0.00     0.032 A 
BRANCH  36  39
HETATM   39  O   UNL     1      42.103  -8.608  15.065  1.00  0.00    -0.356 OA
HETATM   40  C   UNL     1      42.072  -7.231  15.427  1.00  0.00     0.210 C 
ENDBRANCH  36  39
ENDBRANCH   1  33
BRANCH   9  41
HETATM   41  O   UNL     1      39.092  -5.704  10.141  1.00  0.00    -0.353 OA
HETATM   42  C   UNL     1      39.744  -4.467  10.412  1.00  0.00     0.210 C 
ENDBRANCH   9  41
TORSDOF 6
ENDMDL
MODEL 5
REMARK VINA RESULT:      -9.3      4.371     11.524
REMARK  6 active torsions:
REMARK  status: ('A' for Active; 'I' for Inactive)
REMARK    1  A    between atoms: O_2  and  C_3 
REMARK    2  A    between atoms: C_6  and  N_7 
REMARK    3  A    between atoms: C_14  and  C_15 
REMARK       I    between atoms: C_15  and  N_16 
REMARK    4  A    between atoms: N_16  and  C_17 
REMARK    5  A    between atoms: C_20  and  C_21 
REMARK    6  A    between atoms: C_34  and  O_35 
ROOT
HETATM    1  N   UNL     1      40.888 -14.001   3.999  1.00  0.00    -0.336 N 
HETATM    2  H   UNL     1      41.053 -13.745   4.985  1.00  0.00     0.168 HD
HETATM    3  C   UNL     1      40.129 -13.206   3.333  1.00  0.00     0.164 A 
HETATM    4  O   UNL     1      40.027 -13.450   1.988  1.00  0.00    -0.289 OA
HETATM    5  C   UNL     1      39.319 -12.583   1.132  1.00  0.00     0.121 A 
HETATM    6  C   UNL     1      38.721 -11.438   1.649  1.00  0.00     0.002 A 
HETATM    7  C   UNL     1      38.804 -11.175   3.082  1.00  0.00     0.035 A 
HETATM    8  C   UNL     1      39.433 -12.022   3.915  1.00  0.00     0.084 A 
HETATM    9  C   UNL     1      39.260 -12.913  -0.228  1.00  0.00     0.102 A 
HETATM   10  C   UNL     1      38.579 -12.050  -1.086  1.00  0.00     0.040 A 
HETATM   11  C   UNL     1      37.976 -10.890  -0.584  1.00  0.00     0.004 A 
HETATM   12  C   UNL     1      38.045 -10.585   0.779  1.00  0.00     0.014 A 
ENDROOT
BRANCH   8  13
HETATM   13  C   UNL     1      39.530 -11.790   5.402  1.00  0.00     0.260 C 
HETATM   14  N   UNL     1      40.002 -10.570   5.815  1.00  0.00    -0.323 N 
HETATM   15  H   UNL     1      40.252  -9.880   5.120  1.00  0.00     0.169 HD
HETATM   16  O   UNL     1      39.142 -12.714   6.119  1.00  0.00    -0.267 OA
BRANCH  14  17
HETATM   17  C   UNL     1      40.213 -10.123   7.138  1.00  0.00     0.035 A 
HETATM   18  C   UNL     1      39.223 -10.031   8.115  1.00  0.00     0.030 A 
HETATM   19  C   UNL     1      39.539  -9.586   9.411  1.00  0.00     0.017 A 
HETATM   20  C   UNL     1      40.853  -9.239   9.749  1.00  0.00     0.010 A 
HETATM   21  C   UNL     1      41.840  -9.339   8.765  1.00  0.00     0.017 A 
HETATM   22  C   UNL     1      41.524  -9.763   7.472  1.00  0.00     0.030 A 
BRANCH  20  23
HETATM   23  C   UNL     1      41.238  -8.808  11.092  1.00  0.00     0.139 A 
HETATM   24  N   UNL     1      42.157  -7.900  11.367  1.00  0.00    -0.228 NA
HETATM   25  C   UNL     1      42.176  -7.777  12.734  1.00  0.00     0.086 A 
HETATM   26  C   UNL     1      41.231  -8.611  13.318  1.00  0.00     0.062 A 
HETATM   27  C   UNL     1      42.972  -6.962  13.551  1.00  0.00     0.034 A 
HETATM   28  N   UNL     1      40.655  -9.259  12.255  1.00  0.00    -0.338 N 
HETATM   29  C   UNL     1      41.013  -8.676  14.695  1.00  0.00     0.032 A 
HETATM   30  H   UNL     1      39.901  -9.926  12.314  1.00  0.00     0.167 HD
HETATM   31  C   UNL     1      41.813  -7.851  15.496  1.00  0.00     0.002 A 
HETATM   32  C   UNL     1      42.780  -7.010  14.937  1.00  0.00     0.002 A 
ENDBRANCH  20  23
ENDBRANCH  14  17
ENDBRANCH   8  13
BRANCH   1  33
HETATM   33  C   UNL     1      41.605 -15.134   3.564  1.00  0.00     0.034 A 
HETATM   34  C   UNL     1      42.647 -15.574   4.396  1.00  0.00     0.032 A 
HETATM   35  C   UNL     1      43.436 -16.678   4.036  1.00  0.00     0.039 A 
HETATM   36  C   UNL     1      43.179 -17.364   2.852  1.00  0.00     0.068 A 
HETATM   37  C   UNL     1      42.117 -16.953   2.047  1.00  0.00     0.039 A 
HETATM   38  C   UNL     1      41.330 -15.849   2.396  1.00  0.00     0.032 A 
BRANCH  36  39
HETATM   39  O   UNL     1      43.865 -18.444   2.378  1.00  0.00    -0.356 OA
HETATM   40  C   UNL     1      43.153 -19.670   2.255  1.00  0.00     0.210 C 
ENDBRANCH  36  39
ENDBRANCH   1  33
BRANCH   9  41
HETATM   41  O   UNL     1      39.887 -14.074  -0.590  1.00  0.00    -0.353 OA
HETATM   42  C   UNL     1      39.400 -14.734  -1.755  1.00  0.00     0.210 C 
ENDBRANCH   9  41
TORSDOF 6
ENDMDL
MODEL 6
REMARK VINA RESULT:      -8.9      4.889     11.551
REMARK  6 active torsions:
REMARK  status: ('A' for Active; 'I' for Inactive)
REMARK    1  A    between atoms: O_2  and  C_3 
REMARK    2  A    between atoms: C_6  and  N_7 
REMARK    3  A    between atoms: C_14  and  C_15 
REMARK       I    between atoms: C_15  and  N_16 
REMARK    4  A    between atoms: N_16  and  C_17 
REMARK    5  A    between atoms: C_20  and  C_21 
REMARK    6  A    between atoms: C_34  and  O_35 
ROOT
HETATM    1  N   UNL     1      41.441 -13.005   2.557  1.00  0.00    -0.336 N 
HETATM    2  H   UNL     1      41.915 -12.462   3.295  1.00  0.00     0.168 HD
HETATM    3  C   UNL     1      40.580 -12.359   1.852  1.00  0.00     0.164 A 
HETATM    4  O   UNL     1      40.059 -13.024   0.773  1.00  0.00    -0.289 OA
HETATM    5  C   UNL     1      39.195 -12.388  -0.140  1.00  0.00     0.121 A 
HETATM    6  C   UNL     1      38.873 -11.045   0.036  1.00  0.00     0.002 A 
HETATM    7  C   UNL     1      39.405 -10.328   1.190  1.00  0.00     0.035 A 
HETATM    8  C   UNL     1      40.187 -10.941   2.095  1.00  0.00     0.084 A 
HETATM    9  C   UNL     1      38.702 -13.145  -1.210  1.00  0.00     0.102 A 
HETATM   10  C   UNL     1      37.864 -12.517  -2.130  1.00  0.00     0.040 A 
HETATM   11  C   UNL     1      37.534 -11.166  -1.973  1.00  0.00     0.004 A 
HETATM   12  C   UNL     1      38.034 -10.432  -0.893  1.00  0.00     0.014 A 
ENDROOT
BRANCH   8  13
HETATM   13  C   UNL     1      40.747 -10.237   3.306  1.00  0.00     0.260 C 
HETATM   14  N   UNL     1      40.497 -10.804   4.530  1.00  0.00    -0.323 N 
HETATM   15  H   UNL     1      39.967 -11.664   4.574  1.00  0.00     0.169 HD
HETATM   16  O   UNL     1      41.412  -9.224   3.083  1.00  0.00    -0.267 OA
BRANCH  14  17
HETATM   17  C   UNL     1      40.882 -10.327   5.803  1.00  0.00     0.035 A 
HETATM   18  C   UNL     1      42.172 -10.406   6.326  1.00  0.00     0.030 A 
HETATM   19  C   UNL     1      42.456  -9.888   7.602  1.00  0.00     0.017 A 
HETATM   20  C   UNL     1      41.456  -9.273   8.365  1.00  0.00     0.010 A 
HETATM   21  C   UNL     1      40.166  -9.195   7.831  1.00  0.00     0.017 A 
HETATM   22  C   UNL     1      39.878  -9.726   6.572  1.00  0.00     0.030 A 
BRANCH  20  23
HETATM   23  C   UNL     1      41.711  -8.685   9.680  1.00  0.00     0.139 A 
HETATM   24  N   UNL     1      42.657  -9.071  10.517  1.00  0.00    -0.228 NA
HETATM   25  C   UNL     1      42.566  -8.241  11.606  1.00  0.00     0.086 A 
HETATM   26  C   UNL     1      41.557  -7.304  11.429  1.00  0.00     0.062 A 
HETATM   27  C   UNL     1      43.324  -8.221  12.785  1.00  0.00     0.034 A 
HETATM   28  N   UNL     1      41.025  -7.612  10.203  1.00  0.00    -0.338 N 
HETATM   29  C   UNL     1      41.255  -6.316  12.368  1.00  0.00     0.032 A 
HETATM   30  H   UNL     1      40.281  -7.110   9.744  1.00  0.00     0.167 HD
HETATM   31  C   UNL     1      42.025  -6.307  13.538  1.00  0.00     0.002 A 
HETATM   32  C   UNL     1      43.041  -7.245  13.748  1.00  0.00     0.002 A 
ENDBRANCH  20  23
ENDBRANCH  14  17
ENDBRANCH   8  13
BRANCH   1  33
HETATM   33  C   UNL     1      41.902 -14.329   2.419  1.00  0.00     0.034 A 
HETATM   34  C   UNL     1      41.142 -15.326   3.051  1.00  0.00     0.032 A 
HETATM   35  C   UNL     1      41.533 -16.673   2.994  1.00  0.00     0.039 A 
HETATM   36  C   UNL     1      42.676 -17.039   2.287  1.00  0.00     0.068 A 
HETATM   37  C   UNL     1      43.407 -16.054   1.623  1.00  0.00     0.039 A 
HETATM   38  C   UNL     1      43.026 -14.708   1.682  1.00  0.00     0.032 A 
BRANCH  36  39
HETATM   39  O   UNL     1      43.174 -18.302   2.154  1.00  0.00    -0.356 OA
HETATM   40  C   UNL     1      43.929 -18.825   3.241  1.00  0.00     0.210 C 
ENDBRANCH  36  39
ENDBRANCH   1  33
BRANCH   9  41
HETATM   41  O   UNL     1      39.098 -14.455  -1.249  1.00  0.00    -0.353 OA
HETATM   42  C   UNL     1      38.829 -15.175  -2.447  1.00  0.00     0.210 C 
ENDBRANCH   9  41
TORSDOF 6
ENDMDL
MODEL 7
REMARK VINA RESULT:      -8.9      3.460     12.238
REMARK  6 active torsions:
REMARK  status: ('A' for Active; 'I' for Inactive)
REMARK    1  A    between atoms: O_2  and  C_3 
REMARK    2  A    between atoms: C_6  and  N_7 
REMARK    3  A    between atoms: C_14  and  C_15 
REMARK       I    between atoms: C_15  and  N_16 
REMARK    4  A    between atoms: N_16  and  C_17 
REMARK    5  A    between atoms: C_20  and  C_21 
REMARK    6  A    between atoms: C_34  and  O_35 
ROOT
HETATM    1  N   UNL     1      41.947 -12.161   4.077  1.00  0.00    -0.336 N 
HETATM    2  H   UNL     1      41.927 -11.223   4.506  1.00  0.00     0.168 HD
HETATM    3  C   UNL     1      42.581 -13.065   4.734  1.00  0.00     0.164 A 
HETATM    4  O   UNL     1      42.484 -14.345   4.254  1.00  0.00    -0.289 OA
HETATM    5  C   UNL     1      43.038 -15.439   4.949  1.00  0.00     0.121 A 
HETATM    6  C   UNL     1      43.685 -15.229   6.163  1.00  0.00     0.002 A 
HETATM    7  C   UNL     1      43.813 -13.870   6.678  1.00  0.00     0.035 A 
HETATM    8  C   UNL     1      43.334 -12.815   5.998  1.00  0.00     0.084 A 
HETATM    9  C   UNL     1      42.898 -16.711   4.381  1.00  0.00     0.102 A 
HETATM   10  C   UNL     1      43.425 -17.802   5.072  1.00  0.00     0.040 A 
HETATM   11  C   UNL     1      44.073 -17.611   6.298  1.00  0.00     0.004 A 
HETATM   12  C   UNL     1      44.205 -16.330   6.842  1.00  0.00     0.014 A 
ENDROOT
BRANCH   8  13
HETATM   13  C   UNL     1      43.457 -11.395   6.492  1.00  0.00     0.260 C 
HETATM   14  N   UNL     1      42.716 -11.050   7.593  1.00  0.00    -0.323 N 
HETATM   15  H   UNL     1      42.133 -11.750   8.032  1.00  0.00     0.169 HD
HETATM   16  O   UNL     1      44.245 -10.675   5.876  1.00  0.00    -0.267 OA
BRANCH  14  17
HETATM   17  C   UNL     1      42.634  -9.788   8.225  1.00  0.00     0.035 A 
HETATM   18  C   UNL     1      41.845  -8.727   7.784  1.00  0.00     0.030 A 
HETATM   19  C   UNL     1      41.823  -7.513   8.494  1.00  0.00     0.017 A 
HETATM   20  C   UNL     1      42.581  -7.351   9.659  1.00  0.00     0.010 A 
HETATM   21  C   UNL     1      43.366  -8.421  10.096  1.00  0.00     0.017 A 
HETATM   22  C   UNL     1      43.403  -9.622   9.382  1.00  0.00     0.030 A 
BRANCH  20  23
HETATM   23  C   UNL     1      42.562  -6.122  10.452  1.00  0.00     0.139 A 
HETATM   24  N   UNL     1      42.130  -6.024  11.697  1.00  0.00    -0.228 NA
HETATM   25  C   UNL     1      42.319  -4.715  12.065  1.00  0.00     0.086 A 
HETATM   26  C   UNL     1      42.903  -3.992  11.034  1.00  0.00     0.062 A 
HETATM   27  C   UNL     1      42.023  -4.072  13.275  1.00  0.00     0.034 A 
HETATM   28  N   UNL     1      43.039  -4.905  10.020  1.00  0.00    -0.338 N 
HETATM   29  C   UNL     1      43.232  -2.639  11.138  1.00  0.00     0.032 A 
HETATM   30  H   UNL     1      43.458  -4.724   9.121  1.00  0.00     0.167 HD
HETATM   31  C   UNL     1      42.935  -2.013  12.354  1.00  0.00     0.002 A 
HETATM   32  C   UNL     1      42.337  -2.714  13.406  1.00  0.00     0.002 A 
ENDBRANCH  20  23
ENDBRANCH  14  17
ENDBRANCH   8  13
BRANCH   1  33
HETATM   33  C   UNL     1      41.194 -12.275   2.891  1.00  0.00     0.034 A 
HETATM   34  C   UNL     1      39.804 -12.408   3.041  1.00  0.00     0.032 A 
HETATM   35  C   UNL     1      38.972 -12.554   1.920  1.00  0.00     0.039 A 
HETATM   36  C   UNL     1      39.517 -12.548   0.639  1.00  0.00     0.068 A 
HETATM   37  C   UNL     1      40.893 -12.372   0.488  1.00  0.00     0.039 A 
HETATM   38  C   UNL     1      41.730 -12.233   1.601  1.00  0.00     0.032 A 
BRANCH  36  39
HETATM   39  O   UNL     1      38.831 -12.685  -0.532  1.00  0.00    -0.356 OA
HETATM   40  C   UNL     1      39.182 -13.781  -1.371  1.00  0.00     0.210 C 
ENDBRANCH  36  39
ENDBRANCH   1  33
BRANCH   9  41
HETATM   41  O   UNL     1      42.247 -16.763   3.179  1.00  0.00    -0.353 OA
HETATM   42  C   UNL     1      43.031 -17.077   2.033  1.00  0.00     0.210 C 
ENDBRANCH   9  41
TORSDOF 6
ENDMDL
MODEL 8
REMARK VINA RESULT:      -8.5      7.848     11.470
REMARK  6 active torsions:
REMARK  status: ('A' for Active; 'I' for Inactive)
REMARK    1  A    between atoms: O_2  and  C_3 
REMARK    2  A    between atoms: C_6  and  N_7 
REMARK    3  A    between atoms: C_14  and  C_15 
REMARK       I    between atoms: C_15  and  N_16 
REMARK    4  A    between atoms: N_16  and  C_17 
REMARK    5  A    between atoms: C_20  and  C_21 
REMARK    6  A    between atoms: C_34  and  O_35 
ROOT
HETATM    1  N   UNL     1      40.873 -12.349   3.088  1.00  0.00    -0.336 N 
HETATM    2  H   UNL     1      40.565 -11.766   2.294  1.00  0.00     0.168 HD
HETATM    3  C   UNL     1      41.271 -13.536   2.792  1.00  0.00     0.164 A 
HETATM    4  O   UNL     1      41.825 -14.262   3.813  1.00  0.00    -0.289 OA
HETATM    5  C   UNL     1      42.401 -15.529   3.591  1.00  0.00     0.121 A 
HETATM    6  C   UNL     1      42.432 -16.057   2.304  1.00  0.00     0.002 A 
HETATM    7  C   UNL     1      41.829 -15.303   1.209  1.00  0.00     0.035 A 
HETATM    8  C   UNL     1      41.231 -14.118   1.420  1.00  0.00     0.084 A 
HETATM    9  C   UNL     1      42.937 -16.205   4.694  1.00  0.00     0.102 A 
HETATM   10  C   UNL     1      43.527 -17.450   4.479  1.00  0.00     0.040 A 
HETATM   11  C   UNL     1      43.574 -17.994   3.190  1.00  0.00     0.004 A 
HETATM   12  C   UNL     1      43.026 -17.302   2.105  1.00  0.00     0.014 A 
ENDROOT
BRANCH   8  13
HETATM   13  C   UNL     1      40.587 -13.316   0.316  1.00  0.00     0.260 C 
HETATM   14  N   UNL     1      39.246 -13.508   0.104  1.00  0.00    -0.323 N 
HETATM   15  H   UNL     1      38.744 -14.159   0.692  1.00  0.00     0.169 HD
HETATM   16  O   UNL     1      41.325 -12.529  -0.280  1.00  0.00    -0.267 OA
BRANCH  14  17
HETATM   17  C   UNL     1      38.427 -12.906  -0.877  1.00  0.00     0.035 A 
HETATM   18  C   UNL     1      38.042 -13.510  -2.073  1.00  0.00     0.030 A 
HETATM   19  C   UNL     1      37.211 -12.830  -2.981  1.00  0.00     0.017 A 
HETATM   20  C   UNL     1      36.743 -11.542  -2.696  1.00  0.00     0.010 A 
HETATM   21  C   UNL     1      37.130 -10.945  -1.492  1.00  0.00     0.017 A 
HETATM   22  C   UNL     1      37.971 -11.612  -0.599  1.00  0.00     0.030 A 
BRANCH  20  23
HETATM   23  C   UNL     1      35.846 -10.809  -3.589  1.00  0.00     0.139 A 
HETATM   24  N   UNL     1      35.807  -9.495  -3.722  1.00  0.00    -0.228 NA
HETATM   25  C   UNL     1      34.857  -9.235  -4.676  1.00  0.00     0.086 A 
HETATM   26  C   UNL     1      34.310 -10.415  -5.163  1.00  0.00     0.062 A 
HETATM   27  C   UNL     1      34.411  -8.009  -5.188  1.00  0.00     0.034 A 
HETATM   28  N   UNL     1      34.949 -11.399  -4.452  1.00  0.00    -0.338 N 
HETATM   29  C   UNL     1      33.335 -10.454  -6.162  1.00  0.00     0.032 A 
HETATM   30  H   UNL     1      34.814 -12.390  -4.571  1.00  0.00     0.167 HD
HETATM   31  C   UNL     1      32.905  -9.220  -6.666  1.00  0.00     0.002 A 
HETATM   32  C   UNL     1      33.430  -8.016  -6.187  1.00  0.00     0.002 A 
ENDBRANCH  20  23
ENDBRANCH  14  17
ENDBRANCH   8  13
BRANCH   1  33
HETATM   33  C   UNL     1      40.873 -11.687   4.332  1.00  0.00     0.034 A 
HETATM   34  C   UNL     1      41.989 -10.883   4.614  1.00  0.00     0.032 A 
HETATM   35  C   UNL     1      42.094 -10.203   5.837  1.00  0.00     0.039 A 
HETATM   36  C   UNL     1      41.076 -10.303   6.782  1.00  0.00     0.068 A 
HETATM   37  C   UNL     1      39.948 -11.067   6.485  1.00  0.00     0.039 A 
HETATM   38  C   UNL     1      39.840 -11.754   5.269  1.00  0.00     0.032 A 
BRANCH  36  39
HETATM   39  O   UNL     1      41.049  -9.705   8.008  1.00  0.00    -0.356 OA
HETATM   40  C   UNL     1      42.290  -9.261   8.546  1.00  0.00     0.210 C 
ENDBRANCH  36  39
ENDBRANCH   1  33
BRANCH   9  41
HETATM   41  O   UNL     1      42.826 -15.568   5.899  1.00  0.00    -0.353 OA
HETATM   42  C   UNL     1      44.036 -15.293   6.598  1.00  0.00     0.210 C 
ENDBRANCH   9  41
TORSDOF 6
ENDMDL
MODEL 9
REMARK VINA RESULT:      -8.4      7.499     11.350
REMARK  6 active torsions:
REMARK  status: ('A' for Active; 'I' for Inactive)
REMARK    1  A    between atoms: O_2  and  C_3 
REMARK    2  A    between atoms: C_6  and  N_7 
REMARK    3  A    between atoms: C_14  and  C_15 
REMARK       I    between atoms: C_15  and  N_16 
REMARK    4  A    between atoms: N_16  and  C_17 
REMARK    5  A    between atoms: C_20  and  C_21 
REMARK    6  A    between atoms: C_34  and  O_35 
ROOT
HETATM    1  N   UNL     1      40.934 -12.833   3.078  1.00  0.00    -0.336 N 
HETATM    2  H   UNL     1      40.591 -12.334   2.242  1.00  0.00     0.168 HD
HETATM    3  C   UNL     1      41.409 -14.010   2.874  1.00  0.00     0.164 A 
HETATM    4  O   UNL     1      42.006 -14.618   3.948  1.00  0.00    -0.289 OA
HETATM    5  C   UNL     1      42.664 -15.857   3.823  1.00  0.00     0.121 A 
HETATM    6  C   UNL     1      42.735 -16.479   2.580  1.00  0.00     0.002 A 
HETATM    7  C   UNL     1      42.089 -15.854   1.431  1.00  0.00     0.035 A 
HETATM    8  C   UNL     1      41.413 -14.698   1.551  1.00  0.00     0.084 A 
HETATM    9  C   UNL     1      43.240 -16.410   4.974  1.00  0.00     0.102 A 
HETATM   10  C   UNL     1      43.911 -17.626   4.855  1.00  0.00     0.040 A 
HETATM   11  C   UNL     1      43.998 -18.263   3.612  1.00  0.00     0.004 A 
HETATM   12  C   UNL     1      43.411 -17.694   2.477  1.00  0.00     0.014 A 
ENDROOT
BRANCH   8  13
HETATM   13  C   UNL     1      40.723 -14.027   0.389  1.00  0.00     0.260 C 
HETATM   14  N   UNL     1      41.150 -12.769   0.050  1.00  0.00    -0.323 N 
HETATM   15  H   UNL     1      41.906 -12.349   0.574  1.00  0.00     0.169 HD
HETATM   16  O   UNL     1      39.851 -14.689  -0.176  1.00  0.00    -0.267 OA
BRANCH  14  17
HETATM   17  C   UNL     1      40.650 -11.926  -0.969  1.00  0.00     0.035 A 
HETATM   18  C   UNL     1      39.661 -10.960  -0.789  1.00  0.00     0.030 A 
HETATM   19  C   UNL     1      39.241 -10.161  -1.867  1.00  0.00     0.017 A 
HETATM   20  C   UNL     1      39.815 -10.310  -3.135  1.00  0.00     0.010 A 
HETATM   21  C   UNL     1      40.809 -11.278  -3.306  1.00  0.00     0.017 A 
HETATM   22  C   UNL     1      41.214 -12.085  -2.240  1.00  0.00     0.030 A 
BRANCH  20  23
HETATM   23  C   UNL     1      39.439  -9.477  -4.278  1.00  0.00     0.139 A 
HETATM   24  N   UNL     1      40.256  -8.677  -4.939  1.00  0.00    -0.228 NA
HETATM   25  C   UNL     1      39.510  -8.116  -5.945  1.00  0.00     0.086 A 
HETATM   26  C   UNL     1      38.208  -8.598  -5.921  1.00  0.00     0.062 A 
HETATM   27  C   UNL     1      39.882  -7.190  -6.928  1.00  0.00     0.034 A 
HETATM   28  N   UNL     1      38.187  -9.454  -4.849  1.00  0.00    -0.338 N 
HETATM   29  C   UNL     1      37.233  -8.218  -6.845  1.00  0.00     0.032 A 
HETATM   30  H   UNL     1      37.396 -10.006  -4.555  1.00  0.00     0.167 HD
HETATM   31  C   UNL     1      37.623  -7.295  -7.824  1.00  0.00     0.002 A 
HETATM   32  C   UNL     1      38.924  -6.785  -7.866  1.00  0.00     0.002 A 
ENDBRANCH  20  23
ENDBRANCH  14  17
ENDBRANCH   8  13
BRANCH   1  33
HETATM   33  C   UNL     1      40.885 -12.078   4.267  1.00  0.00     0.034 A 
HETATM   34  C   UNL     1      39.706 -12.175   5.023  1.00  0.00     0.032 A 
HETATM   35  C   UNL     1      39.551 -11.441   6.210  1.00  0.00     0.039 A 
HETATM   36  C   UNL     1      40.581 -10.621   6.664  1.00  0.00     0.068 A 
HETATM   37  C   UNL     1      41.769 -10.558   5.935  1.00  0.00     0.039 A 
HETATM   38  C   UNL     1      41.927 -11.281   4.747  1.00  0.00     0.032 A 
BRANCH  36  39
HETATM   39  O   UNL     1      40.565  -9.851   7.790  1.00  0.00    -0.356 OA
HETATM   40  C   UNL     1      39.360  -9.827   8.548  1.00  0.00     0.210 C 
ENDBRANCH  36  39
ENDBRANCH   1  33
BRANCH   9  41
HETATM   41  O   UNL     1      43.082 -15.690   6.127  1.00  0.00    -0.353 OA
HETATM   42  C   UNL     1      43.621 -16.254   7.318  1.00  0.00     0.210 C 
ENDBRANCH   9  41
TORSDOF 6
ENDMDL
MODEL 10
REMARK VINA RESULT:      -8.2      2.313      3.325
REMARK  6 active torsions:
REMARK  status: ('A' for Active; 'I' for Inactive)
REMARK    1  A    between atoms: O_2  and  C_3 
REMARK    2  A    between atoms: C_6  and  N_7 
REMARK    3  A    between atoms: C_14  and  C_15 
REMARK       I    between atoms: C_15  and  N_16 
REMARK    4  A    between atoms: N_16  and  C_17 
REMARK    5  A    between atoms: C_20  and  C_21 
REMARK    6  A    between atoms: C_34  and  O_35 
ROOT
HETATM    1  N   UNL     1      41.581  -8.372   6.970  1.00  0.00    -0.336 N 
HETATM    2  H   UNL     1      41.413  -9.390   6.983  1.00  0.00     0.168 HD
HETATM    3  C   UNL     1      41.517  -7.807   5.817  1.00  0.00     0.164 A 
HETATM    4  O   UNL     1      41.585  -6.439   5.807  1.00  0.00    -0.289 OA
HETATM    5  C   UNL     1      41.411  -5.699   4.621  1.00  0.00     0.121 A 
HETATM    6  C   UNL     1      41.143  -6.362   3.427  1.00  0.00     0.002 A 
HETATM    7  C   UNL     1      41.085  -7.820   3.417  1.00  0.00     0.035 A 
HETATM    8  C   UNL     1      41.302  -8.537   4.534  1.00  0.00     0.084 A 
HETATM    9  C   UNL     1      41.505  -4.304   4.701  1.00  0.00     0.102 A 
HETATM   10  C   UNL     1      41.314  -3.563   3.536  1.00  0.00     0.040 A 
HETATM   11  C   UNL     1      41.036  -4.212   2.327  1.00  0.00     0.004 A 
HETATM   12  C   UNL     1      40.953  -5.607   2.270  1.00  0.00     0.014 A 
ENDROOT
BRANCH   8  13
HETATM   13  C   UNL     1      41.262 -10.044   4.561  1.00  0.00     0.260 C 
HETATM   14  N   UNL     1      42.456 -10.704   4.415  1.00  0.00    -0.323 N 
HETATM   15  H   UNL     1      43.305 -10.165   4.308  1.00  0.00     0.169 HD
HETATM   16  O   UNL     1      40.155 -10.552   4.746  1.00  0.00    -0.267 OA
BRANCH  14  17
HETATM   17  C   UNL     1      42.679 -12.098   4.376  1.00  0.00     0.035 A 
HETATM   18  C   UNL     1      42.845 -12.910   5.498  1.00  0.00     0.030 A 
HETATM   19  C   UNL     1      43.048 -14.294   5.353  1.00  0.00     0.017 A 
HETATM   20  C   UNL     1      43.075 -14.884   4.084  1.00  0.00     0.010 A 
HETATM   21  C   UNL     1      42.904 -14.065   2.965  1.00  0.00     0.017 A 
HETATM   22  C   UNL     1      42.720 -12.687   3.107  1.00  0.00     0.030 A 
BRANCH  20  23
HETATM   23  C   UNL     1      43.245 -16.323   3.883  1.00  0.00     0.139 A 
HETATM   24  N   UNL     1      43.049 -16.963   2.744  1.00  0.00    -0.228 NA
HETATM   25  C   UNL     1      43.350 -18.279   2.988  1.00  0.00     0.086 A 
HETATM   26  C   UNL     1      43.765 -18.455   4.302  1.00  0.00     0.062 A 
HETATM   27  C   UNL     1      43.302 -19.385   2.128  1.00  0.00     0.034 A 
HETATM   28  N   UNL     1      43.682 -17.201   4.850  1.00  0.00    -0.338 N 
HETATM   29  C   UNL     1      44.158 -19.690   4.822  1.00  0.00     0.032 A 
HETATM   30  H   UNL     1      43.938 -16.956   5.794  1.00  0.00     0.167 HD
HETATM   31  C   UNL     1      44.109 -20.783   3.949  1.00  0.00     0.002 A 
HETATM   32  C   UNL     1      43.685 -20.637   2.624  1.00  0.00     0.002 A 
ENDBRANCH  20  23
ENDBRANCH  14  17
ENDBRANCH   8  13
BRANCH   1  33
HETATM   33  C   UNL     1      41.765  -7.796   8.243  1.00  0.00     0.034 A 
HETATM   34  C   UNL     1      40.612  -7.633   9.029  1.00  0.00     0.032 A 
HETATM   35  C   UNL     1      40.688  -7.045  10.301  1.00  0.00     0.039 A 
HETATM   36  C   UNL     1      41.917  -6.633  10.809  1.00  0.00     0.068 A 
HETATM   37  C   UNL     1      43.068  -6.834  10.046  1.00  0.00     0.039 A 
HETATM   38  C   UNL     1      42.999  -7.414   8.773  1.00  0.00     0.032 A 
BRANCH  36  39
HETATM   39  O   UNL     1      42.136  -6.045  12.020  1.00  0.00    -0.356 OA
HETATM   40  C   UNL     1      42.674  -6.860  13.056  1.00  0.00     0.210 C 
ENDBRANCH  36  39
ENDBRANCH   1  33
BRANCH   9  41
HETATM   41  O   UNL     1      41.783  -3.793   5.940  1.00  0.00    -0.353 OA
HETATM   42  C   UNL     1      41.328  -2.471   6.210  1.00  0.00     0.210 C 
ENDBRANCH   9  41
TORSDOF 6
ENDMDL
