MODEL 1
REMARK VINA RESULT:      -9.2      0.000      0.000
REMARK  5 active torsions:
REMARK  status: ('A' for Active; 'I' for Inactive)
REMARK    1  A    between atoms: C_6  and  C_7 
REMARK    2  A    between atoms: C_7  and  C_8 
REMARK       I    between atoms: C_8  and  N_9 
REMARK    3  A    between atoms: N_9  and  N_10 
REMARK       I    between atoms: N_10  and  C_11 
REMARK    4  A    between atoms: C_11  and  C_12 
REMARK    5  A    between atoms: C_12  and  C_13 
ROOT
HETATM    1  C   UNL     1      45.534 -11.396   6.470  1.00  0.00     0.243 C 
HETATM    2  N   UNL     1      44.542 -12.225   6.944  1.00  0.00    -0.267 N 
HETATM    3  O   UNL     1      45.744 -11.233   5.267  1.00  0.00    -0.271 OA
HETATM    4  H   UNL     1      44.286 -12.268   7.934  1.00  0.00     0.190 HD
ENDROOT
BRANCH   1   5
HETATM    5  C   UNL     1      46.293 -10.634   7.526  1.00  0.00     0.183 C 
BRANCH   5   6
HETATM    6  C   UNL     1      45.423  -9.987   8.567  1.00  0.00     0.116 A 
HETATM    7  N   UNL     1      44.999 -10.679   9.579  1.00  0.00    -0.227 NA
HETATM    8  C   UNL     1      44.209  -9.993  10.446  1.00  0.00     0.116 A 
HETATM    9  C   UNL     1      43.804  -8.679  10.337  1.00  0.00     0.075 A 
HETATM   10  S   UNL     1      43.595 -10.725  11.851  1.00  0.00    -0.074 SA
HETATM   11  C   UNL     1      42.956  -8.261  11.423  1.00  0.00    -0.031 A 
HETATM   12  C   UNL     1      44.272  -7.939   9.181  1.00  0.00     0.260 A 
HETATM   13  C   UNL     1      42.358  -6.896  11.549  1.00  0.00     0.050 C 
HETATM   14  C   UNL     1      42.765  -9.302  12.322  1.00  0.00    -0.012 A 
HETATM   15  C   UNL     1      41.960  -9.306  13.580  1.00  0.00     0.057 C 
HETATM   16  N   UNL     1      45.099  -8.665   8.351  1.00  0.00    -0.310 N 
HETATM   17  O   UNL     1      43.973  -6.776   8.929  1.00  0.00    -0.267 OA
HETATM   18  H   UNL     1      45.436  -8.160   7.543  1.00  0.00     0.170 HD
ENDBRANCH   5   6
ENDBRANCH   1   5
BRANCH   2  19
HETATM   19  N   UNL     1      43.613 -12.736   6.026  1.00  0.00    -0.267 N 
HETATM   20  C   UNL     1      43.378 -14.101   6.065  1.00  0.00     0.240 C 
HETATM   21  O   UNL     1      44.085 -14.877   6.706  1.00  0.00    -0.272 OA
HETATM   22  H   UNL     1      42.875 -12.086   5.755  1.00  0.00     0.190 HD
BRANCH  20  23
HETATM   23  C   UNL     1      42.197 -14.541   5.219  1.00  0.00     0.148 C 
BRANCH  23  24
HETATM   24  C   UNL     1      42.605 -15.373   4.030  1.00  0.00     0.011 A 
HETATM   25  C   UNL     1      42.972 -14.809   2.800  1.00  0.00     0.043 A 
HETATM   26 CL   UNL     1      43.018 -13.096   2.568  1.00  0.00    -0.084 Cl
HETATM   27  C   UNL     1      43.323 -15.621   1.715  1.00  0.00     0.024 A 
HETATM   28  C   UNL     1      43.309 -17.010   1.842  1.00  0.00     0.005 A 
HETATM   29  C   UNL     1      42.944 -17.585   3.055  1.00  0.00     0.043 A 
HETATM   30  C   UNL     1      42.596 -16.768   4.129  1.00  0.00     0.124 A 
HETATM   31  F   UNL     1      42.255 -17.353   5.287  1.00  0.00    -0.205 F 
ENDBRANCH  23  24
ENDBRANCH  20  23
ENDBRANCH   2  19
TORSDOF 5
ENDMDL
MODEL 2
REMARK VINA RESULT:      -9.0      1.433      1.667
REMARK  5 active torsions:
REMARK  status: ('A' for Active; 'I' for Inactive)
REMARK    1  A    between atoms: C_6  and  C_7 
REMARK    2  A    between atoms: C_7  and  C_8 
REMARK       I    between atoms: C_8  and  N_9 
REMARK    3  A    between atoms: N_9  and  N_10 
REMARK       I    between atoms: N_10  and  C_11 
REMARK    4  A    between atoms: C_11  and  C_12 
REMARK    5  A    between atoms: C_12  and  C_13 
ROOT
HETATM    1  C   UNL     1      45.696 -11.305   6.363  1.00  0.00     0.243 C 
HETATM    2  N   UNL     1      44.496 -11.905   6.671  1.00  0.00    -0.267 N 
HETATM    3  O   UNL     1      46.119 -11.222   5.209  1.00  0.00    -0.271 OA
HETATM    4  H   UNL     1      44.085 -11.868   7.609  1.00  0.00     0.190 HD
ENDROOT
BRANCH   1   5
HETATM    5  C   UNL     1      46.421 -10.683   7.528  1.00  0.00     0.183 C 
BRANCH   5   6
HETATM    6  C   UNL     1      45.519 -10.042   8.546  1.00  0.00     0.116 A 
HETATM    7  N   UNL     1      45.074 -10.737   9.547  1.00  0.00    -0.227 NA
HETATM    8  C   UNL     1      44.256 -10.058  10.393  1.00  0.00     0.116 A 
HETATM    9  C   UNL     1      43.845  -8.747  10.273  1.00  0.00     0.075 A 
HETATM   10  S   UNL     1      43.610 -10.794  11.781  1.00  0.00    -0.074 SA
HETATM   11  C   UNL     1      42.966  -8.335  11.336  1.00  0.00    -0.031 A 
HETATM   12  C   UNL     1      44.338  -8.003   9.130  1.00  0.00     0.260 A 
HETATM   13  C   UNL     1      42.355  -6.974  11.447  1.00  0.00     0.050 C 
HETATM   14  C   UNL     1      42.759  -9.378  12.230  1.00  0.00    -0.012 A 
HETATM   15  C   UNL     1      41.921  -9.388  13.467  1.00  0.00     0.057 C 
HETATM   16  N   UNL     1      45.192  -8.722   8.322  1.00  0.00    -0.310 N 
HETATM   17  O   UNL     1      44.038  -6.842   8.871  1.00  0.00    -0.267 OA
HETATM   18  H   UNL     1      45.547  -8.215   7.524  1.00  0.00     0.170 HD
ENDBRANCH   5   6
ENDBRANCH   1   5
BRANCH   2  19
HETATM   19  N   UNL     1      43.636 -12.245   5.617  1.00  0.00    -0.267 N 
HETATM   20  C   UNL     1      42.980 -13.461   5.708  1.00  0.00     0.240 C 
HETATM   21  O   UNL     1      43.277 -14.313   6.544  1.00  0.00    -0.272 OA
HETATM   22  H   UNL     1      43.203 -11.451   5.143  1.00  0.00     0.190 HD
BRANCH  20  23
HETATM   23  C   UNL     1      41.895 -13.649   4.664  1.00  0.00     0.148 C 
BRANCH  23  24
HETATM   24  C   UNL     1      42.220 -14.735   3.670  1.00  0.00     0.011 A 
HETATM   25  C   UNL     1      41.677 -16.025   3.752  1.00  0.00     0.043 A 
HETATM   26 CL   UNL     1      40.552 -16.456   4.992  1.00  0.00    -0.084 Cl
HETATM   27  C   UNL     1      42.026 -17.010   2.819  1.00  0.00     0.024 A 
HETATM   28  C   UNL     1      42.925 -16.722   1.793  1.00  0.00     0.005 A 
HETATM   29  C   UNL     1      43.475 -15.447   1.701  1.00  0.00     0.043 A 
HETATM   30  C   UNL     1      43.123 -14.474   2.633  1.00  0.00     0.124 A 
HETATM   31  F   UNL     1      43.665 -13.253   2.514  1.00  0.00    -0.205 F 
ENDBRANCH  23  24
ENDBRANCH  20  23
ENDBRANCH   2  19
TORSDOF 5
ENDMDL
MODEL 3
REMARK VINA RESULT:      -8.6      3.909      9.722
REMARK  5 active torsions:
REMARK  status: ('A' for Active; 'I' for Inactive)
REMARK    1  A    between atoms: C_6  and  C_7 
REMARK    2  A    between atoms: C_7  and  C_8 
REMARK       I    between atoms: C_8  and  N_9 
REMARK    3  A    between atoms: N_9  and  N_10 
REMARK       I    between atoms: N_10  and  C_11 
REMARK    4  A    between atoms: C_11  and  C_12 
REMARK    5  A    between atoms: C_12  and  C_13 
ROOT
HETATM    1  C   UNL     1      43.677 -11.976   6.635  1.00  0.00     0.243 C 
HETATM    2  N   UNL     1      43.014 -11.207   7.565  1.00  0.00    -0.267 N 
HETATM    3  O   UNL     1      44.873 -12.254   6.735  1.00  0.00    -0.271 OA
HETATM    4  H   UNL     1      41.998 -11.077   7.550  1.00  0.00     0.190 HD
ENDROOT
BRANCH   1   5
HETATM    5  C   UNL     1      42.818 -12.524   5.524  1.00  0.00     0.183 C 
BRANCH   5   6
HETATM    6  C   UNL     1      43.065 -13.973   5.210  1.00  0.00     0.116 A 
HETATM    7  N   UNL     1      42.767 -14.442   4.038  1.00  0.00    -0.227 NA
HETATM    8  C   UNL     1      43.021 -15.767   3.874  1.00  0.00     0.116 A 
HETATM    9  C   UNL     1      43.522 -16.638   4.819  1.00  0.00     0.075 A 
HETATM   10  S   UNL     1      42.731 -16.548   2.393  1.00  0.00    -0.074 SA
HETATM   11  C   UNL     1      43.661 -17.983   4.326  1.00  0.00    -0.031 A 
HETATM   12  C   UNL     1      43.821 -16.090   6.128  1.00  0.00     0.260 A 
HETATM   13  C   UNL     1      44.161 -19.134   5.140  1.00  0.00     0.050 C 
HETATM   14  C   UNL     1      43.254 -18.061   2.999  1.00  0.00    -0.012 A 
HETATM   15  C   UNL     1      43.230 -19.257   2.105  1.00  0.00     0.057 C 
HETATM   16  N   UNL     1      43.583 -14.736   6.234  1.00  0.00    -0.310 N 
HETATM   17  O   UNL     1      44.241 -16.742   7.078  1.00  0.00    -0.267 OA
HETATM   18  H   UNL     1      43.791 -14.340   7.140  1.00  0.00     0.170 HD
ENDBRANCH   5   6
ENDBRANCH   1   5
BRANCH   2  19
HETATM   19  N   UNL     1      43.672 -10.909   8.766  1.00  0.00    -0.267 N 
HETATM   20  C   UNL     1      44.100  -9.602   8.940  1.00  0.00     0.240 C 
HETATM   21  O   UNL     1      44.109  -8.781   8.024  1.00  0.00    -0.272 OA
HETATM   22  H   UNL     1      43.388 -11.476   9.565  1.00  0.00     0.190 HD
BRANCH  20  23
HETATM   23  C   UNL     1      44.581  -9.300  10.348  1.00  0.00     0.148 C 
BRANCH  23  24
HETATM   24  C   UNL     1      43.457  -8.948  11.288  1.00  0.00     0.011 A 
HETATM   25  C   UNL     1      42.929  -9.859  12.214  1.00  0.00     0.043 A 
HETATM   26 CL   UNL     1      43.564 -11.460  12.370  1.00  0.00    -0.084 Cl
HETATM   27  C   UNL     1      41.869  -9.496  13.053  1.00  0.00     0.024 A 
HETATM   28  C   UNL     1      41.318  -8.217  12.977  1.00  0.00     0.005 A 
HETATM   29  C   UNL     1      41.829  -7.302  12.061  1.00  0.00     0.043 A 
HETATM   30  C   UNL     1      42.883  -7.673  11.230  1.00  0.00     0.124 A 
HETATM   31  F   UNL     1      43.357  -6.767  10.362  1.00  0.00    -0.205 F 
ENDBRANCH  23  24
ENDBRANCH  20  23
ENDBRANCH   2  19
TORSDOF 5
ENDMDL
MODEL 4
REMARK VINA RESULT:      -8.6      5.697      8.580
REMARK  5 active torsions:
REMARK  status: ('A' for Active; 'I' for Inactive)
REMARK    1  A    between atoms: C_6  and  C_7 
REMARK    2  A    between atoms: C_7  and  C_8 
REMARK       I    between atoms: C_8  and  N_9 
REMARK    3  A    between atoms: N_9  and  N_10 
REMARK       I    between atoms: N_10  and  C_11 
REMARK    4  A    between atoms: C_11  and  C_12 
REMARK    5  A    between atoms: C_12  and  C_13 
ROOT
HETATM    1  C   UNL     1      42.060 -13.267   5.258  1.00  0.00     0.243 C 
HETATM    2  N   UNL     1      42.497 -12.953   3.990  1.00  0.00    -0.267 N 
HETATM    3  O   UNL     1      40.922 -13.009   5.649  1.00  0.00    -0.271 OA
HETATM    4  H   UNL     1      43.397 -13.275   3.622  1.00  0.00     0.190 HD
ENDROOT
BRANCH   1   5
HETATM    5  C   UNL     1      43.048 -14.023   6.109  1.00  0.00     0.183 C 
BRANCH   5   6
HETATM    6  C   UNL     1      43.261 -15.450   5.687  1.00  0.00     0.116 A 
HETATM    7  N   UNL     1      43.248 -15.763   4.428  1.00  0.00    -0.227 NA
HETATM    8  C   UNL     1      43.437 -17.083   4.168  1.00  0.00     0.116 A 
HETATM    9  C   UNL     1      43.606 -18.094   5.091  1.00  0.00     0.075 A 
HETATM   10  S   UNL     1      43.491 -17.673   2.575  1.00  0.00    -0.074 SA
HETATM   11  C   UNL     1      43.770 -19.389   4.483  1.00  0.00    -0.031 A 
HETATM   12  C   UNL     1      43.590 -17.717   6.491  1.00  0.00     0.260 A 
HETATM   13  C   UNL     1      43.952 -20.663   5.245  1.00  0.00     0.050 C 
HETATM   14  C   UNL     1      43.722 -19.286   3.098  1.00  0.00    -0.012 A 
HETATM   15  C   UNL     1      43.846 -20.375   2.083  1.00  0.00     0.057 C 
HETATM   16  N   UNL     1      43.433 -16.364   6.704  1.00  0.00    -0.310 N 
HETATM   17  O   UNL     1      43.696 -18.504   7.427  1.00  0.00    -0.267 OA
HETATM   18  H   UNL     1      43.424 -16.087   7.675  1.00  0.00     0.170 HD
ENDBRANCH   5   6
ENDBRANCH   1   5
BRANCH   2  19
HETATM   19  N   UNL     1      41.550 -12.516   3.054  1.00  0.00    -0.267 N 
HETATM   20  C   UNL     1      41.249 -13.381   2.014  1.00  0.00     0.240 C 
HETATM   21  O   UNL     1      41.915 -14.388   1.777  1.00  0.00    -0.272 OA
HETATM   22  H   UNL     1      40.845 -11.877   3.421  1.00  0.00     0.190 HD
BRANCH  20  23
HETATM   23  C   UNL     1      40.053 -12.948   1.186  1.00  0.00     0.148 C 
BRANCH  23  24
HETATM   24  C   UNL     1      40.354 -12.883  -0.290  1.00  0.00     0.011 A 
HETATM   25  C   UNL     1      40.958 -11.770  -0.891  1.00  0.00     0.043 A 
HETATM   26 CL   UNL     1      41.440 -10.391   0.034  1.00  0.00    -0.084 Cl
HETATM   27  C   UNL     1      41.199 -11.744  -2.271  1.00  0.00     0.024 A 
HETATM   28  C   UNL     1      40.837 -12.828  -3.070  1.00  0.00     0.005 A 
HETATM   29  C   UNL     1      40.234 -13.938  -2.487  1.00  0.00     0.043 A 
HETATM   30  C   UNL     1      39.997 -13.955  -1.114  1.00  0.00     0.124 A 
HETATM   31  F   UNL     1      39.420 -15.043  -0.582  1.00  0.00    -0.205 F 
ENDBRANCH  23  24
ENDBRANCH  20  23
ENDBRANCH   2  19
TORSDOF 5
ENDMDL
MODEL 5
REMARK VINA RESULT:      -8.4      1.908      2.242
REMARK  5 active torsions:
REMARK  status: ('A' for Active; 'I' for Inactive)
REMARK    1  A    between atoms: C_6  and  C_7 
REMARK    2  A    between atoms: C_7  and  C_8 
REMARK       I    between atoms: C_8  and  N_9 
REMARK    3  A    between atoms: N_9  and  N_10 
REMARK       I    between atoms: N_10  and  C_11 
REMARK    4  A    between atoms: C_11  and  C_12 
REMARK    5  A    between atoms: C_12  and  C_13 
ROOT
HETATM    1  C   UNL     1      43.719 -12.176   6.753  1.00  0.00     0.243 C 
HETATM    2  N   UNL     1      44.108 -13.475   6.516  1.00  0.00    -0.267 N 
HETATM    3  O   UNL     1      42.563 -11.789   6.584  1.00  0.00    -0.271 OA
HETATM    4  H   UNL     1      45.035 -13.829   6.771  1.00  0.00     0.190 HD
ENDROOT
BRANCH   1   5
HETATM    5  C   UNL     1      44.791 -11.277   7.314  1.00  0.00     0.183 C 
BRANCH   5   6
HETATM    6  C   UNL     1      44.326 -10.384   8.431  1.00  0.00     0.116 A 
HETATM    7  N   UNL     1      44.023 -10.893   9.585  1.00  0.00    -0.227 NA
HETATM    8  C   UNL     1      43.601  -9.993  10.511  1.00  0.00     0.116 A 
HETATM    9  C   UNL     1      43.442  -8.634  10.334  1.00  0.00     0.075 A 
HETATM   10  S   UNL     1      43.199 -10.470  12.091  1.00  0.00    -0.074 SA
HETATM   11  C   UNL     1      42.965  -7.965  11.516  1.00  0.00    -0.031 A 
HETATM   12  C   UNL     1      43.764  -8.098   9.025  1.00  0.00     0.260 A 
HETATM   13  C   UNL     1      42.687  -6.498  11.601  1.00  0.00     0.050 C 
HETATM   14  C   UNL     1      42.791  -8.873  12.553  1.00  0.00    -0.012 A 
HETATM   15  C   UNL     1      42.312  -8.611  13.944  1.00  0.00     0.057 C 
HETATM   16  N   UNL     1      44.222  -9.043   8.132  1.00  0.00    -0.310 N 
HETATM   17  O   UNL     1      43.645  -6.920   8.705  1.00  0.00    -0.267 OA
HETATM   18  H   UNL     1      44.454  -8.683   7.217  1.00  0.00     0.170 HD
ENDBRANCH   5   6
ENDBRANCH   1   5
BRANCH   2  19
HETATM   19  N   UNL     1      43.111 -14.430   6.274  1.00  0.00    -0.267 N 
HETATM   20  C   UNL     1      42.822 -14.715   4.949  1.00  0.00     0.240 C 
HETATM   21  O   UNL     1      43.244 -14.032   4.018  1.00  0.00    -0.272 OA
HETATM   22  H   UNL     1      43.017 -15.146   6.995  1.00  0.00     0.190 HD
BRANCH  20  23
HETATM   23  C   UNL     1      41.915 -15.919   4.768  1.00  0.00     0.148 C 
BRANCH  23  24
HETATM   24  C   UNL     1      42.630 -17.107   4.174  1.00  0.00     0.011 A 
HETATM   25  C   UNL     1      43.414 -17.979   4.942  1.00  0.00     0.043 A 
HETATM   26 CL   UNL     1      43.589 -17.775   6.649  1.00  0.00    -0.084 Cl
HETATM   27  C   UNL     1      44.079 -19.058   4.345  1.00  0.00     0.024 A 
HETATM   28  C   UNL     1      43.973 -19.277   2.971  1.00  0.00     0.005 A 
HETATM   29  C   UNL     1      43.201 -18.417   2.196  1.00  0.00     0.043 A 
HETATM   30  C   UNL     1      42.544 -17.347   2.799  1.00  0.00     0.124 A 
HETATM   31  F   UNL     1      41.802 -16.539   2.026  1.00  0.00    -0.205 F 
ENDBRANCH  23  24
ENDBRANCH  20  23
ENDBRANCH   2  19
TORSDOF 5
ENDMDL
MODEL 6
REMARK VINA RESULT:      -8.3      3.659      9.154
REMARK  5 active torsions:
REMARK  status: ('A' for Active; 'I' for Inactive)
REMARK    1  A    between atoms: C_6  and  C_7 
REMARK    2  A    between atoms: C_7  and  C_8 
REMARK       I    between atoms: C_8  and  N_9 
REMARK    3  A    between atoms: N_9  and  N_10 
REMARK       I    between atoms: N_10  and  C_11 
REMARK    4  A    between atoms: C_11  and  C_12 
REMARK    5  A    between atoms: C_12  and  C_13 
ROOT
HETATM    1  C   UNL     1      42.835 -11.619   5.720  1.00  0.00     0.243 C 
HETATM    2  N   UNL     1      44.067 -11.088   6.027  1.00  0.00    -0.267 N 
HETATM    3  O   UNL     1      41.862 -11.513   6.467  1.00  0.00    -0.271 OA
HETATM    4  H   UNL     1      44.842 -11.068   5.357  1.00  0.00     0.190 HD
ENDROOT
BRANCH   1   5
HETATM    5  C   UNL     1      42.736 -12.271   4.364  1.00  0.00     0.183 C 
BRANCH   5   6
HETATM    6  C   UNL     1      42.978 -13.754   4.373  1.00  0.00     0.116 A 
HETATM    7  N   UNL     1      42.922 -14.427   3.266  1.00  0.00    -0.227 NA
HETATM    8  C   UNL     1      43.143 -15.761   3.399  1.00  0.00     0.116 A 
HETATM    9  C   UNL     1      43.385 -16.449   4.569  1.00  0.00     0.075 A 
HETATM   10  S   UNL     1      43.148 -16.796   2.051  1.00  0.00    -0.074 SA
HETATM   11  C   UNL     1      43.566 -17.862   4.364  1.00  0.00    -0.031 A 
HETATM   12  C   UNL     1      43.417 -15.673   5.794  1.00  0.00     0.260 A 
HETATM   13  C   UNL     1      43.824 -18.848   5.459  1.00  0.00     0.050 C 
HETATM   14  C   UNL     1      43.456 -18.177   3.015  1.00  0.00    -0.012 A 
HETATM   15  C   UNL     1      43.572 -19.516   2.363  1.00  0.00     0.057 C 
HETATM   16  N   UNL     1      43.224 -14.322   5.605  1.00  0.00    -0.310 N 
HETATM   17  O   UNL     1      43.589 -16.144   6.914  1.00  0.00    -0.267 OA
HETATM   18  H   UNL     1      43.248 -13.769   6.450  1.00  0.00     0.170 HD
ENDBRANCH   5   6
ENDBRANCH   1   5
BRANCH   2  19
HETATM   19  N   UNL     1      44.159 -10.224   7.127  1.00  0.00    -0.267 N 
HETATM   20  C   UNL     1      45.418 -10.033   7.673  1.00  0.00     0.240 C 
HETATM   21  O   UNL     1      46.383 -10.733   7.371  1.00  0.00    -0.272 OA
HETATM   22  H   UNL     1      43.462  -9.478   7.147  1.00  0.00     0.190 HD
BRANCH  20  23
HETATM   23  C   UNL     1      45.477  -8.910   8.693  1.00  0.00     0.148 C 
BRANCH  23  24
HETATM   24  C   UNL     1      44.385  -9.003   9.729  1.00  0.00     0.011 A 
HETATM   25  C   UNL     1      43.265  -8.160   9.725  1.00  0.00     0.043 A 
HETATM   26 CL   UNL     1      43.034  -6.966   8.496  1.00  0.00    -0.084 Cl
HETATM   27  C   UNL     1      42.285  -8.266  10.721  1.00  0.00     0.024 A 
HETATM   28  C   UNL     1      42.413  -9.213  11.737  1.00  0.00     0.005 A 
HETATM   29  C   UNL     1      43.522 -10.054  11.755  1.00  0.00     0.043 A 
HETATM   30  C   UNL     1      44.491  -9.941  10.761  1.00  0.00     0.124 A 
HETATM   31  F   UNL     1      45.545 -10.770  10.803  1.00  0.00    -0.205 F 
ENDBRANCH  23  24
ENDBRANCH  20  23
ENDBRANCH   2  19
TORSDOF 5
ENDMDL
MODEL 7
REMARK VINA RESULT:      -8.3      2.159      2.665
REMARK  5 active torsions:
REMARK  status: ('A' for Active; 'I' for Inactive)
REMARK    1  A    between atoms: C_6  and  C_7 
REMARK    2  A    between atoms: C_7  and  C_8 
REMARK       I    between atoms: C_8  and  N_9 
REMARK    3  A    between atoms: N_9  and  N_10 
REMARK       I    between atoms: N_10  and  C_11 
REMARK    4  A    between atoms: C_11  and  C_12 
REMARK    5  A    between atoms: C_12  and  C_13 
ROOT
HETATM    1  C   UNL     1      43.162 -11.590   6.652  1.00  0.00     0.243 C 
HETATM    2  N   UNL     1      43.722 -12.833   6.463  1.00  0.00    -0.267 N 
HETATM    3  O   UNL     1      41.954 -11.381   6.531  1.00  0.00    -0.271 OA
HETATM    4  H   UNL     1      44.702 -13.036   6.682  1.00  0.00     0.190 HD
ENDROOT
BRANCH   1   5
HETATM    5  C   UNL     1      44.120 -10.515   7.097  1.00  0.00     0.183 C 
BRANCH   5   6
HETATM    6  C   UNL     1      43.755  -9.866   8.403  1.00  0.00     0.116 A 
HETATM    7  N   UNL     1      43.464  -8.602   8.441  1.00  0.00    -0.227 NA
HETATM    8  C   UNL     1      43.165  -8.123   9.676  1.00  0.00     0.116 A 
HETATM    9  C   UNL     1      43.171  -8.828  10.862  1.00  0.00     0.075 A 
HETATM   10  S   UNL     1      42.720  -6.500   9.913  1.00  0.00    -0.074 SA
HETATM   11  C   UNL     1      42.816  -8.018  11.999  1.00  0.00    -0.031 A 
HETATM   12  C   UNL     1      43.525 -10.232  10.792  1.00  0.00     0.260 A 
HETATM   13  C   UNL     1      42.761  -8.518  13.407  1.00  0.00     0.050 C 
HETATM   14  C   UNL     1      42.548  -6.713  11.603  1.00  0.00    -0.012 A 
HETATM   15  C   UNL     1      42.148  -5.551  12.451  1.00  0.00     0.057 C 
HETATM   16  N   UNL     1      43.783 -10.680   9.515  1.00  0.00    -0.310 N 
HETATM   17  O   UNL     1      43.604 -10.981  11.761  1.00  0.00    -0.267 OA
HETATM   18  H   UNL     1      44.028 -11.658   9.451  1.00  0.00     0.170 HD
ENDBRANCH   5   6
ENDBRANCH   1   5
BRANCH   2  19
HETATM   19  N   UNL     1      42.862 -13.933   6.334  1.00  0.00    -0.267 N 
HETATM   20  C   UNL     1      42.731 -14.484   5.070  1.00  0.00     0.240 C 
HETATM   21  O   UNL     1      43.162 -13.931   4.059  1.00  0.00    -0.272 OA
HETATM   22  H   UNL     1      42.780 -14.515   7.169  1.00  0.00     0.190 HD
BRANCH  20  23
HETATM   23  C   UNL     1      41.983 -15.804   5.054  1.00  0.00     0.148 C 
BRANCH  23  24
HETATM   24  C   UNL     1      42.706 -16.878   4.282  1.00  0.00     0.011 A 
HETATM   25  C   UNL     1      42.378 -17.214   2.961  1.00  0.00     0.043 A 
HETATM   26 CL   UNL     1      41.129 -16.384   2.100  1.00  0.00    -0.084 Cl
HETATM   27  C   UNL     1      43.062 -18.234   2.289  1.00  0.00     0.024 A 
HETATM   28  C   UNL     1      44.082 -18.938   2.929  1.00  0.00     0.005 A 
HETATM   29  C   UNL     1      44.417 -18.618   4.241  1.00  0.00     0.043 A 
HETATM   30  C   UNL     1      43.731 -17.602   4.902  1.00  0.00     0.124 A 
HETATM   31  F   UNL     1      44.081 -17.314   6.163  1.00  0.00    -0.205 F 
ENDBRANCH  23  24
ENDBRANCH  20  23
ENDBRANCH   2  19
TORSDOF 5
ENDMDL
MODEL 8
REMARK VINA RESULT:      -8.1      3.281      4.611
REMARK  5 active torsions:
REMARK  status: ('A' for Active; 'I' for Inactive)
REMARK    1  A    between atoms: C_6  and  C_7 
REMARK    2  A    between atoms: C_7  and  C_8 
REMARK       I    between atoms: C_8  and  N_9 
REMARK    3  A    between atoms: N_9  and  N_10 
REMARK       I    between atoms: N_10  and  C_11 
REMARK    4  A    between atoms: C_11  and  C_12 
REMARK    5  A    between atoms: C_12  and  C_13 
ROOT
HETATM    1  C   UNL     1      39.339 -12.103   5.452  1.00  0.00     0.243 C 
HETATM    2  N   UNL     1      39.544 -12.374   4.118  1.00  0.00    -0.267 N 
HETATM    3  O   UNL     1      39.034 -12.975   6.266  1.00  0.00    -0.271 OA
HETATM    4  H   UNL     1      39.916 -11.679   3.464  1.00  0.00     0.190 HD
ENDROOT
BRANCH   1   5
HETATM    5  C   UNL     1      39.596 -10.677   5.865  1.00  0.00     0.183 C 
BRANCH   5   6
HETATM    6  C   UNL     1      40.929 -10.455   6.525  1.00  0.00     0.116 A 
HETATM    7  N   UNL     1      42.009 -10.924   5.980  1.00  0.00    -0.227 NA
HETATM    8  C   UNL     1      43.150 -10.675   6.674  1.00  0.00     0.116 A 
HETATM    9  C   UNL     1      43.260 -10.017   7.882  1.00  0.00     0.075 A 
HETATM   10  S   UNL     1      44.666 -11.178   6.094  1.00  0.00    -0.074 SA
HETATM   11  C   UNL     1      44.617  -9.933   8.354  1.00  0.00    -0.031 A 
HETATM   12  C   UNL     1      42.032  -9.528   8.479  1.00  0.00     0.260 A 
HETATM   13  C   UNL     1      45.024  -9.291   9.643  1.00  0.00     0.050 C 
HETATM   14  C   UNL     1      45.485 -10.539   7.455  1.00  0.00    -0.012 A 
HETATM   15  C   UNL     1      46.969 -10.681   7.551  1.00  0.00     0.057 C 
HETATM   16  N   UNL     1      40.907  -9.771   7.721  1.00  0.00    -0.310 N 
HETATM   17  O   UNL     1      41.964  -8.953   9.561  1.00  0.00    -0.267 OA
HETATM   18  H   UNL     1      40.044  -9.432   8.124  1.00  0.00     0.170 HD
ENDBRANCH   5   6
ENDBRANCH   1   5
BRANCH   2  19
HETATM   19  N   UNL     1      39.609 -13.716   3.718  1.00  0.00    -0.267 N 
HETATM   20  C   UNL     1      40.871 -14.257   3.537  1.00  0.00     0.240 C 
HETATM   21  O   UNL     1      41.889 -13.567   3.509  1.00  0.00    -0.272 OA
HETATM   22  H   UNL     1      38.832 -14.297   4.034  1.00  0.00     0.190 HD
BRANCH  20  23
HETATM   23  C   UNL     1      40.868 -15.763   3.343  1.00  0.00     0.148 C 
BRANCH  23  24
HETATM   24  C   UNL     1      41.897 -16.465   4.193  1.00  0.00     0.011 A 
HETATM   25  C   UNL     1      41.760 -16.611   5.581  1.00  0.00     0.043 A 
HETATM   26 CL   UNL     1      40.368 -16.024   6.421  1.00  0.00    -0.084 Cl
HETATM   27  C   UNL     1      42.752 -17.251   6.335  1.00  0.00     0.024 A 
HETATM   28  C   UNL     1      43.897 -17.750   5.713  1.00  0.00     0.005 A 
HETATM   29  C   UNL     1      44.048 -17.608   4.337  1.00  0.00     0.043 A 
HETATM   30  C   UNL     1      43.056 -16.970   3.596  1.00  0.00     0.124 A 
HETATM   31  F   UNL     1      43.228 -16.855   2.271  1.00  0.00    -0.205 F 
ENDBRANCH  23  24
ENDBRANCH  20  23
ENDBRANCH   2  19
TORSDOF 5
ENDMDL
MODEL 9
REMARK VINA RESULT:      -8.1      3.695      9.006
REMARK  5 active torsions:
REMARK  status: ('A' for Active; 'I' for Inactive)
REMARK    1  A    between atoms: C_6  and  C_7 
REMARK    2  A    between atoms: C_7  and  C_8 
REMARK       I    between atoms: C_8  and  N_9 
REMARK    3  A    between atoms: N_9  and  N_10 
REMARK       I    between atoms: N_10  and  C_11 
REMARK    4  A    between atoms: C_11  and  C_12 
REMARK    5  A    between atoms: C_12  and  C_13 
ROOT
HETATM    1  C   UNL     1      42.800 -11.324   6.409  1.00  0.00     0.243 C 
HETATM    2  N   UNL     1      43.929 -11.692   7.105  1.00  0.00    -0.267 N 
HETATM    3  O   UNL     1      41.882 -10.684   6.924  1.00  0.00    -0.271 OA
HETATM    4  H   UNL     1      44.744 -12.114   6.650  1.00  0.00     0.190 HD
ENDROOT
BRANCH   1   5
HETATM    5  C   UNL     1      42.800 -11.688   4.946  1.00  0.00     0.183 C 
BRANCH   5   6
HETATM    6  C   UNL     1      42.946 -13.159   4.676  1.00  0.00     0.116 A 
HETATM    7  N   UNL     1      43.082 -13.990   5.663  1.00  0.00    -0.227 NA
HETATM    8  C   UNL     1      43.220 -15.291   5.297  1.00  0.00     0.116 A 
HETATM    9  C   UNL     1      43.259 -15.791   4.012  1.00  0.00     0.075 A 
HETATM   10  S   UNL     1      43.369 -16.525   6.456  1.00  0.00    -0.074 SA
HETATM   11  C   UNL     1      43.429 -17.220   3.971  1.00  0.00    -0.031 A 
HETATM   12  C   UNL     1      43.130 -14.835   2.929  1.00  0.00     0.260 A 
HETATM   13  C   UNL     1      43.523 -18.023   2.712  1.00  0.00     0.050 C 
HETATM   14  C   UNL     1      43.505 -17.740   5.257  1.00  0.00    -0.012 A 
HETATM   15  C   UNL     1      43.682 -19.164   5.673  1.00  0.00     0.057 C 
HETATM   16  N   UNL     1      42.955 -13.535   3.350  1.00  0.00    -0.310 N 
HETATM   17  O   UNL     1      43.177 -15.122   1.737  1.00  0.00    -0.267 OA
HETATM   18  H   UNL     1      42.861 -12.858   2.605  1.00  0.00     0.170 HD
ENDBRANCH   5   6
ENDBRANCH   1   5
BRANCH   2  19
HETATM   19  N   UNL     1      44.129 -11.141   8.379  1.00  0.00    -0.267 N 
HETATM   20  C   UNL     1      45.354 -10.540   8.617  1.00  0.00     0.240 C 
HETATM   21  O   UNL     1      46.310 -10.657   7.851  1.00  0.00    -0.272 OA
HETATM   22  H   UNL     1      43.283 -10.805   8.839  1.00  0.00     0.190 HD
BRANCH  20  23
HETATM   23  C   UNL     1      45.409  -9.762   9.919  1.00  0.00     0.148 C 
BRANCH  23  24
HETATM   24  C   UNL     1      44.085  -9.140  10.285  1.00  0.00     0.011 A 
HETATM   25  C   UNL     1      43.204  -9.721  11.208  1.00  0.00     0.043 A 
HETATM   26 CL   UNL     1      43.595 -11.191  12.030  1.00  0.00    -0.084 Cl
HETATM   27  C   UNL     1      41.973  -9.120  11.501  1.00  0.00     0.024 A 
HETATM   28  C   UNL     1      41.604  -7.931  10.873  1.00  0.00     0.005 A 
HETATM   29  C   UNL     1      42.466  -7.344   9.953  1.00  0.00     0.043 A 
HETATM   30  C   UNL     1      43.688  -7.949   9.667  1.00  0.00     0.124 A 
HETATM   31  F   UNL     1      44.499  -7.355   8.780  1.00  0.00    -0.205 F 
ENDBRANCH  23  24
ENDBRANCH  20  23
ENDBRANCH   2  19
TORSDOF 5
ENDMDL
MODEL 10
REMARK VINA RESULT:      -7.9      6.312      8.892
REMARK  5 active torsions:
REMARK  status: ('A' for Active; 'I' for Inactive)
REMARK    1  A    between atoms: C_6  and  C_7 
REMARK    2  A    between atoms: C_7  and  C_8 
REMARK       I    between atoms: C_8  and  N_9 
REMARK    3  A    between atoms: N_9  and  N_10 
REMARK       I    between atoms: N_10  and  C_11 
REMARK    4  A    between atoms: C_11  and  C_12 
REMARK    5  A    between atoms: C_12  and  C_13 
ROOT
HETATM    1  C   UNL     1      41.328 -12.042   2.779  1.00  0.00     0.243 C 
HETATM    2  N   UNL     1      41.726 -11.233   1.739  1.00  0.00    -0.267 N 
HETATM    3  O   UNL     1      40.169 -12.441   2.902  1.00  0.00    -0.271 OA
HETATM    4  H   UNL     1      42.709 -11.001   1.565  1.00  0.00     0.190 HD
ENDROOT
BRANCH   1   5
HETATM    5  C   UNL     1      42.428 -12.473   3.715  1.00  0.00     0.183 C 
BRANCH   5   6
HETATM    6  C   UNL     1      42.708 -13.950   3.699  1.00  0.00     0.116 A 
HETATM    7  N   UNL     1      42.883 -14.589   4.814  1.00  0.00    -0.227 NA
HETATM    8  C   UNL     1      43.144 -15.915   4.675  1.00  0.00     0.116 A 
HETATM    9  C   UNL     1      43.266 -16.617   3.494  1.00  0.00     0.075 A 
HETATM   10  S   UNL     1      43.363 -16.921   6.027  1.00  0.00    -0.074 SA
HETATM   11  C   UNL     1      43.559 -18.011   3.696  1.00  0.00    -0.031 A 
HETATM   12  C   UNL     1      43.090 -15.870   2.263  1.00  0.00     0.260 A 
HETATM   13  C   UNL     1      43.761 -19.001   2.593  1.00  0.00     0.050 C 
HETATM   14  C   UNL     1      43.640 -18.301   5.053  1.00  0.00    -0.012 A 
HETATM   15  C   UNL     1      43.925 -19.614   5.706  1.00  0.00     0.057 C 
HETATM   16  N   UNL     1      42.791 -14.538   2.456  1.00  0.00    -0.310 N 
HETATM   17  O   UNL     1      43.198 -16.346   1.137  1.00  0.00    -0.267 OA
HETATM   18  H   UNL     1      42.662 -14.007   1.606  1.00  0.00     0.170 HD
ENDBRANCH   5   6
ENDBRANCH   1   5
BRANCH   2  19
HETATM   19  N   UNL     1      40.832 -11.031   0.678  1.00  0.00    -0.267 N 
HETATM   20  C   UNL     1      41.257 -10.213  -0.356  1.00  0.00     0.240 C 
HETATM   21  O   UNL     1      42.267  -9.515  -0.275  1.00  0.00    -0.272 OA
HETATM   22  H   UNL     1      40.193 -11.807   0.501  1.00  0.00     0.190 HD
BRANCH  20  23
HETATM   23  C   UNL     1      40.344 -10.236  -1.568  1.00  0.00     0.148 C 
BRANCH  23  24
HETATM   24  C   UNL     1      39.842 -11.620  -1.896  1.00  0.00     0.011 A 
HETATM   25  C   UNL     1      38.546 -12.050  -1.579  1.00  0.00     0.043 A 
HETATM   26 CL   UNL     1      37.405 -10.999  -0.814  1.00  0.00    -0.084 Cl
HETATM   27  C   UNL     1      38.128 -13.352  -1.882  1.00  0.00     0.024 A 
HETATM   28  C   UNL     1      39.002 -14.244  -2.503  1.00  0.00     0.005 A 
HETATM   29  C   UNL     1      40.293 -13.833  -2.821  1.00  0.00     0.043 A 
HETATM   30  C   UNL     1      40.699 -12.536  -2.515  1.00  0.00     0.124 A 
HETATM   31  F   UNL     1      41.947 -12.168  -2.839  1.00  0.00    -0.205 F 
ENDBRANCH  23  24
ENDBRANCH  20  23
ENDBRANCH   2  19
TORSDOF 5
ENDMDL
