MODEL 1
REMARK VINA RESULT:      -9.2      0.000      0.000
REMARK  8 active torsions:
REMARK  status: ('A' for Active; 'I' for Inactive)
REMARK    1  A    between atoms: C_2  and  C_3 
REMARK    2  A    between atoms: C_5  and  C_6 
REMARK       I    between atoms: C_6  and  N_7 
REMARK    3  A    between atoms: N_7  and  C_8 
REMARK    4  A    between atoms: C_8  and  C_9 
REMARK    5  A    between atoms: C_9  and  N_10 
REMARK    6  A    between atoms: C_9  and  C_20 
REMARK       I    between atoms: N_10  and  C_11 
REMARK    7  A    between atoms: C_11  and  C_12 
REMARK    8  A    between atoms: C_14  and  C_15 
ROOT
HETATM    1  C   UNL     1      42.600 -14.576   3.259  1.00  0.00     0.136 C 
ENDROOT
BRANCH   1   2
HETATM    2  C   UNL     1      41.086 -14.561   2.929  1.00  0.00     0.153 C 
BRANCH   2   3
HETATM    3  N   UNL     1      40.798 -14.181   1.558  1.00  0.00    -0.353 N 
HETATM    4  C   UNL     1      40.117 -15.004   0.689  1.00  0.00     0.275 C 
HETATM    5  O   UNL     1      39.692 -16.105   1.031  1.00  0.00    -0.265 OA
HETATM    6  H   UNL     1      41.204 -13.328   1.189  1.00  0.00     0.162 HD
BRANCH   4   7
HETATM    7  C   UNL     1      39.955 -14.457  -0.641  1.00  0.00     0.143 A 
HETATM    8  O   UNL     1      40.681 -13.355  -1.013  1.00  0.00    -0.310 OA
HETATM    9  C   UNL     1      40.333 -13.056  -2.297  1.00  0.00     0.053 A 
HETATM   10  C   UNL     1      39.388 -13.950  -2.753  1.00  0.00     0.036 A 
HETATM   11  C   UNL     1      39.149 -14.854  -1.691  1.00  0.00     0.045 A 
BRANCH   9  12
HETATM   12  C   UNL     1      41.010 -11.888  -2.911  1.00  0.00     0.060 C 
HETATM   13  C   UNL     1      41.290 -10.801  -1.888  1.00  0.00     0.012 C 
ENDBRANCH   9  12
ENDBRANCH   4   7
ENDBRANCH   2   3
ENDBRANCH   1   2
BRANCH   1  14
HETATM   14  N   UNL     1      43.039 -13.640   4.291  1.00  0.00    -0.345 N 
HETATM   15  C   UNL     1      43.303 -12.303   4.112  1.00  0.00     0.276 C 
HETATM   16  O   UNL     1      43.330 -11.764   3.010  1.00  0.00    -0.265 OA
HETATM   17  H   UNL     1      42.960 -13.945   5.254  1.00  0.00     0.163 HD
BRANCH  15  18
HETATM   18  C   UNL     1      43.555 -11.584   5.345  1.00  0.00     0.143 A 
HETATM   19  O   UNL     1      44.835 -11.500   5.833  1.00  0.00    -0.310 OA
HETATM   20  C   UNL     1      44.779 -10.778   6.988  1.00  0.00     0.053 A 
HETATM   21  C   UNL     1      43.481 -10.394   7.248  1.00  0.00     0.036 A 
HETATM   22  C   UNL     1      42.694 -10.916   6.195  1.00  0.00     0.045 A 
BRANCH  20  23
HETATM   23  C   UNL     1      46.065 -10.556   7.697  1.00  0.00     0.060 C 
HETATM   24  C   UNL     1      46.127  -9.173   8.324  1.00  0.00     0.012 C 
ENDBRANCH  20  23
ENDBRANCH  15  18
ENDBRANCH   1  14
BRANCH   1  25
HETATM   25  C   UNL     1      43.102 -15.981   3.550  1.00  0.00    -0.031 A 
HETATM   26  C   UNL     1      42.895 -17.006   2.610  1.00  0.00     0.049 A 
HETATM   27  C   UNL     1      43.326 -18.306   2.870  1.00  0.00     0.102 A 
HETATM   28  C   UNL     1      43.949 -18.609   4.082  1.00  0.00     0.102 A 
HETATM   29  O   UNL     1      43.088 -19.239   1.892  1.00  0.00    -0.346 OA
HETATM   30  O   UNL     1      44.356 -19.874   4.424  1.00  0.00    -0.346 OA
HETATM   31  C   UNL     1      44.185 -17.602   5.013  1.00  0.00     0.040 A 
HETATM   32  C   UNL     1      43.745 -20.858   3.582  1.00  0.00     0.202 C 
HETATM   33  C   UNL     1      43.833 -20.440   2.122  1.00  0.00     0.202 C 
HETATM   34  C   UNL     1      43.763 -16.296   4.750  1.00  0.00     0.012 A 
ENDBRANCH   1  25
TORSDOF 8
ENDMDL
MODEL 2
REMARK VINA RESULT:      -9.1      0.781      1.412
REMARK  8 active torsions:
REMARK  status: ('A' for Active; 'I' for Inactive)
REMARK    1  A    between atoms: C_2  and  C_3 
REMARK    2  A    between atoms: C_5  and  C_6 
REMARK       I    between atoms: C_6  and  N_7 
REMARK    3  A    between atoms: N_7  and  C_8 
REMARK    4  A    between atoms: C_8  and  C_9 
REMARK    5  A    between atoms: C_9  and  N_10 
REMARK    6  A    between atoms: C_9  and  C_20 
REMARK       I    between atoms: N_10  and  C_11 
REMARK    7  A    between atoms: C_11  and  C_12 
REMARK    8  A    between atoms: C_14  and  C_15 
ROOT
HETATM    1  C   UNL     1      42.418 -14.380   3.043  1.00  0.00     0.136 C 
ENDROOT
BRANCH   1   2
HETATM    2  C   UNL     1      40.905 -14.215   2.749  1.00  0.00     0.153 C 
BRANCH   2   3
HETATM    3  N   UNL     1      40.620 -13.876   1.366  1.00  0.00    -0.353 N 
HETATM    4  C   UNL     1      40.069 -14.775   0.482  1.00  0.00     0.275 C 
HETATM    5  O   UNL     1      39.763 -15.917   0.818  1.00  0.00    -0.265 OA
HETATM    6  H   UNL     1      40.937 -12.983   1.004  1.00  0.00     0.162 HD
BRANCH   4   7
HETATM    7  C   UNL     1      39.888 -14.255  -0.856  1.00  0.00     0.143 A 
HETATM    8  O   UNL     1      40.575 -13.135  -1.247  1.00  0.00    -0.310 OA
HETATM    9  C   UNL     1      40.217 -12.868  -2.534  1.00  0.00     0.053 A 
HETATM   10  C   UNL     1      39.303 -13.801  -2.976  1.00  0.00     0.036 A 
HETATM   11  C   UNL     1      39.096 -14.696  -1.899  1.00  0.00     0.045 A 
BRANCH   9  12
HETATM   12  C   UNL     1      40.853 -11.688  -3.167  1.00  0.00     0.060 C 
HETATM   13  C   UNL     1      41.191 -10.617  -2.144  1.00  0.00     0.012 C 
ENDBRANCH   9  12
ENDBRANCH   4   7
ENDBRANCH   2   3
ENDBRANCH   1   2
BRANCH   1  14
HETATM   14  N   UNL     1      42.947 -13.576   4.142  1.00  0.00    -0.345 N 
HETATM   15  C   UNL     1      43.382 -12.274   4.057  1.00  0.00     0.276 C 
HETATM   16  O   UNL     1      43.501 -11.673   2.994  1.00  0.00    -0.265 OA
HETATM   17  H   UNL     1      42.809 -13.930   5.081  1.00  0.00     0.163 HD
BRANCH  15  18
HETATM   18  C   UNL     1      43.693 -11.675   5.339  1.00  0.00     0.143 A 
HETATM   19  O   UNL     1      45.004 -11.483   5.699  1.00  0.00    -0.310 OA
HETATM   20  C   UNL     1      45.002 -10.910   6.936  1.00  0.00     0.053 A 
HETATM   21  C   UNL     1      43.709 -10.730   7.376  1.00  0.00     0.036 A 
HETATM   22  C   UNL     1      42.868 -11.225   6.352  1.00  0.00     0.045 A 
BRANCH  20  23
HETATM   23  C   UNL     1      46.329 -10.608   7.530  1.00  0.00     0.060 C 
HETATM   24  C   UNL     1      46.350  -9.234   8.181  1.00  0.00     0.012 C 
ENDBRANCH  20  23
ENDBRANCH  15  18
ENDBRANCH   1  14
BRANCH   1  25
HETATM   25  C   UNL     1      42.808 -15.841   3.201  1.00  0.00    -0.031 A 
HETATM   26  C   UNL     1      42.994 -16.379   4.487  1.00  0.00     0.049 A 
HETATM   27  C   UNL     1      43.376 -17.710   4.653  1.00  0.00     0.102 A 
HETATM   28  C   UNL     1      43.600 -18.518   3.537  1.00  0.00     0.102 A 
HETATM   29  O   UNL     1      43.526 -18.150   5.943  1.00  0.00    -0.346 OA
HETATM   30  O   UNL     1      44.022 -19.821   3.623  1.00  0.00    -0.346 OA
HETATM   31  C   UNL     1      43.395 -18.010   2.257  1.00  0.00     0.040 A 
HETATM   32  C   UNL     1      44.543 -20.109   4.926  1.00  0.00     0.202 C 
HETATM   33  C   UNL     1      43.610 -19.578   6.003  1.00  0.00     0.202 C 
HETATM   34  C   UNL     1      43.003 -16.679   2.090  1.00  0.00     0.012 A 
ENDBRANCH   1  25
TORSDOF 8
ENDMDL
MODEL 3
REMARK VINA RESULT:      -8.9      1.513      2.357
REMARK  8 active torsions:
REMARK  status: ('A' for Active; 'I' for Inactive)
REMARK    1  A    between atoms: C_2  and  C_3 
REMARK    2  A    between atoms: C_5  and  C_6 
REMARK       I    between atoms: C_6  and  N_7 
REMARK    3  A    between atoms: N_7  and  C_8 
REMARK    4  A    between atoms: C_8  and  C_9 
REMARK    5  A    between atoms: C_9  and  N_10 
REMARK    6  A    between atoms: C_9  and  C_20 
REMARK       I    between atoms: N_10  and  C_11 
REMARK    7  A    between atoms: C_11  and  C_12 
REMARK    8  A    between atoms: C_14  and  C_15 
ROOT
HETATM    1  C   UNL     1      42.696 -13.789   3.930  1.00  0.00     0.136 C 
ENDROOT
BRANCH   1   2
HETATM    2  C   UNL     1      41.176 -13.488   3.917  1.00  0.00     0.153 C 
BRANCH   2   3
HETATM    3  N   UNL     1      40.662 -13.173   2.596  1.00  0.00    -0.353 N 
HETATM    4  C   UNL     1      39.991 -14.094   1.823  1.00  0.00     0.275 C 
HETATM    5  O   UNL     1      39.768 -15.236   2.217  1.00  0.00    -0.265 OA
HETATM    6  H   UNL     1      40.897 -12.280   2.178  1.00  0.00     0.162 HD
BRANCH   4   7
HETATM    7  C   UNL     1      39.584 -13.596   0.527  1.00  0.00     0.143 A 
HETATM    8  O   UNL     1      39.755 -14.381  -0.584  1.00  0.00    -0.310 OA
HETATM    9  C   UNL     1      39.296 -13.673  -1.654  1.00  0.00     0.053 A 
HETATM   10  C   UNL     1      38.834 -12.440  -1.245  1.00  0.00     0.036 A 
HETATM   11  C   UNL     1      39.014 -12.393   0.157  1.00  0.00     0.045 A 
BRANCH   9  12
HETATM   12  C   UNL     1      39.380 -14.342  -2.975  1.00  0.00     0.060 C 
HETATM   13  C   UNL     1      38.002 -14.599  -3.562  1.00  0.00     0.012 C 
ENDBRANCH   9  12
ENDBRANCH   4   7
ENDBRANCH   2   3
ENDBRANCH   1   2
BRANCH   1  14
HETATM   14  N   UNL     1      43.465 -13.146   4.993  1.00  0.00    -0.345 N 
HETATM   15  C   UNL     1      43.927 -11.851   4.988  1.00  0.00     0.276 C 
HETATM   16  O   UNL     1      43.858 -11.115   4.009  1.00  0.00    -0.265 OA
HETATM   17  H   UNL     1      43.501 -13.619   5.888  1.00  0.00     0.163 HD
BRANCH  15  18
HETATM   18  C   UNL     1      44.511 -11.431   6.247  1.00  0.00     0.143 A 
HETATM   19  O   UNL     1      43.699 -11.199   7.329  1.00  0.00    -0.310 OA
HETATM   20  C   UNL     1      44.504 -10.823   8.363  1.00  0.00     0.053 A 
HETATM   21  C   UNL     1      45.822 -10.812   7.962  1.00  0.00     0.036 A 
HETATM   22  C   UNL     1      45.826 -11.198   6.601  1.00  0.00     0.045 A 
BRANCH  20  23
HETATM   23  C   UNL     1      43.832 -10.520   9.652  1.00  0.00     0.060 C 
HETATM   24  C   UNL     1      44.627  -9.520  10.476  1.00  0.00     0.012 C 
ENDBRANCH  20  23
ENDBRANCH  15  18
ENDBRANCH   1  14
BRANCH   1  25
HETATM   25  C   UNL     1      42.979 -15.282   3.882  1.00  0.00    -0.031 A 
HETATM   26  C   UNL     1      43.110 -16.007   5.079  1.00  0.00     0.049 A 
HETATM   27  C   UNL     1      43.394 -17.372   5.056  1.00  0.00     0.102 A 
HETATM   28  C   UNL     1      43.575 -18.029   3.837  1.00  0.00     0.102 A 
HETATM   29  O   UNL     1      43.497 -17.999   6.271  1.00  0.00    -0.346 OA
HETATM   30  O   UNL     1      43.901 -19.358   3.739  1.00  0.00    -0.346 OA
HETATM   31  C   UNL     1      43.423 -17.332   2.642  1.00  0.00     0.040 A 
HETATM   32  C   UNL     1      44.384 -19.863   4.990  1.00  0.00     0.202 C 
HETATM   33  C   UNL     1      43.478 -19.424   6.128  1.00  0.00     0.202 C 
HETATM   34  C   UNL     1      43.128 -15.966   2.663  1.00  0.00     0.012 A 
ENDBRANCH   1  25
TORSDOF 8
ENDMDL
MODEL 4
REMARK VINA RESULT:      -8.6      1.374      1.953
REMARK  8 active torsions:
REMARK  status: ('A' for Active; 'I' for Inactive)
REMARK    1  A    between atoms: C_2  and  C_3 
REMARK    2  A    between atoms: C_5  and  C_6 
REMARK       I    between atoms: C_6  and  N_7 
REMARK    3  A    between atoms: N_7  and  C_8 
REMARK    4  A    between atoms: C_8  and  C_9 
REMARK    5  A    between atoms: C_9  and  N_10 
REMARK    6  A    between atoms: C_9  and  C_20 
REMARK       I    between atoms: N_10  and  C_11 
REMARK    7  A    between atoms: C_11  and  C_12 
REMARK    8  A    between atoms: C_14  and  C_15 
ROOT
HETATM    1  C   UNL     1      42.552 -14.581   3.737  1.00  0.00     0.136 C 
ENDROOT
BRANCH   1   2
HETATM    2  C   UNL     1      41.005 -14.547   3.643  1.00  0.00     0.153 C 
BRANCH   2   3
HETATM    3  N   UNL     1      40.515 -14.127   2.342  1.00  0.00    -0.353 N 
HETATM    4  C   UNL     1      39.876 -12.925   2.144  1.00  0.00     0.275 C 
HETATM    5  O   UNL     1      39.701 -12.121   3.058  1.00  0.00    -0.265 OA
HETATM    6  H   UNL     1      40.544 -14.785   1.571  1.00  0.00     0.162 HD
BRANCH   4   7
HETATM    7  C   UNL     1      39.438 -12.702   0.783  1.00  0.00     0.143 A 
HETATM    8  O   UNL     1      39.864 -13.545  -0.211  1.00  0.00    -0.310 OA
HETATM    9  C   UNL     1      39.310 -13.107  -1.377  1.00  0.00     0.053 A 
HETATM   10  C   UNL     1      38.537 -11.989  -1.146  1.00  0.00     0.036 A 
HETATM   11  C   UNL     1      38.615 -11.733   0.244  1.00  0.00     0.045 A 
BRANCH   9  12
HETATM   12  C   UNL     1      39.636 -13.885  -2.597  1.00  0.00     0.060 C 
HETATM   13  C   UNL     1      38.766 -15.125  -2.720  1.00  0.00     0.012 C 
ENDBRANCH   9  12
ENDBRANCH   4   7
ENDBRANCH   2   3
ENDBRANCH   1   2
BRANCH   1  14
HETATM   14  N   UNL     1      43.153 -13.681   4.719  1.00  0.00    -0.345 N 
HETATM   15  C   UNL     1      43.506 -12.369   4.506  1.00  0.00     0.276 C 
HETATM   16  O   UNL     1      43.478 -11.836   3.401  1.00  0.00    -0.265 OA
HETATM   17  H   UNL     1      43.135 -13.977   5.687  1.00  0.00     0.163 HD
BRANCH  15  18
HETATM   18  C   UNL     1      43.921 -11.671   5.706  1.00  0.00     0.143 A 
HETATM   19  O   UNL     1      43.090 -10.734   6.268  1.00  0.00    -0.310 OA
HETATM   20  C   UNL     1      43.725 -10.244   7.371  1.00  0.00     0.053 A 
HETATM   21  C   UNL     1      44.951 -10.853   7.526  1.00  0.00     0.036 A 
HETATM   22  C   UNL     1      45.079 -11.767   6.454  1.00  0.00     0.045 A 
BRANCH  20  23
HETATM   23  C   UNL     1      43.001  -9.205   8.147  1.00  0.00     0.060 C 
HETATM   24  C   UNL     1      43.956  -8.172   8.724  1.00  0.00     0.012 C 
ENDBRANCH  20  23
ENDBRANCH  15  18
ENDBRANCH   1  14
BRANCH   1  25
HETATM   25  C   UNL     1      43.078 -15.997   3.904  1.00  0.00    -0.031 A 
HETATM   26  C   UNL     1      42.858 -16.948   2.891  1.00  0.00     0.049 A 
HETATM   27  C   UNL     1      43.311 -18.259   3.037  1.00  0.00     0.102 A 
HETATM   28  C   UNL     1      43.971 -18.647   4.205  1.00  0.00     0.102 A 
HETATM   29  O   UNL     1      43.058 -19.116   1.996  1.00  0.00    -0.346 OA
HETATM   30  O   UNL     1      44.402 -19.928   4.436  1.00  0.00    -0.346 OA
HETATM   31  C   UNL     1      44.220 -17.712   5.206  1.00  0.00     0.040 A 
HETATM   32  C   UNL     1      43.780 -20.852   3.535  1.00  0.00     0.202 C 
HETATM   33  C   UNL     1      43.824 -20.321   2.111  1.00  0.00     0.202 C 
HETATM   34  C   UNL     1      43.775 -16.395   5.057  1.00  0.00     0.012 A 
ENDBRANCH   1  25
TORSDOF 8
ENDMDL
MODEL 5
REMARK VINA RESULT:      -8.4      1.305      7.553
REMARK  8 active torsions:
REMARK  status: ('A' for Active; 'I' for Inactive)
REMARK    1  A    between atoms: C_2  and  C_3 
REMARK    2  A    between atoms: C_5  and  C_6 
REMARK       I    between atoms: C_6  and  N_7 
REMARK    3  A    between atoms: N_7  and  C_8 
REMARK    4  A    between atoms: C_8  and  C_9 
REMARK    5  A    between atoms: C_9  and  N_10 
REMARK    6  A    between atoms: C_9  and  C_20 
REMARK       I    between atoms: N_10  and  C_11 
REMARK    7  A    between atoms: C_11  and  C_12 
REMARK    8  A    between atoms: C_14  and  C_15 
ROOT
HETATM    1  C   UNL     1      42.433 -14.528   3.602  1.00  0.00     0.136 C 
ENDROOT
BRANCH   1   2
HETATM    2  C   UNL     1      43.478 -13.442   3.967  1.00  0.00     0.153 C 
BRANCH   2   3
HETATM    3  N   UNL     1      43.036 -12.549   5.022  1.00  0.00    -0.353 N 
HETATM    4  C   UNL     1      43.793 -11.483   5.455  1.00  0.00     0.275 C 
HETATM    5  O   UNL     1      44.882 -11.211   4.956  1.00  0.00    -0.265 OA
HETATM    6  H   UNL     1      42.193 -12.776   5.538  1.00  0.00     0.162 HD
BRANCH   4   7
HETATM    7  C   UNL     1      43.193 -10.729   6.534  1.00  0.00     0.143 A 
HETATM    8  O   UNL     1      43.893 -10.539   7.698  1.00  0.00    -0.310 OA
HETATM    9  C   UNL     1      43.100  -9.809   8.533  1.00  0.00     0.053 A 
HETATM   10  C   UNL     1      41.895  -9.531   7.921  1.00  0.00     0.036 A 
HETATM   11  C   UNL     1      41.957 -10.118   6.635  1.00  0.00     0.045 A 
BRANCH   9  12
HETATM   12  C   UNL     1      43.667  -9.477   9.862  1.00  0.00     0.060 C 
HETATM   13  C   UNL     1      45.143  -9.828   9.945  1.00  0.00     0.012 C 
ENDBRANCH   9  12
ENDBRANCH   4   7
ENDBRANCH   2   3
ENDBRANCH   1   2
BRANCH   1  14
HETATM   14  N   UNL     1      41.806 -14.396   2.289  1.00  0.00    -0.345 N 
HETATM   15  C   UNL     1      40.546 -13.907   2.040  1.00  0.00     0.276 C 
HETATM   16  O   UNL     1      39.738 -13.646   2.925  1.00  0.00    -0.265 OA
HETATM   17  H   UNL     1      42.408 -14.488   1.480  1.00  0.00     0.163 HD
BRANCH  15  18
HETATM   18  C   UNL     1      40.253 -13.732   0.631  1.00  0.00     0.143 A 
HETATM   19  O   UNL     1      39.685 -14.761  -0.078  1.00  0.00    -0.310 OA
HETATM   20  C   UNL     1      39.523 -14.326  -1.360  1.00  0.00     0.053 A 
HETATM   21  C   UNL     1      39.977 -13.031  -1.485  1.00  0.00     0.036 A 
HETATM   22  C   UNL     1      40.450 -12.651  -0.207  1.00  0.00     0.045 A 
BRANCH  20  23
HETATM   23  C   UNL     1      38.916 -15.286  -2.316  1.00  0.00     0.060 C 
HETATM   24  C   UNL     1      38.216 -14.570  -3.460  1.00  0.00     0.012 C 
ENDBRANCH  20  23
ENDBRANCH  15  18
ENDBRANCH   1  14
BRANCH   1  25
HETATM   25  C   UNL     1      42.981 -15.931   3.805  1.00  0.00    -0.031 A 
HETATM   26  C   UNL     1      42.761 -16.915   2.824  1.00  0.00     0.049 A 
HETATM   27  C   UNL     1      43.234 -18.215   3.003  1.00  0.00     0.102 A 
HETATM   28  C   UNL     1      43.913 -18.559   4.174  1.00  0.00     0.102 A 
HETATM   29  O   UNL     1      42.979 -19.106   1.991  1.00  0.00    -0.346 OA
HETATM   30  O   UNL     1      44.365 -19.827   4.437  1.00  0.00    -0.346 OA
HETATM   31  C   UNL     1      44.163 -17.591   5.142  1.00  0.00     0.040 A 
HETATM   32  C   UNL     1      43.743 -20.785   3.572  1.00  0.00     0.202 C 
HETATM   33  C   UNL     1      43.762 -20.297   2.133  1.00  0.00     0.202 C 
HETATM   34  C   UNL     1      43.698 -16.285   4.960  1.00  0.00     0.012 A 
ENDBRANCH   1  25
TORSDOF 8
ENDMDL
MODEL 6
REMARK VINA RESULT:      -8.3      1.810      8.292
REMARK  8 active torsions:
REMARK  status: ('A' for Active; 'I' for Inactive)
REMARK    1  A    between atoms: C_2  and  C_3 
REMARK    2  A    between atoms: C_5  and  C_6 
REMARK       I    between atoms: C_6  and  N_7 
REMARK    3  A    between atoms: N_7  and  C_8 
REMARK    4  A    between atoms: C_8  and  C_9 
REMARK    5  A    between atoms: C_9  and  N_10 
REMARK    6  A    between atoms: C_9  and  C_20 
REMARK       I    between atoms: N_10  and  C_11 
REMARK    7  A    between atoms: C_11  and  C_12 
REMARK    8  A    between atoms: C_14  and  C_15 
ROOT
HETATM    1  C   UNL     1      42.730 -14.243   5.214  1.00  0.00     0.136 C 
ENDROOT
BRANCH   1   2
HETATM    2  C   UNL     1      42.232 -15.328   6.203  1.00  0.00     0.153 C 
BRANCH   2   3
HETATM    3  N   UNL     1      42.523 -16.682   5.768  1.00  0.00    -0.353 N 
HETATM    4  C   UNL     1      43.508 -17.450   6.345  1.00  0.00     0.275 C 
HETATM    5  O   UNL     1      44.188 -17.041   7.283  1.00  0.00    -0.265 OA
HETATM    6  H   UNL     1      42.062 -17.040   4.939  1.00  0.00     0.162 HD
BRANCH   4   7
HETATM    7  C   UNL     1      43.662 -18.761   5.753  1.00  0.00     0.143 A 
HETATM    8  O   UNL     1      43.743 -18.882   4.389  1.00  0.00    -0.310 OA
HETATM    9  C   UNL     1      43.878 -20.209   4.108  1.00  0.00     0.053 A 
HETATM   10  C   UNL     1      43.880 -20.944   5.275  1.00  0.00     0.036 A 
HETATM   11  C   UNL     1      43.746 -20.013   6.332  1.00  0.00     0.045 A 
BRANCH   9  12
HETATM   12  C   UNL     1      43.992 -20.574   2.675  1.00  0.00     0.060 C 
HETATM   13  C   UNL     1      42.885 -19.944   1.847  1.00  0.00     0.012 C 
ENDBRANCH   9  12
ENDBRANCH   4   7
ENDBRANCH   2   3
ENDBRANCH   1   2
BRANCH   1  14
HETATM   14  N   UNL     1      41.974 -14.117   3.970  1.00  0.00    -0.345 N 
HETATM   15  C   UNL     1      42.498 -13.845   2.728  1.00  0.00     0.276 C 
HETATM   16  O   UNL     1      43.671 -13.537   2.546  1.00  0.00    -0.265 OA
HETATM   17  H   UNL     1      41.015 -14.442   3.978  1.00  0.00     0.163 HD
BRANCH  15  18
HETATM   18  C   UNL     1      41.535 -13.948   1.650  1.00  0.00     0.143 A 
HETATM   19  O   UNL     1      41.484 -12.969   0.689  1.00  0.00    -0.310 OA
HETATM   20  C   UNL     1      40.500 -13.317  -0.188  1.00  0.00     0.053 A 
HETATM   21  C   UNL     1      39.919 -14.507   0.194  1.00  0.00     0.036 A 
HETATM   22  C   UNL     1      40.581 -14.910   1.378  1.00  0.00     0.045 A 
BRANCH  20  23
HETATM   23  C   UNL     1      40.266 -12.392  -1.327  1.00  0.00     0.060 C 
HETATM   24  C   UNL     1      40.825 -11.007  -1.045  1.00  0.00     0.012 C 
ENDBRANCH  20  23
ENDBRANCH  15  18
ENDBRANCH   1  14
BRANCH   1  25
HETATM   25  C   UNL     1      42.893 -12.891   5.891  1.00  0.00    -0.031 A 
HETATM   26  C   UNL     1      43.968 -12.675   6.770  1.00  0.00     0.049 A 
HETATM   27  C   UNL     1      44.121 -11.451   7.420  1.00  0.00     0.102 A 
HETATM   28  C   UNL     1      43.188 -10.430   7.219  1.00  0.00     0.102 A 
HETATM   29  O   UNL     1      45.203 -11.328   8.254  1.00  0.00    -0.346 OA
HETATM   30  O   UNL     1      43.250  -9.219   7.859  1.00  0.00    -0.346 OA
HETATM   31  C   UNL     1      42.133 -10.618   6.332  1.00  0.00     0.040 A 
HETATM   32  C   UNL     1      44.129  -9.276   8.988  1.00  0.00     0.202 C 
HETATM   33  C   UNL     1      45.434  -9.961   8.614  1.00  0.00     0.202 C 
HETATM   34  C   UNL     1      41.984 -11.842   5.672  1.00  0.00     0.012 A 
ENDBRANCH   1  25
TORSDOF 8
ENDMDL
MODEL 7
REMARK VINA RESULT:      -8.3      1.788      6.772
REMARK  8 active torsions:
REMARK  status: ('A' for Active; 'I' for Inactive)
REMARK    1  A    between atoms: C_2  and  C_3 
REMARK    2  A    between atoms: C_5  and  C_6 
REMARK       I    between atoms: C_6  and  N_7 
REMARK    3  A    between atoms: N_7  and  C_8 
REMARK    4  A    between atoms: C_8  and  C_9 
REMARK    5  A    between atoms: C_9  and  N_10 
REMARK    6  A    between atoms: C_9  and  C_20 
REMARK       I    between atoms: N_10  and  C_11 
REMARK    7  A    between atoms: C_11  and  C_12 
REMARK    8  A    between atoms: C_14  and  C_15 
ROOT
HETATM    1  C   UNL     1      42.346 -12.946   4.087  1.00  0.00     0.136 C 
ENDROOT
BRANCH   1   2
HETATM    2  C   UNL     1      42.679 -12.365   2.689  1.00  0.00     0.153 C 
BRANCH   2   3
HETATM    3  N   UNL     1      41.514 -12.214   1.836  1.00  0.00    -0.353 N 
HETATM    4  C   UNL     1      41.044 -13.230   1.036  1.00  0.00     0.275 C 
HETATM    5  O   UNL     1      41.573 -14.340   1.013  1.00  0.00    -0.265 OA
HETATM    6  H   UNL     1      41.093 -11.296   1.738  1.00  0.00     0.162 HD
BRANCH   4   7
HETATM    7  C   UNL     1      39.891 -12.874   0.239  1.00  0.00     0.143 A 
HETATM    8  O   UNL     1      39.599 -13.595  -0.891  1.00  0.00    -0.310 OA
HETATM    9  C   UNL     1      38.479 -13.047  -1.442  1.00  0.00     0.053 A 
HETATM   10  C   UNL     1      38.049 -11.979  -0.684  1.00  0.00     0.036 A 
HETATM   11  C   UNL     1      38.954 -11.871   0.399  1.00  0.00     0.045 A 
BRANCH   9  12
HETATM   12  C   UNL     1      37.975 -13.682  -2.684  1.00  0.00     0.060 C 
HETATM   13  C   UNL     1      38.643 -15.023  -2.939  1.00  0.00     0.012 C 
ENDBRANCH   9  12
ENDBRANCH   4   7
ENDBRANCH   2   3
ENDBRANCH   1   2
BRANCH   1  14
HETATM   14  N   UNL     1      42.800 -14.312   4.336  1.00  0.00    -0.345 N 
HETATM   15  C   UNL     1      42.008 -15.435   4.366  1.00  0.00     0.276 C 
HETATM   16  O   UNL     1      40.782 -15.396   4.318  1.00  0.00    -0.265 OA
HETATM   17  H   UNL     1      43.797 -14.482   4.295  1.00  0.00     0.163 HD
BRANCH  15  18
HETATM   18  C   UNL     1      42.752 -16.675   4.465  1.00  0.00     0.143 A 
HETATM   19  O   UNL     1      43.078 -17.365   3.324  1.00  0.00    -0.310 OA
HETATM   20  C   UNL     1      43.766 -18.477   3.709  1.00  0.00     0.053 A 
HETATM   21  C   UNL     1      43.889 -18.511   5.081  1.00  0.00     0.036 A 
HETATM   22  C   UNL     1      43.233 -17.356   5.567  1.00  0.00     0.045 A 
BRANCH  20  23
HETATM   23  C   UNL     1      44.227 -19.382   2.625  1.00  0.00     0.060 C 
HETATM   24  C   UNL     1      43.081 -20.203   2.057  1.00  0.00     0.012 C 
ENDBRANCH  20  23
ENDBRANCH  15  18
ENDBRANCH   1  14
BRANCH   1  25
HETATM   25  C   UNL     1      42.786 -12.015   5.206  1.00  0.00    -0.031 A 
HETATM   26  C   UNL     1      44.128 -12.009   5.623  1.00  0.00     0.049 A 
HETATM   27  C   UNL     1      44.545 -11.180   6.664  1.00  0.00     0.102 A 
HETATM   28  C   UNL     1      43.624 -10.361   7.320  1.00  0.00     0.102 A 
HETATM   29  O   UNL     1      45.875 -11.236   6.999  1.00  0.00    -0.346 OA
HETATM   30  O   UNL     1      43.954  -9.557   8.381  1.00  0.00    -0.346 OA
HETATM   31  C   UNL     1      42.297 -10.335   6.903  1.00  0.00     0.040 A 
HETATM   32  C   UNL     1      45.216  -9.935   8.943  1.00  0.00     0.202 C 
HETATM   33  C   UNL     1      46.247 -10.142   7.846  1.00  0.00     0.202 C 
HETATM   34  C   UNL     1      41.879 -11.158   5.853  1.00  0.00     0.012 A 
ENDBRANCH   1  25
TORSDOF 8
ENDMDL
MODEL 8
REMARK VINA RESULT:      -8.2      1.905      8.407
REMARK  8 active torsions:
REMARK  status: ('A' for Active; 'I' for Inactive)
REMARK    1  A    between atoms: C_2  and  C_3 
REMARK    2  A    between atoms: C_5  and  C_6 
REMARK       I    between atoms: C_6  and  N_7 
REMARK    3  A    between atoms: N_7  and  C_8 
REMARK    4  A    between atoms: C_8  and  C_9 
REMARK    5  A    between atoms: C_9  and  N_10 
REMARK    6  A    between atoms: C_9  and  C_20 
REMARK       I    between atoms: N_10  and  C_11 
REMARK    7  A    between atoms: C_11  and  C_12 
REMARK    8  A    between atoms: C_14  and  C_15 
ROOT
HETATM    1  C   UNL     1      41.444 -13.239   1.962  1.00  0.00     0.136 C 
ENDROOT
BRANCH   1   2
HETATM    2  C   UNL     1      40.832 -12.361   3.084  1.00  0.00     0.153 C 
BRANCH   2   3
HETATM    3  N   UNL     1      41.802 -11.933   4.075  1.00  0.00    -0.353 N 
HETATM    4  C   UNL     1      42.102 -12.683   5.190  1.00  0.00     0.275 C 
HETATM    5  O   UNL     1      41.580 -13.776   5.401  1.00  0.00    -0.265 OA
HETATM    6  H   UNL     1      42.195 -11.001   4.008  1.00  0.00     0.162 HD
BRANCH   4   7
HETATM    7  C   UNL     1      43.073 -12.073   6.072  1.00  0.00     0.143 A 
HETATM    8  O   UNL     1      42.826 -10.828   6.593  1.00  0.00    -0.310 OA
HETATM    9  C   UNL     1      43.892 -10.498   7.375  1.00  0.00     0.053 A 
HETATM   10  C   UNL     1      44.825 -11.514   7.361  1.00  0.00     0.036 A 
HETATM   11  C   UNL     1      44.295 -12.528   6.528  1.00  0.00     0.045 A 
BRANCH   9  12
HETATM   12  C   UNL     1      43.834  -9.179   8.051  1.00  0.00     0.060 C 
HETATM   13  C   UNL     1      45.060  -8.938   8.915  1.00  0.00     0.012 C 
ENDBRANCH   9  12
ENDBRANCH   4   7
ENDBRANCH   2   3
ENDBRANCH   1   2
BRANCH   1  14
HETATM   14  N   UNL     1      41.882 -14.574   2.363  1.00  0.00    -0.345 N 
HETATM   15  C   UNL     1      43.146 -15.093   2.205  1.00  0.00     0.276 C 
HETATM   16  O   UNL     1      44.032 -14.527   1.573  1.00  0.00    -0.265 OA
HETATM   17  H   UNL     1      41.269 -15.095   2.978  1.00  0.00     0.163 HD
BRANCH  15  18
HETATM   18  C   UNL     1      43.337 -16.377   2.849  1.00  0.00     0.143 A 
HETATM   19  O   UNL     1      43.336 -17.523   2.093  1.00  0.00    -0.310 OA
HETATM   20  C   UNL     1      43.534 -18.568   2.945  1.00  0.00     0.053 A 
HETATM   21  C   UNL     1      43.664 -18.110   4.239  1.00  0.00     0.036 A 
HETATM   22  C   UNL     1      43.532 -16.703   4.177  1.00  0.00     0.045 A 
BRANCH  20  23
HETATM   23  C   UNL     1      43.572 -19.923   2.339  1.00  0.00     0.060 C 
HETATM   24  C   UNL     1      43.844 -20.995   3.382  1.00  0.00     0.012 C 
ENDBRANCH  20  23
ENDBRANCH  15  18
ENDBRANCH   1  14
BRANCH   1  25
HETATM   25  C   UNL     1      40.543 -13.306   0.740  1.00  0.00    -0.031 A 
HETATM   26  C   UNL     1      39.863 -12.153   0.309  1.00  0.00     0.049 A 
HETATM   27  C   UNL     1      39.012 -12.200  -0.794  1.00  0.00     0.102 A 
HETATM   28  C   UNL     1      38.808 -13.405  -1.471  1.00  0.00     0.102 A 
HETATM   29  O   UNL     1      38.397 -11.026  -1.147  1.00  0.00    -0.346 OA
HETATM   30  O   UNL     1      37.952 -13.535  -2.534  1.00  0.00    -0.346 OA
HETATM   31  C   UNL     1      39.494 -14.549  -1.074  1.00  0.00     0.040 A 
HETATM   32  C   UNL     1      37.052 -12.423  -2.611  1.00  0.00     0.202 C 
HETATM   33  C   UNL     1      37.808 -11.114  -2.450  1.00  0.00     0.202 C 
HETATM   34  C   UNL     1      40.354 -14.501   0.026  1.00  0.00     0.012 A 
ENDBRANCH   1  25
TORSDOF 8
ENDMDL
MODEL 9
REMARK VINA RESULT:      -8.2      2.605      7.651
REMARK  8 active torsions:
REMARK  status: ('A' for Active; 'I' for Inactive)
REMARK    1  A    between atoms: C_2  and  C_3 
REMARK    2  A    between atoms: C_5  and  C_6 
REMARK       I    between atoms: C_6  and  N_7 
REMARK    3  A    between atoms: N_7  and  C_8 
REMARK    4  A    between atoms: C_8  and  C_9 
REMARK    5  A    between atoms: C_9  and  N_10 
REMARK    6  A    between atoms: C_9  and  C_20 
REMARK       I    between atoms: N_10  and  C_11 
REMARK    7  A    between atoms: C_11  and  C_12 
REMARK    8  A    between atoms: C_14  and  C_15 
ROOT
HETATM    1  C   UNL     1      42.698 -14.782   6.215  1.00  0.00     0.136 C 
ENDROOT
BRANCH   1   2
HETATM    2  C   UNL     1      43.941 -13.944   6.607  1.00  0.00     0.153 C 
BRANCH   2   3
HETATM    3  N   UNL     1      43.624 -12.790   7.428  1.00  0.00    -0.353 N 
HETATM    4  C   UNL     1      44.432 -11.677   7.486  1.00  0.00     0.275 C 
HETATM    5  O   UNL     1      45.465 -11.586   6.826  1.00  0.00    -0.265 OA
HETATM    6  H   UNL     1      42.838 -12.842   8.067  1.00  0.00     0.162 HD
BRANCH   4   7
HETATM    7  C   UNL     1      43.958 -10.645   8.383  1.00  0.00     0.143 A 
HETATM    8  O   UNL     1      43.950 -10.875   9.735  1.00  0.00    -0.310 OA
HETATM    9  C   UNL     1      43.457  -9.753  10.332  1.00  0.00     0.053 A 
HETATM   10  C   UNL     1      43.144  -8.806   9.380  1.00  0.00     0.036 A 
HETATM   11  C   UNL     1      43.471  -9.378   8.128  1.00  0.00     0.045 A 
BRANCH   9  12
HETATM   12  C   UNL     1      43.365  -9.778  11.812  1.00  0.00     0.060 C 
HETATM   13  C   UNL     1      43.368  -8.376  12.398  1.00  0.00     0.012 C 
ENDBRANCH   9  12
ENDBRANCH   4   7
ENDBRANCH   2   3
ENDBRANCH   1   2
BRANCH   1  14
HETATM   14  N   UNL     1      41.822 -14.191   5.205  1.00  0.00    -0.345 N 
HETATM   15  C   UNL     1      40.549 -13.716   5.415  1.00  0.00     0.276 C 
HETATM   16  O   UNL     1      39.942 -13.861   6.471  1.00  0.00    -0.265 OA
HETATM   17  H   UNL     1      42.246 -13.931   4.323  1.00  0.00     0.163 HD
BRANCH  15  18
HETATM   18  C   UNL     1      39.983 -13.029   4.271  1.00  0.00     0.143 A 
HETATM   19  O   UNL     1      40.145 -13.557   3.014  1.00  0.00    -0.310 OA
HETATM   20  C   UNL     1      39.519 -12.717   2.141  1.00  0.00     0.053 A 
HETATM   21  C   UNL     1      38.956 -11.658   2.820  1.00  0.00     0.036 A 
HETATM   22  C   UNL     1      39.258 -11.856   4.188  1.00  0.00     0.045 A 
BRANCH  20  23
HETATM   23  C   UNL     1      39.565 -13.095   0.706  1.00  0.00     0.060 C 
HETATM   24  C   UNL     1      40.978 -13.014   0.151  1.00  0.00     0.012 C 
ENDBRANCH  20  23
ENDBRANCH  15  18
ENDBRANCH   1  14
BRANCH   1  25
HETATM   25  C   UNL     1      43.069 -16.208   5.844  1.00  0.00    -0.031 A 
HETATM   26  C   UNL     1      43.214 -16.563   4.491  1.00  0.00     0.049 A 
HETATM   27  C   UNL     1      43.530 -17.873   4.130  1.00  0.00     0.102 A 
HETATM   28  C   UNL     1      43.684 -18.853   5.113  1.00  0.00     0.102 A 
HETATM   29  O   UNL     1      43.658 -18.126   2.788  1.00  0.00    -0.346 OA
HETATM   30  O   UNL     1      43.948 -20.169   4.828  1.00  0.00    -0.346 OA
HETATM   31  C   UNL     1      43.570 -18.513   6.457  1.00  0.00     0.040 A 
HETATM   32  C   UNL     1      43.679 -20.463   3.452  1.00  0.00     0.202 C 
HETATM   33  C   UNL     1      44.278 -19.395   2.551  1.00  0.00     0.202 C 
HETATM   34  C   UNL     1      43.263 -17.199   6.822  1.00  0.00     0.012 A 
ENDBRANCH   1  25
TORSDOF 8
ENDMDL
MODEL 10
REMARK VINA RESULT:      -8.2      2.005      6.817
REMARK  8 active torsions:
REMARK  status: ('A' for Active; 'I' for Inactive)
REMARK    1  A    between atoms: C_2  and  C_3 
REMARK    2  A    between atoms: C_5  and  C_6 
REMARK       I    between atoms: C_6  and  N_7 
REMARK    3  A    between atoms: N_7  and  C_8 
REMARK    4  A    between atoms: C_8  and  C_9 
REMARK    5  A    between atoms: C_9  and  N_10 
REMARK    6  A    between atoms: C_9  and  C_20 
REMARK       I    between atoms: N_10  and  C_11 
REMARK    7  A    between atoms: C_11  and  C_12 
REMARK    8  A    between atoms: C_14  and  C_15 
ROOT
HETATM    1  C   UNL     1      41.952 -12.533   4.660  1.00  0.00     0.136 C 
ENDROOT
BRANCH   1   2
HETATM    2  C   UNL     1      41.658 -11.572   3.481  1.00  0.00     0.153 C 
BRANCH   2   3
HETATM    3  N   UNL     1      41.252 -12.255   2.267  1.00  0.00    -0.353 N 
HETATM    4  C   UNL     1      39.945 -12.609   2.018  1.00  0.00     0.275 C 
HETATM    5  O   UNL     1      39.037 -12.345   2.803  1.00  0.00    -0.265 OA
HETATM    6  H   UNL     1      41.965 -12.585   1.626  1.00  0.00     0.162 HD
BRANCH   4   7
HETATM    7  C   UNL     1      39.747 -13.308   0.767  1.00  0.00     0.143 A 
HETATM    8  O   UNL     1      39.151 -12.659  -0.284  1.00  0.00    -0.310 OA
HETATM    9  C   UNL     1      39.087 -13.542  -1.321  1.00  0.00     0.053 A 
HETATM   10  C   UNL     1      39.632 -14.753  -0.948  1.00  0.00     0.036 A 
HETATM   11  C   UNL     1      40.060 -14.600   0.392  1.00  0.00     0.045 A 
BRANCH   9  12
HETATM   12  C   UNL     1      38.477 -13.044  -2.578  1.00  0.00     0.060 C 
HETATM   13  C   UNL     1      37.437 -11.971  -2.308  1.00  0.00     0.012 C 
ENDBRANCH   9  12
ENDBRANCH   4   7
ENDBRANCH   2   3
ENDBRANCH   1   2
BRANCH   1  14
HETATM   14  N   UNL     1      42.394 -13.877   4.295  1.00  0.00    -0.345 N 
HETATM   15  C   UNL     1      41.675 -15.038   4.458  1.00  0.00     0.276 C 
HETATM   16  O   UNL     1      40.612 -15.091   5.068  1.00  0.00    -0.265 OA
HETATM   17  H   UNL     1      43.210 -13.948   3.699  1.00  0.00     0.163 HD
BRANCH  15  18
HETATM   18  C   UNL     1      42.292 -16.200   3.849  1.00  0.00     0.143 A 
HETATM   19  O   UNL     1      43.220 -16.924   4.555  1.00  0.00    -0.310 OA
HETATM   20  C   UNL     1      43.628 -17.947   3.751  1.00  0.00     0.053 A 
HETATM   21  C   UNL     1      42.974 -17.891   2.539  1.00  0.00     0.036 A 
HETATM   22  C   UNL     1      42.118 -16.766   2.601  1.00  0.00     0.045 A 
BRANCH  20  23
HETATM   23  C   UNL     1      44.643 -18.872   4.315  1.00  0.00     0.060 C 
HETATM   24  C   UNL     1      44.000 -19.956   5.166  1.00  0.00     0.012 C 
ENDBRANCH  20  23
ENDBRANCH  15  18
ENDBRANCH   1  14
BRANCH   1  25
HETATM   25  C   UNL     1      42.894 -11.910   5.678  1.00  0.00    -0.031 A 
HETATM   26  C   UNL     1      42.563 -10.680   6.275  1.00  0.00     0.049 A 
HETATM   27  C   UNL     1      43.425 -10.080   7.192  1.00  0.00     0.102 A 
HETATM   28  C   UNL     1      44.643 -10.686   7.510  1.00  0.00     0.102 A 
HETATM   29  O   UNL     1      43.016  -8.886   7.729  1.00  0.00    -0.346 OA
HETATM   30  O   UNL     1      45.559 -10.131   8.366  1.00  0.00    -0.346 OA
HETATM   31  C   UNL     1      44.974 -11.916   6.948  1.00  0.00     0.040 A 
HETATM   32  C   UNL     1      45.287  -8.742   8.582  1.00  0.00     0.202 C 
HETATM   33  C   UNL     1      43.810  -8.524   8.866  1.00  0.00     0.202 C 
HETATM   34  C   UNL     1      44.106 -12.524   6.036  1.00  0.00     0.012 A 
ENDBRANCH   1  25
TORSDOF 8
ENDMDL
