MODEL 1
REMARK VINA RESULT:      -7.7      0.000      0.000
REMARK  5 active torsions:
REMARK  status: ('A' for Active; 'I' for Inactive)
REMARK    1  A    between atoms: C_3  and  C_4 
REMARK       I    between atoms: C_4  and  N_5 
REMARK    2  A    between atoms: C_7  and  N_8 
REMARK    3  A    between atoms: N_8  and  C_9 
REMARK    4  A    between atoms: C_9  and  C_10 
REMARK    5  A    between atoms: C_10  and  C_11 
ROOT
HETATM    1  C   UNL     1      40.576 -12.600   4.549  1.00  0.00     0.049 C 
HETATM    2  C   UNL     1      41.745 -13.106   5.350  1.00  0.00    -0.041 A 
HETATM    3  C   UNL     1      41.729 -14.359   5.984  1.00  0.00     0.081 A 
HETATM    4  C   UNL     1      42.821 -14.796   6.766  1.00  0.00     0.117 A 
HETATM    5  N   UNL     1      43.849 -13.940   6.912  1.00  0.00    -0.346 N 
HETATM    6  H   UNL     1      44.607 -14.219   7.525  1.00  0.00     0.167 HD
HETATM    7  C   UNL     1      43.919 -12.728   6.332  1.00  0.00     0.007 A 
HETATM    8  C   UNL     1      45.120 -11.874   6.585  1.00  0.00     0.068 C 
HETATM    9  C   UNL     1      42.862 -12.290   5.535  1.00  0.00     0.032 A 
ENDROOT
BRANCH   4  10
HETATM   10  N   UNL     1      42.813 -15.996   7.469  1.00  0.00    -0.375 N 
HETATM   11  H   UNL     1      42.061 -16.040   8.163  1.00  0.00     0.161 HD
BRANCH  10  12
HETATM   12  C   UNL     1      43.102 -17.282   6.843  1.00  0.00     0.126 C 
BRANCH  12  13
HETATM   13  C   UNL     1      44.171 -17.139   5.754  1.00  0.00     0.058 C 
BRANCH  13  14
HETATM   14  C   UNL     1      43.882 -18.073   4.605  1.00  0.00    -0.057 A 
HETATM   15  C   UNL     1      44.184 -19.439   4.714  1.00  0.00     0.010 A 
HETATM   16  C   UNL     1      43.966 -20.298   3.635  1.00  0.00     0.043 A 
HETATM   17  C   UNL     1      43.451 -19.791   2.448  1.00  0.00     0.116 A 
HETATM   18  F   UNL     1      43.255 -20.613   1.410  1.00  0.00    -0.206 F 
HETATM   19  C   UNL     1      43.142 -18.442   2.323  1.00  0.00     0.043 A 
HETATM   20  C   UNL     1      43.355 -17.581   3.400  1.00  0.00     0.010 A 
ENDBRANCH  13  14
ENDBRANCH  12  13
ENDBRANCH  10  12
ENDBRANCH   4  10
BRANCH   3  21
HETATM   21  C   UNL     1      40.530 -15.205   5.899  1.00  0.00     0.253 C 
HETATM   22  N   UNL     1      40.398 -15.960   4.768  1.00  0.00    -0.366 N 
HETATM   23  H   UNL     1      40.874 -15.737   3.904  1.00  0.00     0.159 HD
HETATM   24  H   UNL     1      39.501 -16.430   4.667  1.00  0.00     0.159 HD
HETATM   25  O   UNL     1      39.708 -15.207   6.800  1.00  0.00    -0.268 OA
ENDBRANCH   3  21
TORSDOF 5
ENDMDL
MODEL 2
REMARK VINA RESULT:      -7.4      2.360      3.286
REMARK  5 active torsions:
REMARK  status: ('A' for Active; 'I' for Inactive)
REMARK    1  A    between atoms: C_3  and  C_4 
REMARK       I    between atoms: C_4  and  N_5 
REMARK    2  A    between atoms: C_7  and  N_8 
REMARK    3  A    between atoms: N_8  and  C_9 
REMARK    4  A    between atoms: C_9  and  C_10 
REMARK    5  A    between atoms: C_10  and  C_11 
ROOT
HETATM    1  C   UNL     1      39.298 -12.106   5.521  1.00  0.00     0.049 C 
HETATM    2  C   UNL     1      40.375 -13.138   5.320  1.00  0.00    -0.041 A 
HETATM    3  C   UNL     1      40.726 -13.612   4.045  1.00  0.00     0.081 A 
HETATM    4  C   UNL     1      41.710 -14.612   3.883  1.00  0.00     0.117 A 
HETATM    5  N   UNL     1      42.258 -15.118   5.003  1.00  0.00    -0.346 N 
HETATM    6  H   UNL     1      42.917 -15.881   4.898  1.00  0.00     0.167 HD
HETATM    7  C   UNL     1      41.960 -14.706   6.248  1.00  0.00     0.007 A 
HETATM    8  C   UNL     1      42.640 -15.361   7.408  1.00  0.00     0.068 C 
HETATM    9  C   UNL     1      41.010 -13.701   6.428  1.00  0.00     0.032 A 
ENDROOT
BRANCH   4  10
HETATM   10  N   UNL     1      42.032 -15.159   2.646  1.00  0.00    -0.375 N 
HETATM   11  H   UNL     1      41.755 -14.555   1.865  1.00  0.00     0.161 HD
BRANCH  10  12
HETATM   12  C   UNL     1      43.269 -15.892   2.401  1.00  0.00     0.126 C 
BRANCH  12  13
HETATM   13  C   UNL     1      42.981 -17.286   1.830  1.00  0.00     0.058 C 
BRANCH  13  14
HETATM   14  C   UNL     1      43.358 -18.353   2.828  1.00  0.00    -0.057 A 
HETATM   15  C   UNL     1      43.719 -17.997   4.137  1.00  0.00     0.010 A 
HETATM   16  C   UNL     1      44.119 -18.976   5.048  1.00  0.00     0.043 A 
HETATM   17  C   UNL     1      44.161 -20.307   4.651  1.00  0.00     0.116 A 
HETATM   18  F   UNL     1      44.557 -21.243   5.522  1.00  0.00    -0.206 F 
HETATM   19  C   UNL     1      43.803 -20.679   3.361  1.00  0.00     0.043 A 
HETATM   20  C   UNL     1      43.400 -19.704   2.447  1.00  0.00     0.010 A 
ENDBRANCH  13  14
ENDBRANCH  12  13
ENDBRANCH  10  12
ENDBRANCH   4  10
BRANCH   3  21
HETATM   21  C   UNL     1      40.008 -13.119   2.861  1.00  0.00     0.253 C 
HETATM   22  N   UNL     1      38.802 -13.702   2.595  1.00  0.00    -0.366 N 
HETATM   23  H   UNL     1      38.546 -14.614   2.950  1.00  0.00     0.159 HD
HETATM   24  H   UNL     1      38.388 -13.447   1.701  1.00  0.00     0.159 HD
HETATM   25  O   UNL     1      40.492 -12.243   2.163  1.00  0.00    -0.268 OA
ENDBRANCH   3  21
TORSDOF 5
ENDMDL
MODEL 3
REMARK VINA RESULT:      -7.4      1.860      3.227
REMARK  5 active torsions:
REMARK  status: ('A' for Active; 'I' for Inactive)
REMARK    1  A    between atoms: C_3  and  C_4 
REMARK       I    between atoms: C_4  and  N_5 
REMARK    2  A    between atoms: C_7  and  N_8 
REMARK    3  A    between atoms: N_8  and  C_9 
REMARK    4  A    between atoms: C_9  and  C_10 
REMARK    5  A    between atoms: C_10  and  C_11 
ROOT
HETATM    1  C   UNL     1      42.646 -11.760   3.425  1.00  0.00     0.049 C 
HETATM    2  C   UNL     1      42.001 -13.086   3.723  1.00  0.00    -0.041 A 
HETATM    3  C   UNL     1      42.161 -13.733   4.959  1.00  0.00     0.081 A 
HETATM    4  C   UNL     1      41.581 -14.998   5.203  1.00  0.00     0.117 A 
HETATM    5  N   UNL     1      40.913 -15.570   4.184  1.00  0.00    -0.346 N 
HETATM    6  H   UNL     1      40.549 -16.506   4.329  1.00  0.00     0.167 HD
HETATM    7  C   UNL     1      40.730 -15.000   2.979  1.00  0.00     0.007 A 
HETATM    8  C   UNL     1      39.970 -15.752   1.933  1.00  0.00     0.068 C 
HETATM    9  C   UNL     1      41.272 -13.740   2.729  1.00  0.00     0.032 A 
ENDROOT
BRANCH   4  10
HETATM   10  N   UNL     1      41.777 -15.702   6.385  1.00  0.00    -0.375 N 
HETATM   11  H   UNL     1      40.953 -15.683   6.995  1.00  0.00     0.161 HD
BRANCH  10  12
HETATM   12  C   UNL     1      42.515 -16.960   6.446  1.00  0.00     0.126 C 
BRANCH  12  13
HETATM   13  C   UNL     1      43.795 -16.890   5.604  1.00  0.00     0.058 C 
BRANCH  13  14
HETATM   14  C   UNL     1      43.761 -17.924   4.506  1.00  0.00    -0.057 A 
HETATM   15  C   UNL     1      43.367 -17.561   3.209  1.00  0.00     0.010 A 
HETATM   16  C   UNL     1      43.284 -18.525   2.202  1.00  0.00     0.043 A 
HETATM   17  C   UNL     1      43.591 -19.849   2.493  1.00  0.00     0.116 A 
HETATM   18  F   UNL     1      43.498 -20.774   1.530  1.00  0.00    -0.206 F 
HETATM   19  C   UNL     1      43.987 -20.226   3.770  1.00  0.00     0.043 A 
HETATM   20  C   UNL     1      44.074 -19.265   4.779  1.00  0.00     0.010 A 
ENDBRANCH  13  14
ENDBRANCH  12  13
ENDBRANCH  10  12
ENDBRANCH   4  10
BRANCH   3  21
HETATM   21  C   UNL     1      43.006 -13.126   5.997  1.00  0.00     0.253 C 
HETATM   22  N   UNL     1      42.422 -12.162   6.769  1.00  0.00    -0.366 N 
HETATM   23  H   UNL     1      41.603 -11.647   6.473  1.00  0.00     0.159 HD
HETATM   24  H   UNL     1      43.058 -11.661   7.385  1.00  0.00     0.159 HD
HETATM   25  O   UNL     1      44.167 -13.475   6.133  1.00  0.00    -0.268 OA
ENDBRANCH   3  21
TORSDOF 5
ENDMDL
MODEL 4
REMARK VINA RESULT:      -7.3      4.931      6.385
REMARK  5 active torsions:
REMARK  status: ('A' for Active; 'I' for Inactive)
REMARK    1  A    between atoms: C_3  and  C_4 
REMARK       I    between atoms: C_4  and  N_5 
REMARK    2  A    between atoms: C_7  and  N_8 
REMARK    3  A    between atoms: N_8  and  C_9 
REMARK    4  A    between atoms: C_9  and  C_10 
REMARK    5  A    between atoms: C_10  and  C_11 
ROOT
HETATM    1  C   UNL     1      37.620 -12.038  -2.554  1.00  0.00     0.049 C 
HETATM    2  C   UNL     1      38.338 -12.356  -1.271  1.00  0.00    -0.041 A 
HETATM    3  C   UNL     1      39.248 -13.421  -1.168  1.00  0.00     0.081 A 
HETATM    4  C   UNL     1      39.878 -13.728   0.058  1.00  0.00     0.117 A 
HETATM    5  N   UNL     1      39.532 -12.986   1.126  1.00  0.00    -0.346 N 
HETATM    6  H   UNL     1      39.930 -13.241   2.023  1.00  0.00     0.167 HD
HETATM    7  C   UNL     1      38.667 -11.956   1.088  1.00  0.00     0.007 A 
HETATM    8  C   UNL     1      38.367 -11.219   2.354  1.00  0.00     0.068 C 
HETATM    9  C   UNL     1      38.054 -11.621  -0.119  1.00  0.00     0.032 A 
ENDROOT
BRANCH   4  10
HETATM   10  N   UNL     1      40.726 -14.818   0.218  1.00  0.00    -0.375 N 
HETATM   11  H   UNL     1      41.445 -14.867  -0.511  1.00  0.00     0.161 HD
BRANCH  10  12
HETATM   12  C   UNL     1      41.191 -15.276   1.523  1.00  0.00     0.126 C 
BRANCH  12  13
HETATM   13  C   UNL     1      42.713 -15.469   1.530  1.00  0.00     0.058 C 
BRANCH  13  14
HETATM   14  C   UNL     1      43.105 -16.523   2.537  1.00  0.00    -0.057 A 
HETATM   15  C   UNL     1      43.364 -16.163   3.868  1.00  0.00     0.010 A 
HETATM   16  C   UNL     1      43.779 -17.126   4.790  1.00  0.00     0.043 A 
HETATM   17  C   UNL     1      43.937 -18.444   4.381  1.00  0.00     0.116 A 
HETATM   18  F   UNL     1      44.347 -19.364   5.263  1.00  0.00    -0.206 F 
HETATM   19  C   UNL     1      43.681 -18.820   3.068  1.00  0.00     0.043 A 
HETATM   20  C   UNL     1      43.264 -17.862   2.144  1.00  0.00     0.010 A 
ENDBRANCH  13  14
ENDBRANCH  12  13
ENDBRANCH  10  12
ENDBRANCH   4  10
BRANCH   3  21
HETATM   21  C   UNL     1      39.496 -14.283  -2.332  1.00  0.00     0.253 C 
HETATM   22  N   UNL     1      38.625 -15.319  -2.518  1.00  0.00    -0.366 N 
HETATM   23  H   UNL     1      38.057 -15.696  -1.770  1.00  0.00     0.159 HD
HETATM   24  H   UNL     1      38.893 -15.981  -3.244  1.00  0.00     0.159 HD
HETATM   25  O   UNL     1      40.443 -14.070  -3.071  1.00  0.00    -0.268 OA
ENDBRANCH   3  21
TORSDOF 5
ENDMDL
MODEL 5
REMARK VINA RESULT:      -7.3      3.718      5.279
REMARK  5 active torsions:
REMARK  status: ('A' for Active; 'I' for Inactive)
REMARK    1  A    between atoms: C_3  and  C_4 
REMARK       I    between atoms: C_4  and  N_5 
REMARK    2  A    between atoms: C_7  and  N_8 
REMARK    3  A    between atoms: N_8  and  C_9 
REMARK    4  A    between atoms: C_9  and  C_10 
REMARK    5  A    between atoms: C_10  and  C_11 
ROOT
HETATM    1  C   UNL     1      38.201 -11.176   1.035  1.00  0.00     0.049 C 
HETATM    2  C   UNL     1      39.128 -12.272   0.586  1.00  0.00    -0.041 A 
HETATM    3  C   UNL     1      39.999 -12.925   1.474  1.00  0.00     0.081 A 
HETATM    4  C   UNL     1      40.891 -13.922   1.022  1.00  0.00     0.117 A 
HETATM    5  N   UNL     1      40.901 -14.181  -0.298  1.00  0.00    -0.346 N 
HETATM    6  H   UNL     1      41.584 -14.848  -0.640  1.00  0.00     0.167 HD
HETATM    7  C   UNL     1      40.094 -13.587  -1.196  1.00  0.00     0.007 A 
HETATM    8  C   UNL     1      40.214 -13.965  -2.637  1.00  0.00     0.068 C 
HETATM    9  C   UNL     1      39.187 -12.619  -0.765  1.00  0.00     0.032 A 
ENDROOT
BRANCH   4  10
HETATM   10  N   UNL     1      41.818 -14.538   1.856  1.00  0.00    -0.375 N 
HETATM   11  H   UNL     1      42.087 -13.948   2.650  1.00  0.00     0.161 HD
BRANCH  10  12
HETATM   12  C   UNL     1      41.771 -15.960   2.179  1.00  0.00     0.126 C 
BRANCH  12  13
HETATM   13  C   UNL     1      43.060 -16.669   1.745  1.00  0.00     0.058 C 
BRANCH  13  14
HETATM   14  C   UNL     1      43.394 -17.787   2.700  1.00  0.00    -0.057 A 
HETATM   15  C   UNL     1      43.773 -17.497   4.020  1.00  0.00     0.010 A 
HETATM   16  C   UNL     1      44.134 -18.526   4.892  1.00  0.00     0.043 A 
HETATM   17  C   UNL     1      44.120 -19.841   4.445  1.00  0.00     0.116 A 
HETATM   18  F   UNL     1      44.478 -20.825   5.278  1.00  0.00    -0.206 F 
HETATM   19  C   UNL     1      43.743 -20.148   3.143  1.00  0.00     0.043 A 
HETATM   20  C   UNL     1      43.379 -19.124   2.269  1.00  0.00     0.010 A 
ENDBRANCH  13  14
ENDBRANCH  12  13
ENDBRANCH  10  12
ENDBRANCH   4  10
BRANCH   3  21
HETATM   21  C   UNL     1      40.041 -12.518   2.886  1.00  0.00     0.253 C 
HETATM   22  N   UNL     1      39.164 -13.143   3.725  1.00  0.00    -0.366 N 
HETATM   23  H   UNL     1      38.322 -13.598   3.396  1.00  0.00     0.159 HD
HETATM   24  H   UNL     1      39.114 -12.753   4.664  1.00  0.00     0.159 HD
HETATM   25  O   UNL     1      40.821 -11.658   3.259  1.00  0.00    -0.268 OA
ENDBRANCH   3  21
TORSDOF 5
ENDMDL
MODEL 6
REMARK VINA RESULT:      -7.2      2.430      3.718
REMARK  5 active torsions:
REMARK  status: ('A' for Active; 'I' for Inactive)
REMARK    1  A    between atoms: C_3  and  C_4 
REMARK       I    between atoms: C_4  and  N_5 
REMARK    2  A    between atoms: C_7  and  N_8 
REMARK    3  A    between atoms: N_8  and  C_9 
REMARK    4  A    between atoms: C_9  and  C_10 
REMARK    5  A    between atoms: C_10  and  C_11 
ROOT
HETATM    1  C   UNL     1      39.297 -11.937   5.816  1.00  0.00     0.049 C 
HETATM    2  C   UNL     1      39.640 -12.694   4.562  1.00  0.00    -0.041 A 
HETATM    3  C   UNL     1      40.343 -13.909   4.591  1.00  0.00     0.081 A 
HETATM    4  C   UNL     1      40.692 -14.580   3.399  1.00  0.00     0.117 A 
HETATM    5  N   UNL     1      40.362 -13.980   2.240  1.00  0.00    -0.346 N 
HETATM    6  H   UNL     1      40.666 -14.423   1.380  1.00  0.00     0.167 HD
HETATM    7  C   UNL     1      39.692 -12.817   2.150  1.00  0.00     0.007 A 
HETATM    8  C   UNL     1      39.396 -12.257   0.795  1.00  0.00     0.068 C 
HETATM    9  C   UNL     1      39.316 -12.152   3.317  1.00  0.00     0.032 A 
ENDROOT
BRANCH   4  10
HETATM   10  N   UNL     1      41.450 -15.746   3.384  1.00  0.00    -0.375 N 
HETATM   11  H   UNL     1      41.317 -16.313   4.227  1.00  0.00     0.161 HD
BRANCH  10  12
HETATM   12  C   UNL     1      41.659 -16.540   2.178  1.00  0.00     0.126 C 
BRANCH  12  13
HETATM   13  C   UNL     1      43.140 -16.895   1.999  1.00  0.00     0.058 C 
BRANCH  13  14
HETATM   14  C   UNL     1      43.491 -18.117   2.812  1.00  0.00    -0.057 A 
HETATM   15  C   UNL     1      43.333 -19.398   2.261  1.00  0.00     0.010 A 
HETATM   16  C   UNL     1      43.606 -20.533   3.026  1.00  0.00     0.043 A 
HETATM   17  C   UNL     1      44.033 -20.388   4.340  1.00  0.00     0.116 A 
HETATM   18  F   UNL     1      44.283 -21.477   5.077  1.00  0.00    -0.206 F 
HETATM   19  C   UNL     1      44.200 -19.128   4.901  1.00  0.00     0.043 A 
HETATM   20  C   UNL     1      43.930 -17.991   4.139  1.00  0.00     0.010 A 
ENDBRANCH  13  14
ENDBRANCH  12  13
ENDBRANCH  10  12
ENDBRANCH   4  10
BRANCH   3  21
HETATM   21  C   UNL     1      40.793 -14.461   5.877  1.00  0.00     0.253 C 
HETATM   22  N   UNL     1      39.921 -15.293   6.520  1.00  0.00    -0.366 N 
HETATM   23  H   UNL     1      38.925 -15.288   6.336  1.00  0.00     0.159 HD
HETATM   24  H   UNL     1      40.192 -15.552   7.466  1.00  0.00     0.159 HD
HETATM   25  O   UNL     1      41.887 -14.167   6.328  1.00  0.00    -0.268 OA
ENDBRANCH   3  21
TORSDOF 5
ENDMDL
MODEL 7
REMARK VINA RESULT:      -7.1      2.012      3.133
REMARK  5 active torsions:
REMARK  status: ('A' for Active; 'I' for Inactive)
REMARK    1  A    between atoms: C_3  and  C_4 
REMARK       I    between atoms: C_4  and  N_5 
REMARK    2  A    between atoms: C_7  and  N_8 
REMARK    3  A    between atoms: N_8  and  C_9 
REMARK    4  A    between atoms: C_9  and  C_10 
REMARK    5  A    between atoms: C_10  and  C_11 
ROOT
HETATM    1  C   UNL     1      44.177 -11.574   5.428  1.00  0.00     0.049 C 
HETATM    2  C   UNL     1      43.473 -12.894   5.594  1.00  0.00    -0.041 A 
HETATM    3  C   UNL     1      42.555 -13.376   4.647  1.00  0.00     0.081 A 
HETATM    4  C   UNL     1      41.874 -14.597   4.844  1.00  0.00     0.117 A 
HETATM    5  N   UNL     1      42.110 -15.249   5.998  1.00  0.00    -0.346 N 
HETATM    6  H   UNL     1      41.577 -16.093   6.177  1.00  0.00     0.167 HD
HETATM    7  C   UNL     1      42.975 -14.836   6.942  1.00  0.00     0.007 A 
HETATM    8  C   UNL     1      43.136 -15.656   8.182  1.00  0.00     0.068 C 
HETATM    9  C   UNL     1      43.677 -13.646   6.753  1.00  0.00     0.032 A 
ENDROOT
BRANCH   4  10
HETATM   10  N   UNL     1      40.905 -15.071   3.967  1.00  0.00    -0.375 N 
HETATM   11  H   UNL     1      40.395 -14.315   3.499  1.00  0.00     0.161 HD
BRANCH  10  12
HETATM   12  C   UNL     1      41.105 -16.244   3.123  1.00  0.00     0.126 C 
BRANCH  12  13
HETATM   13  C   UNL     1      42.571 -16.369   2.690  1.00  0.00     0.058 C 
BRANCH  13  14
HETATM   14  C   UNL     1      43.087 -17.759   2.973  1.00  0.00    -0.057 A 
HETATM   15  C   UNL     1      42.875 -18.791   2.046  1.00  0.00     0.010 A 
HETATM   16  C   UNL     1      43.304 -20.090   2.327  1.00  0.00     0.043 A 
HETATM   17  C   UNL     1      43.941 -20.356   3.533  1.00  0.00     0.116 A 
HETATM   18  F   UNL     1      44.340 -21.604   3.806  1.00  0.00    -0.206 F 
HETATM   19  C   UNL     1      44.164 -19.346   4.461  1.00  0.00     0.043 A 
HETATM   20  C   UNL     1      43.739 -18.046   4.183  1.00  0.00     0.010 A 
ENDBRANCH  13  14
ENDBRANCH  12  13
ENDBRANCH  10  12
ENDBRANCH   4  10
BRANCH   3  21
HETATM   21  C   UNL     1      42.235 -12.565   3.463  1.00  0.00     0.253 C 
HETATM   22  N   UNL     1      43.005 -12.777   2.355  1.00  0.00    -0.366 N 
HETATM   23  H   UNL     1      43.928 -13.191   2.402  1.00  0.00     0.159 HD
HETATM   24  H   UNL     1      42.860 -12.115   1.597  1.00  0.00     0.159 HD
HETATM   25  O   UNL     1      41.331 -11.747   3.498  1.00  0.00    -0.268 OA
ENDBRANCH   3  21
TORSDOF 5
ENDMDL
MODEL 8
REMARK VINA RESULT:      -6.9      3.431      4.710
REMARK  5 active torsions:
REMARK  status: ('A' for Active; 'I' for Inactive)
REMARK    1  A    between atoms: C_3  and  C_4 
REMARK       I    between atoms: C_4  and  N_5 
REMARK    2  A    between atoms: C_7  and  N_8 
REMARK    3  A    between atoms: N_8  and  C_9 
REMARK    4  A    between atoms: C_9  and  C_10 
REMARK    5  A    between atoms: C_10  and  C_11 
ROOT
HETATM    1  C   UNL     1      39.874 -10.266   1.110  1.00  0.00     0.049 C 
HETATM    2  C   UNL     1      39.775 -11.416   2.075  1.00  0.00    -0.041 A 
HETATM    3  C   UNL     1      39.697 -12.750   1.642  1.00  0.00     0.081 A 
HETATM    4  C   UNL     1      39.561 -13.811   2.565  1.00  0.00     0.117 A 
HETATM    5  N   UNL     1      39.463 -13.480   3.866  1.00  0.00    -0.346 N 
HETATM    6  H   UNL     1      39.300 -14.230   4.529  1.00  0.00     0.167 HD
HETATM    7  C   UNL     1      39.529 -12.223   4.338  1.00  0.00     0.007 A 
HETATM    8  C   UNL     1      39.399 -11.997   5.811  1.00  0.00     0.068 C 
HETATM    9  C   UNL     1      39.690 -11.164   3.445  1.00  0.00     0.032 A 
ENDROOT
BRANCH   4  10
HETATM   10  N   UNL     1      39.406 -15.136   2.173  1.00  0.00    -0.375 N 
HETATM   11  H   UNL     1      38.628 -15.264   1.519  1.00  0.00     0.161 HD
BRANCH  10  12
HETATM   12  C   UNL     1      40.536 -16.022   1.912  1.00  0.00     0.126 C 
BRANCH  12  13
HETATM   13  C   UNL     1      41.836 -15.440   2.480  1.00  0.00     0.058 C 
BRANCH  13  14
HETATM   14  C   UNL     1      42.698 -16.538   3.054  1.00  0.00    -0.057 A 
HETATM   15  C   UNL     1      42.900 -17.725   2.332  1.00  0.00     0.010 A 
HETATM   16  C   UNL     1      43.654 -18.764   2.882  1.00  0.00     0.043 A 
HETATM   17  C   UNL     1      44.200 -18.618   4.150  1.00  0.00     0.116 A 
HETATM   18  F   UNL     1      44.912 -19.620   4.681  1.00  0.00    -0.206 F 
HETATM   19  C   UNL     1      44.015 -17.449   4.878  1.00  0.00     0.043 A 
HETATM   20  C   UNL     1      43.265 -16.407   4.332  1.00  0.00     0.010 A 
ENDBRANCH  13  14
ENDBRANCH  12  13
ENDBRANCH  10  12
ENDBRANCH   4  10
BRANCH   3  21
HETATM   21  C   UNL     1      39.679 -13.051   0.204  1.00  0.00     0.253 C 
HETATM   22  N   UNL     1      38.470 -12.952  -0.423  1.00  0.00    -0.366 N 
HETATM   23  H   UNL     1      37.590 -13.003   0.076  1.00  0.00     0.159 HD
HETATM   24  H   UNL     1      38.452 -13.295  -1.381  1.00  0.00     0.159 HD
HETATM   25  O   UNL     1      40.703 -13.378  -0.374  1.00  0.00    -0.268 OA
ENDBRANCH   3  21
TORSDOF 5
ENDMDL
MODEL 9
REMARK VINA RESULT:      -6.9     14.852     16.831
REMARK  5 active torsions:
REMARK  status: ('A' for Active; 'I' for Inactive)
REMARK    1  A    between atoms: C_3  and  C_4 
REMARK       I    between atoms: C_4  and  N_5 
REMARK    2  A    between atoms: C_7  and  N_8 
REMARK    3  A    between atoms: N_8  and  C_9 
REMARK    4  A    between atoms: C_9  and  C_10 
REMARK    5  A    between atoms: C_10  and  C_11 
ROOT
HETATM    1  C   UNL     1      51.913 -32.326  -0.022  1.00  0.00     0.049 C 
HETATM    2  C   UNL     1      50.869 -31.321   0.381  1.00  0.00    -0.041 A 
HETATM    3  C   UNL     1      50.054 -30.672  -0.561  1.00  0.00     0.081 A 
HETATM    4  C   UNL     1      49.110 -29.700  -0.163  1.00  0.00     0.117 A 
HETATM    5  N   UNL     1      49.061 -29.394   1.147  1.00  0.00    -0.346 N 
HETATM    6  H   UNL     1      48.432 -28.652   1.432  1.00  0.00     0.167 HD
HETATM    7  C   UNL     1      49.817 -29.981   2.093  1.00  0.00     0.007 A 
HETATM    8  C   UNL     1      49.665 -29.540   3.514  1.00  0.00     0.068 C 
HETATM    9  C   UNL     1      50.737 -30.961   1.723  1.00  0.00     0.032 A 
ENDROOT
BRANCH   4  10
HETATM   10  N   UNL     1      48.338 -28.983  -1.070  1.00  0.00    -0.375 N 
HETATM   11  H   UNL     1      47.884 -29.586  -1.763  1.00  0.00     0.161 HD
BRANCH  10  12
HETATM   12  C   UNL     1      47.531 -27.829  -0.687  1.00  0.00     0.126 C 
BRANCH  12  13
HETATM   13  C   UNL     1      46.082 -28.241  -0.397  1.00  0.00     0.058 C 
BRANCH  13  14
HETATM   14  C   UNL     1      45.387 -28.657  -1.670  1.00  0.00    -0.057 A 
HETATM   15  C   UNL     1      44.598 -29.817  -1.695  1.00  0.00     0.010 A 
HETATM   16  C   UNL     1      43.996 -30.234  -2.884  1.00  0.00     0.043 A 
HETATM   17  C   UNL     1      44.185 -29.494  -4.045  1.00  0.00     0.116 A 
HETATM   18  F   UNL     1      43.618 -29.902  -5.187  1.00  0.00    -0.206 F 
HETATM   19  C   UNL     1      44.959 -28.340  -4.038  1.00  0.00     0.043 A 
HETATM   20  C   UNL     1      45.561 -27.919  -2.852  1.00  0.00     0.010 A 
ENDBRANCH  13  14
ENDBRANCH  12  13
ENDBRANCH  10  12
ENDBRANCH   4  10
BRANCH   3  21
HETATM   21  C   UNL     1      50.233 -30.946  -1.993  1.00  0.00     0.253 C 
HETATM   22  N   UNL     1      51.304 -30.351  -2.597  1.00  0.00    -0.366 N 
HETATM   23  H   UNL     1      51.757 -29.528  -2.219  1.00  0.00     0.159 HD
HETATM   24  H   UNL     1      51.332 -30.441  -3.610  1.00  0.00     0.159 HD
HETATM   25  O   UNL     1      49.448 -31.663  -2.590  1.00  0.00    -0.268 OA
ENDBRANCH   3  21
TORSDOF 5
ENDMDL
MODEL 10
REMARK VINA RESULT:      -6.7      4.116      7.151
REMARK  5 active torsions:
REMARK  status: ('A' for Active; 'I' for Inactive)
REMARK    1  A    between atoms: C_3  and  C_4 
REMARK       I    between atoms: C_4  and  N_5 
REMARK    2  A    between atoms: C_7  and  N_8 
REMARK    3  A    between atoms: N_8  and  C_9 
REMARK    4  A    between atoms: C_9  and  C_10 
REMARK    5  A    between atoms: C_10  and  C_11 
ROOT
HETATM    1  C   UNL     1      40.037 -16.045   1.508  1.00  0.00     0.049 C 
HETATM    2  C   UNL     1      41.086 -15.864   2.571  1.00  0.00    -0.041 A 
HETATM    3  C   UNL     1      41.282 -14.637   3.225  1.00  0.00     0.081 A 
HETATM    4  C   UNL     1      42.302 -14.478   4.189  1.00  0.00     0.117 A 
HETATM    5  N   UNL     1      43.099 -15.537   4.417  1.00  0.00    -0.346 N 
HETATM    6  H   UNL     1      43.874 -15.412   5.059  1.00  0.00     0.167 HD
HETATM    7  C   UNL     1      42.961 -16.735   3.820  1.00  0.00     0.007 A 
HETATM    8  C   UNL     1      43.924 -17.827   4.161  1.00  0.00     0.068 C 
HETATM    9  C   UNL     1      41.944 -16.920   2.884  1.00  0.00     0.032 A 
ENDROOT
BRANCH   4  10
HETATM   10  N   UNL     1      42.575 -13.261   4.804  1.00  0.00    -0.375 N 
HETATM   11  H   UNL     1      42.015 -12.492   4.421  1.00  0.00     0.161 HD
BRANCH  10  12
HETATM   12  C   UNL     1      42.832 -13.135   6.235  1.00  0.00     0.126 C 
BRANCH  12  13
HETATM   13  C   UNL     1      44.321 -12.891   6.509  1.00  0.00     0.058 C 
BRANCH  13  14
HETATM   14  C   UNL     1      44.532 -11.511   7.082  1.00  0.00    -0.057 A 
HETATM   15  C   UNL     1      45.833 -11.036   7.313  1.00  0.00     0.010 A 
HETATM   16  C   UNL     1      46.032  -9.781   7.891  1.00  0.00     0.043 A 
HETATM   17  C   UNL     1      44.935  -9.005   8.241  1.00  0.00     0.116 A 
HETATM   18  F   UNL     1      45.127  -7.807   8.807  1.00  0.00    -0.206 F 
HETATM   19  C   UNL     1      43.640  -9.456   8.015  1.00  0.00     0.043 A 
HETATM   20  C   UNL     1      43.436 -10.709   7.435  1.00  0.00     0.010 A 
ENDBRANCH  13  14
ENDBRANCH  12  13
ENDBRANCH  10  12
ENDBRANCH   4  10
BRANCH   3  21
HETATM   21  C   UNL     1      40.468 -13.472   2.850  1.00  0.00     0.253 C 
HETATM   22  N   UNL     1      39.225 -13.394   3.410  1.00  0.00    -0.366 N 
HETATM   23  H   UNL     1      38.741 -14.202   3.781  1.00  0.00     0.159 HD
HETATM   24  H   UNL     1      38.629 -12.660   3.035  1.00  0.00     0.159 HD
HETATM   25  O   UNL     1      40.900 -12.639   2.071  1.00  0.00    -0.268 OA
ENDBRANCH   3  21
TORSDOF 5
ENDMDL
