MODEL 1
REMARK VINA RESULT:      -8.9      0.000      0.000
REMARK  3 active torsions:
REMARK  status: ('A' for Active; 'I' for Inactive)
REMARK    1  A    between atoms: C_6  and  N_7 
REMARK       I    between atoms: N_7  and  C_8 
REMARK    2  A    between atoms: C_8  and  C_9 
REMARK    3  A    between atoms: C_20  and  O_21 
ROOT
HETATM    1  C   UNL     1      43.685 -11.751   6.421  1.00  0.00     0.153 A 
HETATM    2  N   UNL     1      43.281 -10.992   5.374  1.00  0.00    -0.168 NA
HETATM    3  N   UNL     1      42.992 -11.889   4.406  1.00  0.00    -0.276 N 
HETATM    4  H   UNL     1      42.657 -11.544   3.513  1.00  0.00     0.189 HD
HETATM    5  C   UNL     1      43.187 -13.181   4.785  1.00  0.00     0.069 A 
HETATM    6  C   UNL     1      43.625 -13.127   6.089  1.00  0.00     0.007 A 
HETATM    7  C   UNL     1      43.967 -14.361   6.847  1.00  0.00     0.048 C 
HETATM    8  C   UNL     1      43.187 -15.579   6.298  1.00  0.00     0.044 C 
HETATM    9  C   UNL     1      43.042 -15.613   4.780  1.00  0.00    -0.043 A 
HETATM   10  C   UNL     1      42.989 -14.410   4.038  1.00  0.00    -0.001 A 
HETATM   11  C   UNL     1      42.871 -16.836   4.120  1.00  0.00     0.044 A 
HETATM   12  C   UNL     1      42.679 -16.880   2.736  1.00  0.00     0.068 A 
HETATM   13  C   UNL     1      42.635 -15.688   2.010  1.00  0.00     0.037 A 
HETATM   14  C   UNL     1      42.786 -14.455   2.657  1.00  0.00     0.017 A 
ENDROOT
BRANCH   1  15
HETATM   15  C   UNL     1      44.117 -11.145   7.696  1.00  0.00     0.277 C 
HETATM   16  N   UNL     1      43.103 -10.414   8.286  1.00  0.00    -0.322 N 
HETATM   17  H   UNL     1      42.242 -10.418   7.744  1.00  0.00     0.169 HD
HETATM   18  O   UNL     1      45.251 -11.303   8.136  1.00  0.00    -0.266 OA
BRANCH  16  19
HETATM   19  C   UNL     1      43.129  -9.706   9.499  1.00  0.00     0.037 A 
HETATM   20  C   UNL     1      43.006  -8.321   9.594  1.00  0.00     0.072 A 
HETATM   21  C   UNL     1      43.050  -7.703  10.843  1.00  0.00     0.124 A 
HETATM   22  C   UNL     1      43.225  -8.437  12.018  1.00  0.00    -0.023 A 
HETATM   23  F   UNL     1      42.920  -6.370  10.907  1.00  0.00    -0.205 F 
HETATM   24  C   UNL     1      43.238  -7.744  13.346  1.00  0.00     0.051 C 
HETATM   25  C   UNL     1      43.331  -9.827  11.924  1.00  0.00     0.012 A 
HETATM   26  C   UNL     1      43.289 -10.454  10.674  1.00  0.00     0.030 A 
ENDBRANCH  16  19
ENDBRANCH   1  15
BRANCH  12  27
HETATM   27  O   UNL     1      42.543 -18.140   2.222  1.00  0.00    -0.356 OA
HETATM   28  C   UNL     1      43.544 -19.090   2.567  1.00  0.00     0.210 C 
ENDBRANCH  12  27
TORSDOF 3
ENDMDL
MODEL 2
REMARK VINA RESULT:      -8.8      3.387      9.247
REMARK  3 active torsions:
REMARK  status: ('A' for Active; 'I' for Inactive)
REMARK    1  A    between atoms: C_6  and  N_7 
REMARK       I    between atoms: N_7  and  C_8 
REMARK    2  A    between atoms: C_8  and  C_9 
REMARK    3  A    between atoms: C_20  and  O_21 
ROOT
HETATM    1  C   UNL     1      42.581 -12.600   4.637  1.00  0.00     0.153 A 
HETATM    2  N   UNL     1      41.492 -11.846   4.356  1.00  0.00    -0.168 NA
HETATM    3  N   UNL     1      41.441 -10.946   5.363  1.00  0.00    -0.276 N 
HETATM    4  H   UNL     1      40.696 -10.260   5.359  1.00  0.00     0.189 HD
HETATM    5  C   UNL     1      42.446 -11.088   6.269  1.00  0.00     0.069 A 
HETATM    6  C   UNL     1      43.209 -12.144   5.822  1.00  0.00     0.007 A 
HETATM    7  C   UNL     1      44.403 -12.615   6.575  1.00  0.00     0.048 C 
HETATM    8  C   UNL     1      45.010 -11.469   7.419  1.00  0.00     0.044 C 
HETATM    9  C   UNL     1      43.987 -10.551   8.079  1.00  0.00    -0.043 A 
HETATM   10  C   UNL     1      42.730 -10.324   7.471  1.00  0.00    -0.001 A 
HETATM   11  C   UNL     1      44.321  -9.855   9.248  1.00  0.00     0.044 A 
HETATM   12  C   UNL     1      43.416  -8.966   9.833  1.00  0.00     0.068 A 
HETATM   13  C   UNL     1      42.174  -8.753   9.230  1.00  0.00     0.037 A 
HETATM   14  C   UNL     1      41.832  -9.426   8.051  1.00  0.00     0.017 A 
ENDROOT
BRANCH   1  15
HETATM   15  C   UNL     1      42.985 -13.730   3.776  1.00  0.00     0.277 C 
HETATM   16  N   UNL     1      42.762 -14.948   4.390  1.00  0.00    -0.322 N 
HETATM   17  H   UNL     1      42.363 -14.857   5.323  1.00  0.00     0.169 HD
HETATM   18  O   UNL     1      43.455 -13.554   2.658  1.00  0.00    -0.266 OA
BRANCH  16  19
HETATM   19  C   UNL     1      43.007 -16.236   3.888  1.00  0.00     0.037 A 
HETATM   20  C   UNL     1      43.871 -17.153   4.486  1.00  0.00     0.072 A 
HETATM   21  C   UNL     1      44.058 -18.409   3.911  1.00  0.00     0.124 A 
HETATM   22  C   UNL     1      43.405 -18.782   2.735  1.00  0.00    -0.023 A 
HETATM   23  F   UNL     1      44.888 -19.275   4.511  1.00  0.00    -0.205 F 
HETATM   24  C   UNL     1      43.606 -20.150   2.160  1.00  0.00     0.051 C 
HETATM   25  C   UNL     1      42.526 -17.869   2.145  1.00  0.00     0.012 A 
HETATM   26  C   UNL     1      42.334 -16.606   2.716  1.00  0.00     0.030 A 
ENDBRANCH  16  19
ENDBRANCH   1  15
BRANCH  12  27
HETATM   27  O   UNL     1      43.866  -8.370  10.978  1.00  0.00    -0.356 OA
HETATM   28  C   UNL     1      43.111  -8.594  12.162  1.00  0.00     0.210 C 
ENDBRANCH  12  27
TORSDOF 3
ENDMDL
MODEL 3
REMARK VINA RESULT:      -8.4      7.310      9.884
REMARK  3 active torsions:
REMARK  status: ('A' for Active; 'I' for Inactive)
REMARK    1  A    between atoms: C_6  and  N_7 
REMARK       I    between atoms: N_7  and  C_8 
REMARK    2  A    between atoms: C_8  and  C_9 
REMARK    3  A    between atoms: C_20  and  O_21 
ROOT
HETATM    1  C   UNL     1      41.297 -14.117   1.477  1.00  0.00     0.153 A 
HETATM    2  N   UNL     1      41.928 -13.051   2.027  1.00  0.00    -0.168 NA
HETATM    3  N   UNL     1      41.670 -12.037   1.173  1.00  0.00    -0.276 N 
HETATM    4  H   UNL     1      42.044 -11.119   1.388  1.00  0.00     0.189 HD
HETATM    5  C   UNL     1      40.904 -12.401   0.109  1.00  0.00     0.069 A 
HETATM    6  C   UNL     1      40.636 -13.741   0.282  1.00  0.00     0.007 A 
HETATM    7  C   UNL     1      39.829 -14.507  -0.706  1.00  0.00     0.048 C 
HETATM    8  C   UNL     1      38.861 -13.573  -1.470  1.00  0.00     0.044 C 
HETATM    9  C   UNL     1      39.440 -12.209  -1.829  1.00  0.00    -0.043 A 
HETATM   10  C   UNL     1      40.421 -11.607  -1.006  1.00  0.00    -0.001 A 
HETATM   11  C   UNL     1      38.939 -11.503  -2.929  1.00  0.00     0.044 A 
HETATM   12  C   UNL     1      39.419 -10.226  -3.238  1.00  0.00     0.068 A 
HETATM   13  C   UNL     1      40.392  -9.643  -2.424  1.00  0.00     0.037 A 
HETATM   14  C   UNL     1      40.891 -10.328  -1.309  1.00  0.00     0.017 A 
ENDROOT
BRANCH   1  15
HETATM   15  C   UNL     1      41.349 -15.454   2.102  1.00  0.00     0.277 C 
HETATM   16  N   UNL     1      42.647 -15.849   2.363  1.00  0.00    -0.322 N 
HETATM   17  H   UNL     1      43.338 -15.157   2.080  1.00  0.00     0.169 HD
HETATM   18  O   UNL     1      40.331 -16.096   2.340  1.00  0.00    -0.266 OA
BRANCH  16  19
HETATM   19  C   UNL     1      43.095 -17.042   2.954  1.00  0.00     0.037 A 
HETATM   20  C   UNL     1      43.222 -18.249   2.269  1.00  0.00     0.072 A 
HETATM   21  C   UNL     1      43.670 -19.386   2.941  1.00  0.00     0.124 A 
HETATM   22  C   UNL     1      43.990 -19.356   4.300  1.00  0.00    -0.023 A 
HETATM   23  F   UNL     1      43.792 -20.533   2.257  1.00  0.00    -0.205 F 
HETATM   24  C   UNL     1      44.495 -20.588   4.984  1.00  0.00     0.051 C 
HETATM   25  C   UNL     1      43.878 -18.141   4.982  1.00  0.00     0.012 A 
HETATM   26  C   UNL     1      43.429 -16.997   4.314  1.00  0.00     0.030 A 
ENDBRANCH  16  19
ENDBRANCH   1  15
BRANCH  12  27
HETATM   27  O   UNL     1      38.854  -9.661  -4.347  1.00  0.00    -0.356 OA
HETATM   28  C   UNL     1      37.696  -8.860  -4.144  1.00  0.00     0.210 C 
ENDBRANCH  12  27
TORSDOF 3
ENDMDL
MODEL 4
REMARK VINA RESULT:      -8.3      6.430      8.659
REMARK  3 active torsions:
REMARK  status: ('A' for Active; 'I' for Inactive)
REMARK    1  A    between atoms: C_6  and  N_7 
REMARK       I    between atoms: N_7  and  C_8 
REMARK    2  A    between atoms: C_8  and  C_9 
REMARK    3  A    between atoms: C_20  and  O_21 
ROOT
HETATM    1  C   UNL     1      41.670 -13.394   2.906  1.00  0.00     0.153 A 
HETATM    2  N   UNL     1      41.743 -12.944   4.182  1.00  0.00    -0.168 NA
HETATM    3  N   UNL     1      42.232 -13.994   4.876  1.00  0.00    -0.276 N 
HETATM    4  H   UNL     1      42.380 -13.886   5.874  1.00  0.00     0.189 HD
HETATM    5  C   UNL     1      42.479 -15.089   4.107  1.00  0.00     0.069 A 
HETATM    6  C   UNL     1      42.136 -14.729   2.822  1.00  0.00     0.007 A 
HETATM    7  C   UNL     1      42.251 -15.686   1.689  1.00  0.00     0.048 C 
HETATM    8  C   UNL     1      43.335 -16.752   1.975  1.00  0.00     0.044 C 
HETATM    9  C   UNL     1      43.379 -17.245   3.418  1.00  0.00    -0.043 A 
HETATM   10  C   UNL     1      43.001 -16.391   4.480  1.00  0.00    -0.001 A 
HETATM   11  C   UNL     1      43.880 -18.521   3.707  1.00  0.00     0.044 A 
HETATM   12  C   UNL     1      43.981 -18.966   5.028  1.00  0.00     0.068 A 
HETATM   13  C   UNL     1      43.600 -18.119   6.070  1.00  0.00     0.037 A 
HETATM   14  C   UNL     1      43.114 -16.833   5.799  1.00  0.00     0.017 A 
ENDROOT
BRANCH   1  15
HETATM   15  C   UNL     1      41.157 -12.543   1.813  1.00  0.00     0.277 C 
HETATM   16  N   UNL     1      40.000 -13.060   1.261  1.00  0.00    -0.322 N 
HETATM   17  H   UNL     1      39.704 -13.930   1.699  1.00  0.00     0.169 HD
HETATM   18  O   UNL     1      41.727 -11.512   1.474  1.00  0.00    -0.266 OA
BRANCH  16  19
HETATM   19  C   UNL     1      39.220 -12.534   0.218  1.00  0.00     0.037 A 
HETATM   20  C   UNL     1      39.357 -12.908  -1.119  1.00  0.00     0.072 A 
HETATM   21  C   UNL     1      38.542 -12.327  -2.089  1.00  0.00     0.124 A 
HETATM   22  C   UNL     1      37.586 -11.363  -1.763  1.00  0.00    -0.023 A 
HETATM   23  F   UNL     1      38.687 -12.710  -3.366  1.00  0.00    -0.205 F 
HETATM   24  C   UNL     1      36.707 -10.781  -2.826  1.00  0.00     0.051 C 
HETATM   25  C   UNL     1      37.438 -11.002  -0.421  1.00  0.00     0.012 A 
HETATM   26  C   UNL     1      38.252 -11.580   0.558  1.00  0.00     0.030 A 
ENDBRANCH  16  19
ENDBRANCH   1  15
BRANCH  12  27
HETATM   27  O   UNL     1      44.471 -20.236   5.163  1.00  0.00    -0.356 OA
HETATM   28  C   UNL     1      43.987 -21.214   4.251  1.00  0.00     0.210 C 
ENDBRANCH  12  27
TORSDOF 3
ENDMDL
MODEL 5
REMARK VINA RESULT:      -8.2      7.088      9.717
REMARK  3 active torsions:
REMARK  status: ('A' for Active; 'I' for Inactive)
REMARK    1  A    between atoms: C_6  and  N_7 
REMARK       I    between atoms: N_7  and  C_8 
REMARK    2  A    between atoms: C_8  and  C_9 
REMARK    3  A    between atoms: C_20  and  O_21 
ROOT
HETATM    1  C   UNL     1      41.281 -13.664   1.770  1.00  0.00     0.153 A 
HETATM    2  N   UNL     1      40.910 -12.684   2.629  1.00  0.00    -0.168 NA
HETATM    3  N   UNL     1      39.939 -12.015   1.970  1.00  0.00    -0.276 N 
HETATM    4  H   UNL     1      39.499 -11.226   2.430  1.00  0.00     0.189 HD
HETATM    5  C   UNL     1      39.671 -12.521   0.736  1.00  0.00     0.069 A 
HETATM    6  C   UNL     1      40.515 -13.598   0.580  1.00  0.00     0.007 A 
HETATM    7  C   UNL     1      40.526 -14.405  -0.670  1.00  0.00     0.048 C 
HETATM    8  C   UNL     1      39.156 -14.333  -1.385  1.00  0.00     0.044 C 
HETATM    9  C   UNL     1      38.489 -12.962  -1.349  1.00  0.00    -0.043 A 
HETATM   10  C   UNL     1      38.708 -12.085  -0.261  1.00  0.00    -0.001 A 
HETATM   11  C   UNL     1      37.582 -12.598  -2.352  1.00  0.00     0.044 A 
HETATM   12  C   UNL     1      36.918 -11.369  -2.303  1.00  0.00     0.068 A 
HETATM   13  C   UNL     1      37.146 -10.507  -1.228  1.00  0.00     0.037 A 
HETATM   14  C   UNL     1      38.036 -10.863  -0.207  1.00  0.00     0.017 A 
ENDROOT
BRANCH   1  15
HETATM   15  C   UNL     1      42.351 -14.625   2.107  1.00  0.00     0.277 C 
HETATM   16  N   UNL     1      41.843 -15.784   2.664  1.00  0.00    -0.322 N 
HETATM   17  H   UNL     1      40.829 -15.774   2.747  1.00  0.00     0.169 HD
HETATM   18  O   UNL     1      43.533 -14.376   1.896  1.00  0.00    -0.266 OA
BRANCH  16  19
HETATM   19  C   UNL     1      42.542 -16.921   3.099  1.00  0.00     0.037 A 
HETATM   20  C   UNL     1      42.880 -17.991   2.271  1.00  0.00     0.072 A 
HETATM   21  C   UNL     1      43.571 -19.083   2.794  1.00  0.00     0.124 A 
HETATM   22  C   UNL     1      43.932 -19.146   4.141  1.00  0.00    -0.023 A 
HETATM   23  F   UNL     1      43.891 -20.095   1.974  1.00  0.00    -0.205 F 
HETATM   24  C   UNL     1      44.699 -20.322   4.663  1.00  0.00     0.051 C 
HETATM   25  C   UNL     1      43.609 -18.066   4.966  1.00  0.00     0.012 A 
HETATM   26  C   UNL     1      42.915 -16.967   4.449  1.00  0.00     0.030 A 
ENDBRANCH  16  19
ENDBRANCH   1  15
BRANCH  12  27
HETATM   27  O   UNL     1      36.075 -11.137  -3.355  1.00  0.00    -0.356 OA
HETATM   28  C   UNL     1      35.773  -9.779  -3.652  1.00  0.00     0.210 C 
ENDBRANCH  12  27
TORSDOF 3
ENDMDL
MODEL 6
REMARK VINA RESULT:      -8.2      6.347      8.420
REMARK  3 active torsions:
REMARK  status: ('A' for Active; 'I' for Inactive)
REMARK    1  A    between atoms: C_6  and  N_7 
REMARK       I    between atoms: N_7  and  C_8 
REMARK    2  A    between atoms: C_8  and  C_9 
REMARK    3  A    between atoms: C_20  and  O_21 
ROOT
HETATM    1  C   UNL     1      40.914 -13.560   2.882  1.00  0.00     0.153 A 
HETATM    2  N   UNL     1      40.806 -13.208   4.186  1.00  0.00    -0.168 NA
HETATM    3  N   UNL     1      41.416 -14.212   4.853  1.00  0.00    -0.276 N 
HETATM    4  H   UNL     1      41.464 -14.160   5.864  1.00  0.00     0.189 HD
HETATM    5  C   UNL     1      41.910 -15.184   4.039  1.00  0.00     0.069 A 
HETATM    6  C   UNL     1      41.611 -14.786   2.754  1.00  0.00     0.007 A 
HETATM    7  C   UNL     1      41.981 -15.616   1.577  1.00  0.00     0.048 C 
HETATM    8  C   UNL     1      43.208 -16.504   1.890  1.00  0.00     0.044 C 
HETATM    9  C   UNL     1      43.225 -17.096   3.296  1.00  0.00    -0.043 A 
HETATM   10  C   UNL     1      42.621 -16.405   4.372  1.00  0.00    -0.001 A 
HETATM   11  C   UNL     1      43.917 -18.287   3.546  1.00  0.00     0.044 A 
HETATM   12  C   UNL     1      43.991 -18.813   4.839  1.00  0.00     0.068 A 
HETATM   13  C   UNL     1      43.386 -18.128   5.895  1.00  0.00     0.037 A 
HETATM   14  C   UNL     1      42.705 -16.926   5.665  1.00  0.00     0.017 A 
ENDROOT
BRANCH   1  15
HETATM   15  C   UNL     1      40.347 -12.724   1.805  1.00  0.00     0.277 C 
HETATM   16  N   UNL     1      41.306 -12.366   0.875  1.00  0.00    -0.322 N 
HETATM   17  H   UNL     1      42.229 -12.736   1.093  1.00  0.00     0.169 HD
HETATM   18  O   UNL     1      39.162 -12.412   1.783  1.00  0.00    -0.266 OA
BRANCH  16  19
HETATM   19  C   UNL     1      41.150 -11.591  -0.285  1.00  0.00     0.037 A 
HETATM   20  C   UNL     1      41.327 -10.209  -0.327  1.00  0.00     0.072 A 
HETATM   21  C   UNL     1      41.145  -9.521  -1.526  1.00  0.00     0.124 A 
HETATM   22  C   UNL     1      40.777 -10.179  -2.701  1.00  0.00    -0.023 A 
HETATM   23  F   UNL     1      41.330  -8.192  -1.541  1.00  0.00    -0.205 F 
HETATM   24  C   UNL     1      40.617  -9.413  -3.977  1.00  0.00     0.051 C 
HETATM   25  C   UNL     1      40.616 -11.567  -2.662  1.00  0.00     0.012 A 
HETATM   26  C   UNL     1      40.797 -12.264  -1.463  1.00  0.00     0.030 A 
ENDBRANCH  16  19
ENDBRANCH   1  15
BRANCH  12  27
HETATM   27  O   UNL     1      44.683 -19.989   4.935  1.00  0.00    -0.356 OA
HETATM   28  C   UNL     1      43.929 -21.160   5.221  1.00  0.00     0.210 C 
ENDBRANCH  12  27
TORSDOF 3
ENDMDL
MODEL 7
REMARK VINA RESULT:      -8.0      2.288      3.017
REMARK  3 active torsions:
REMARK  status: ('A' for Active; 'I' for Inactive)
REMARK    1  A    between atoms: C_6  and  N_7 
REMARK       I    between atoms: N_7  and  C_8 
REMARK    2  A    between atoms: C_8  and  C_9 
REMARK    3  A    between atoms: C_20  and  O_21 
ROOT
HETATM    1  C   UNL     1      40.737 -12.838   5.310  1.00  0.00     0.153 A 
HETATM    2  N   UNL     1      39.767 -13.014   4.380  1.00  0.00    -0.168 NA
HETATM    3  N   UNL     1      40.128 -14.142   3.732  1.00  0.00    -0.276 N 
HETATM    4  H   UNL     1      39.536 -14.479   2.981  1.00  0.00     0.189 HD
HETATM    5  C   UNL     1      41.277 -14.697   4.205  1.00  0.00     0.069 A 
HETATM    6  C   UNL     1      41.691 -13.883   5.235  1.00  0.00     0.007 A 
HETATM    7  C   UNL     1      42.940 -14.161   5.994  1.00  0.00     0.048 C 
HETATM    8  C   UNL     1      43.282 -15.669   5.959  1.00  0.00     0.044 C 
HETATM    9  C   UNL     1      43.015 -16.353   4.623  1.00  0.00    -0.043 A 
HETATM   10  C   UNL     1      41.978 -15.896   3.777  1.00  0.00    -0.001 A 
HETATM   11  C   UNL     1      43.739 -17.497   4.264  1.00  0.00     0.044 A 
HETATM   12  C   UNL     1      43.467 -18.170   3.069  1.00  0.00     0.068 A 
HETATM   13  C   UNL     1      42.445 -17.707   2.238  1.00  0.00     0.037 A 
HETATM   14  C   UNL     1      41.699 -16.575   2.590  1.00  0.00     0.017 A 
ENDROOT
BRANCH   1  15
HETATM   15  C   UNL     1      40.727 -11.685   6.232  1.00  0.00     0.277 C 
HETATM   16  N   UNL     1      41.972 -11.093   6.327  1.00  0.00    -0.322 N 
HETATM   17  H   UNL     1      42.676 -11.551   5.751  1.00  0.00     0.169 HD
HETATM   18  O   UNL     1      39.708 -11.335   6.818  1.00  0.00    -0.266 OA
BRANCH  16  19
HETATM   19  C   UNL     1      42.352  -9.977   7.089  1.00  0.00     0.037 A 
HETATM   20  C   UNL     1      43.160 -10.048   8.223  1.00  0.00     0.072 A 
HETATM   21  C   UNL     1      43.481  -8.885   8.922  1.00  0.00     0.124 A 
HETATM   22  C   UNL     1      43.005  -7.635   8.523  1.00  0.00    -0.023 A 
HETATM   23  F   UNL     1      44.267  -8.980  10.004  1.00  0.00    -0.205 F 
HETATM   24  C   UNL     1      43.392  -6.402   9.279  1.00  0.00     0.051 C 
HETATM   25  C   UNL     1      42.209  -7.562   7.376  1.00  0.00     0.012 A 
HETATM   26  C   UNL     1      41.883  -8.724   6.670  1.00  0.00     0.030 A 
ENDBRANCH  16  19
ENDBRANCH   1  15
BRANCH  12  27
HETATM   27  O   UNL     1      44.260 -19.259   2.838  1.00  0.00    -0.356 OA
HETATM   28  C   UNL     1      43.683 -20.333   2.105  1.00  0.00     0.210 C 
ENDBRANCH  12  27
TORSDOF 3
ENDMDL
MODEL 8
REMARK VINA RESULT:      -8.0      4.297      5.860
REMARK  3 active torsions:
REMARK  status: ('A' for Active; 'I' for Inactive)
REMARK    1  A    between atoms: C_6  and  N_7 
REMARK       I    between atoms: N_7  and  C_8 
REMARK    2  A    between atoms: C_8  and  C_9 
REMARK    3  A    between atoms: C_20  and  O_21 
ROOT
HETATM    1  C   UNL     1      42.293 -13.483   3.188  1.00  0.00     0.153 A 
HETATM    2  N   UNL     1      43.006 -14.329   2.406  1.00  0.00    -0.168 NA
HETATM    3  N   UNL     1      42.309 -14.380   1.250  1.00  0.00    -0.276 N 
HETATM    4  H   UNL     1      42.664 -14.960   0.498  1.00  0.00     0.189 HD
HETATM    5  C   UNL     1      41.189 -13.607   1.255  1.00  0.00     0.069 A 
HETATM    6  C   UNL     1      41.156 -13.003   2.492  1.00  0.00     0.007 A 
HETATM    7  C   UNL     1      40.051 -12.085   2.881  1.00  0.00     0.048 C 
HETATM    8  C   UNL     1      39.418 -11.425   1.634  1.00  0.00     0.044 C 
HETATM    9  C   UNL     1      39.276 -12.346   0.426  1.00  0.00    -0.043 A 
HETATM   10  C   UNL     1      40.196 -13.399   0.216  1.00  0.00    -0.001 A 
HETATM   11  C   UNL     1      38.285 -12.098  -0.531  1.00  0.00     0.044 A 
HETATM   12  C   UNL     1      38.178 -12.898  -1.672  1.00  0.00     0.068 A 
HETATM   13  C   UNL     1      39.086 -13.940  -1.869  1.00  0.00     0.037 A 
HETATM   14  C   UNL     1      40.095 -14.190  -0.930  1.00  0.00     0.017 A 
ENDROOT
BRANCH   1  15
HETATM   15  C   UNL     1      42.712 -13.164   4.567  1.00  0.00     0.277 C 
HETATM   16  N   UNL     1      43.463 -12.004   4.620  1.00  0.00    -0.322 N 
HETATM   17  H   UNL     1      43.597 -11.575   3.707  1.00  0.00     0.169 HD
HETATM   18  O   UNL     1      42.404 -13.875   5.518  1.00  0.00    -0.266 OA
BRANCH  16  19
HETATM   19  C   UNL     1      44.026 -11.380   5.744  1.00  0.00     0.037 A 
HETATM   20  C   UNL     1      45.383 -11.425   6.061  1.00  0.00     0.072 A 
HETATM   21  C   UNL     1      45.852 -10.779   7.204  1.00  0.00     0.124 A 
HETATM   22  C   UNL     1      44.993 -10.085   8.059  1.00  0.00    -0.023 A 
HETATM   23  F   UNL     1      47.163 -10.831   7.481  1.00  0.00    -0.205 F 
HETATM   24  C   UNL     1      45.535  -9.378   9.263  1.00  0.00     0.051 C 
HETATM   25  C   UNL     1      43.636 -10.026   7.732  1.00  0.00     0.012 A 
HETATM   26  C   UNL     1      43.158 -10.672   6.587  1.00  0.00     0.030 A 
ENDBRANCH  16  19
ENDBRANCH   1  15
BRANCH  12  27
HETATM   27  O   UNL     1      37.156 -12.554  -2.513  1.00  0.00    -0.356 OA
HETATM   28  C   UNL     1      36.803 -11.177  -2.570  1.00  0.00     0.210 C 
ENDBRANCH  12  27
TORSDOF 3
ENDMDL
MODEL 9
REMARK VINA RESULT:      -8.0      3.082      9.489
REMARK  3 active torsions:
REMARK  status: ('A' for Active; 'I' for Inactive)
REMARK    1  A    between atoms: C_6  and  N_7 
REMARK       I    between atoms: N_7  and  C_8 
REMARK    2  A    between atoms: C_8  and  C_9 
REMARK    3  A    between atoms: C_20  and  O_21 
ROOT
HETATM    1  C   UNL     1      43.395 -10.492   7.601  1.00  0.00     0.153 A 
HETATM    2  N   UNL     1      42.687  -9.599   6.869  1.00  0.00    -0.168 NA
HETATM    3  N   UNL     1      42.304  -8.664   7.766  1.00  0.00    -0.276 N 
HETATM    4  H   UNL     1      41.755  -7.878   7.438  1.00  0.00     0.189 HD
HETATM    5  C   UNL     1      42.736  -8.915   9.032  1.00  0.00     0.069 A 
HETATM    6  C   UNL     1      43.456 -10.086   8.957  1.00  0.00     0.007 A 
HETATM    7  C   UNL     1      44.077 -10.696  10.164  1.00  0.00     0.048 C 
HETATM    8  C   UNL     1      44.380  -9.619  11.233  1.00  0.00     0.044 C 
HETATM    9  C   UNL     1      43.313  -8.537  11.368  1.00  0.00    -0.043 A 
HETATM   10  C   UNL     1      42.534  -8.154  10.252  1.00  0.00    -0.001 A 
HETATM   11  C   UNL     1      43.160  -7.853  12.581  1.00  0.00     0.044 A 
HETATM   12  C   UNL     1      42.226  -6.820  12.705  1.00  0.00     0.068 A 
HETATM   13  C   UNL     1      41.457  -6.453  11.599  1.00  0.00     0.037 A 
HETATM   14  C   UNL     1      41.610  -7.115  10.374  1.00  0.00     0.017 A 
ENDROOT
BRANCH   1  15
HETATM   15  C   UNL     1      43.985 -11.701   6.991  1.00  0.00     0.277 C 
HETATM   16  N   UNL     1      43.016 -12.617   6.628  1.00  0.00    -0.322 N 
HETATM   17  H   UNL     1      42.071 -12.304   6.843  1.00  0.00     0.169 HD
HETATM   18  O   UNL     1      45.196 -11.827   6.846  1.00  0.00    -0.266 OA
BRANCH  16  19
HETATM   19  C   UNL     1      43.185 -13.869   6.016  1.00  0.00     0.037 A 
HETATM   20  C   UNL     1      43.700 -14.990   6.666  1.00  0.00     0.072 A 
HETATM   21  C   UNL     1      43.838 -16.193   5.975  1.00  0.00     0.124 A 
HETATM   22  C   UNL     1      43.480 -16.311   4.630  1.00  0.00    -0.023 A 
HETATM   23  F   UNL     1      44.328 -17.258   6.626  1.00  0.00    -0.205 F 
HETATM   24  C   UNL     1      43.614 -17.626   3.926  1.00  0.00     0.051 C 
HETATM   25  C   UNL     1      42.947 -15.192   3.984  1.00  0.00     0.012 A 
HETATM   26  C   UNL     1      42.807 -13.982   4.671  1.00  0.00     0.030 A 
ENDBRANCH  16  19
ENDBRANCH   1  15
BRANCH  12  27
HETATM   27  O   UNL     1      42.171  -6.252  13.947  1.00  0.00    -0.356 OA
HETATM   28  C   UNL     1      42.725  -6.998  15.024  1.00  0.00     0.210 C 
ENDBRANCH  12  27
TORSDOF 3
ENDMDL
MODEL 10
REMARK VINA RESULT:      -7.9      3.329      9.684
REMARK  3 active torsions:
REMARK  status: ('A' for Active; 'I' for Inactive)
REMARK    1  A    between atoms: C_6  and  N_7 
REMARK       I    between atoms: N_7  and  C_8 
REMARK    2  A    between atoms: C_8  and  C_9 
REMARK    3  A    between atoms: C_20  and  O_21 
ROOT
HETATM    1  C   UNL     1      44.371 -10.673   8.921  1.00  0.00     0.153 A 
HETATM    2  N   UNL     1      45.371 -10.784   9.827  1.00  0.00    -0.168 NA
HETATM    3  N   UNL     1      44.960 -10.030  10.870  1.00  0.00    -0.276 N 
HETATM    4  H   UNL     1      45.558  -9.967  11.686  1.00  0.00     0.189 HD
HETATM    5  C   UNL     1      43.746  -9.447  10.675  1.00  0.00     0.069 A 
HETATM    6  C   UNL     1      43.331  -9.853   9.425  1.00  0.00     0.007 A 
HETATM    7  C   UNL     1      42.039  -9.397   8.848  1.00  0.00     0.048 C 
HETATM    8  C   UNL     1      41.030  -9.040   9.965  1.00  0.00     0.044 C 
HETATM    9  C   UNL     1      41.638  -8.330  11.170  1.00  0.00    -0.043 A 
HETATM   10  C   UNL     1      42.978  -8.579  11.550  1.00  0.00    -0.001 A 
HETATM   11  C   UNL     1      40.844  -7.492  11.964  1.00  0.00     0.044 A 
HETATM   12  C   UNL     1      41.371  -6.879  13.104  1.00  0.00     0.068 A 
HETATM   13  C   UNL     1      42.696  -7.126  13.467  1.00  0.00     0.037 A 
HETATM   14  C   UNL     1      43.499  -7.976  12.695  1.00  0.00     0.017 A 
ENDROOT
BRANCH   1  15
HETATM   15  C   UNL     1      44.437 -11.344   7.607  1.00  0.00     0.277 C 
HETATM   16  N   UNL     1      43.567 -12.415   7.533  1.00  0.00    -0.322 N 
HETATM   17  H   UNL     1      43.036 -12.556   8.390  1.00  0.00     0.169 HD
HETATM   18  O   UNL     1      45.192 -10.957   6.721  1.00  0.00    -0.266 OA
BRANCH  16  19
HETATM   19  C   UNL     1      43.341 -13.283   6.453  1.00  0.00     0.037 A 
HETATM   20  C   UNL     1      43.686 -14.634   6.455  1.00  0.00     0.072 A 
HETATM   21  C   UNL     1      43.428 -15.419   5.332  1.00  0.00     0.124 A 
HETATM   22  C   UNL     1      42.836 -14.887   4.185  1.00  0.00    -0.023 A 
HETATM   23  F   UNL     1      43.762 -16.718   5.363  1.00  0.00    -0.205 F 
HETATM   24  C   UNL     1      42.547 -15.765   3.007  1.00  0.00     0.051 C 
HETATM   25  C   UNL     1      42.475 -13.537   4.190  1.00  0.00     0.012 A 
HETATM   26  C   UNL     1      42.731 -12.743   5.312  1.00  0.00     0.030 A 
ENDBRANCH  16  19
ENDBRANCH   1  15
BRANCH  12  27
HETATM   27  O   UNL     1      40.490  -6.075  13.774  1.00  0.00    -0.356 OA
HETATM   28  C   UNL     1      39.887  -6.613  14.944  1.00  0.00     0.210 C 
ENDBRANCH  12  27
TORSDOF 3
ENDMDL
