MODEL 1
REMARK VINA RESULT:      -7.9      0.000      0.000
REMARK  4 active torsions:
REMARK  status: ('A' for Active; 'I' for Inactive)
REMARK    1  A    between atoms: C_9  and  C_10 
REMARK    2  A    between atoms: C_11  and  O_12 
REMARK    3  A    between atoms: C_18  and  C_19 
REMARK       I    between atoms: C_19  and  N_20 
REMARK    4  A    between atoms: N_20  and  C_21 
ROOT
HETATM    1  C   UNL     1      39.237 -14.585  -1.519  1.00  0.00     0.070 C 
HETATM    2  C   UNL     1      39.874 -13.390  -0.854  1.00  0.00     0.037 C 
HETATM    3  N   UNL     1      39.808 -12.198  -1.572  1.00  0.00    -0.192 N 
HETATM    4  C   UNL     1      40.581 -11.132  -1.280  1.00  0.00     0.725 A 
HETATM    5  N   UNL     1      41.305 -11.124  -0.118  1.00  0.00    -0.084 N 
HETATM    6  N   UNL     1      42.074 -10.018  -0.029  1.00  0.00    -0.149 NA
HETATM    7  C   UNL     1      41.732  -9.389  -1.160  1.00  0.00     0.275 A 
HETATM    8  N   UNL     1      40.816 -10.033  -1.950  1.00  0.00    -0.054 NA
HETATM    9  C   UNL     1      41.261 -12.200   0.885  1.00  0.00     0.205 C 
HETATM   10  C   UNL     1      40.550 -13.428   0.322  1.00  0.00     0.063 C 
HETATM   11  H   UNL     1      39.389 -12.234  -2.499  1.00  0.00     0.184 HD
ENDROOT
BRANCH  10  12
HETATM   12  C   UNL     1      40.792 -14.681   1.080  1.00  0.00     0.256 C 
HETATM   13  N   UNL     1      42.128 -14.919   1.328  1.00  0.00    -0.323 N 
HETATM   14  H   UNL     1      42.789 -14.254   0.949  1.00  0.00     0.169 HD
HETATM   15  O   UNL     1      39.835 -15.364   1.418  1.00  0.00    -0.267 OA
BRANCH  13  16
HETATM   16  C   UNL     1      42.670 -15.953   2.120  1.00  0.00     0.035 A 
HETATM   17  C   UNL     1      42.829 -17.270   1.681  1.00  0.00     0.031 A 
HETATM   18  C   UNL     1      43.345 -18.249   2.537  1.00  0.00     0.026 A 
HETATM   19  C   UNL     1      43.701 -17.916   3.839  1.00  0.00     0.034 A 
HETATM   20 CL   UNL     1      44.320 -19.123   4.896  1.00  0.00    -0.084 Cl
HETATM   21  C   UNL     1      43.555 -16.607   4.291  1.00  0.00     0.026 A 
HETATM   22  C   UNL     1      43.047 -15.628   3.429  1.00  0.00     0.031 A 
ENDBRANCH  13  16
ENDBRANCH  10  12
BRANCH   9  23
HETATM   23  C   UNL     1      40.591 -11.697   2.168  1.00  0.00     0.005 A 
HETATM   24  C   UNL     1      41.247 -11.810   3.409  1.00  0.00     0.076 A 
HETATM   25  C   UNL     1      40.630 -11.331   4.571  1.00  0.00     0.037 A 
HETATM   26  C   UNL     1      39.355 -10.762   4.514  1.00  0.00     0.003 A 
HETATM   27  C   UNL     1      38.686 -10.673   3.300  1.00  0.00     0.001 A 
HETATM   28  C   UNL     1      39.294 -11.141   2.136  1.00  0.00     0.012 A 
BRANCH  24  29
HETATM   29  O   UNL     1      42.488 -12.385   3.381  1.00  0.00    -0.355 OA
HETATM   30  C   UNL     1      43.595 -11.580   3.769  1.00  0.00     0.210 C 
ENDBRANCH  24  29
ENDBRANCH   9  23
TORSDOF 4
ENDMDL
MODEL 2
REMARK VINA RESULT:      -7.9      2.100      4.289
REMARK  4 active torsions:
REMARK  status: ('A' for Active; 'I' for Inactive)
REMARK    1  A    between atoms: C_9  and  C_10 
REMARK    2  A    between atoms: C_11  and  O_12 
REMARK    3  A    between atoms: C_18  and  C_19 
REMARK       I    between atoms: C_19  and  N_20 
REMARK    4  A    between atoms: N_20  and  C_21 
ROOT
HETATM    1  C   UNL     1      44.475 -11.544   3.956  1.00  0.00     0.070 C 
HETATM    2  C   UNL     1      43.043 -11.575   3.484  1.00  0.00     0.037 C 
HETATM    3  N   UNL     1      42.322 -10.399   3.676  1.00  0.00    -0.192 N 
HETATM    4  C   UNL     1      40.976 -10.354   3.604  1.00  0.00     0.725 A 
HETATM    5  N   UNL     1      40.290 -11.437   3.122  1.00  0.00    -0.084 N 
HETATM    6  N   UNL     1      38.956 -11.242   3.194  1.00  0.00    -0.149 NA
HETATM    7  C   UNL     1      38.915 -10.003   3.698  1.00  0.00     0.275 A 
HETATM    8  N   UNL     1      40.129  -9.421   3.957  1.00  0.00    -0.054 NA
HETATM    9  C   UNL     1      40.936 -12.659   2.615  1.00  0.00     0.205 C 
HETATM   10  C   UNL     1      42.419 -12.668   2.975  1.00  0.00     0.063 C 
HETATM   11  H   UNL     1      42.791  -9.637   4.160  1.00  0.00     0.184 HD
ENDROOT
BRANCH  10  12
HETATM   12  C   UNL     1      43.070 -13.999   2.871  1.00  0.00     0.256 C 
HETATM   13  N   UNL     1      42.874 -14.790   3.985  1.00  0.00    -0.323 N 
HETATM   14  H   UNL     1      42.354 -14.381   4.751  1.00  0.00     0.169 HD
HETATM   15  O   UNL     1      43.686 -14.281   1.853  1.00  0.00    -0.267 OA
BRANCH  13  16
HETATM   16  C   UNL     1      43.258 -16.138   4.143  1.00  0.00     0.035 A 
HETATM   17  C   UNL     1      43.266 -17.074   3.105  1.00  0.00     0.031 A 
HETATM   18  C   UNL     1      43.628 -18.404   3.346  1.00  0.00     0.026 A 
HETATM   19  C   UNL     1      43.981 -18.805   4.630  1.00  0.00     0.034 A 
HETATM   20 CL   UNL     1      44.411 -20.443   4.930  1.00  0.00    -0.084 Cl
HETATM   21  C   UNL     1      43.985 -17.884   5.674  1.00  0.00     0.026 A 
HETATM   22  C   UNL     1      43.630 -16.553   5.428  1.00  0.00     0.031 A 
ENDBRANCH  13  16
ENDBRANCH  10  12
BRANCH   9  23
HETATM   23  C   UNL     1      40.720 -12.781   1.103  1.00  0.00     0.005 A 
HETATM   24  C   UNL     1      40.047 -13.894   0.564  1.00  0.00     0.076 A 
HETATM   25  C   UNL     1      39.842 -13.983  -0.818  1.00  0.00     0.037 A 
HETATM   26  C   UNL     1      40.322 -12.988  -1.672  1.00  0.00     0.003 A 
HETATM   27  C   UNL     1      41.015 -11.901  -1.155  1.00  0.00     0.001 A 
HETATM   28  C   UNL     1      41.219 -11.798   0.220  1.00  0.00     0.012 A 
BRANCH  24  29
HETATM   29  O   UNL     1      39.615 -14.828   1.466  1.00  0.00    -0.355 OA
HETATM   30  C   UNL     1      40.231 -16.110   1.430  1.00  0.00     0.210 C 
ENDBRANCH  24  29
ENDBRANCH   9  23
TORSDOF 4
ENDMDL
MODEL 3
REMARK VINA RESULT:      -7.9      3.413      6.515
REMARK  4 active torsions:
REMARK  status: ('A' for Active; 'I' for Inactive)
REMARK    1  A    between atoms: C_9  and  C_10 
REMARK    2  A    between atoms: C_11  and  O_12 
REMARK    3  A    between atoms: C_18  and  C_19 
REMARK       I    between atoms: C_19  and  N_20 
REMARK    4  A    between atoms: N_20  and  C_21 
ROOT
HETATM    1  C   UNL     1      42.540 -17.615   2.250  1.00  0.00     0.070 C 
HETATM    2  C   UNL     1      42.506 -16.700   3.450  1.00  0.00     0.037 C 
HETATM    3  N   UNL     1      43.414 -17.003   4.461  1.00  0.00    -0.192 N 
HETATM    4  C   UNL     1      43.307 -16.496   5.706  1.00  0.00     0.725 A 
HETATM    5  N   UNL     1      42.412 -15.489   5.949  1.00  0.00    -0.084 N 
HETATM    6  N   UNL     1      42.389 -15.162   7.259  1.00  0.00    -0.149 NA
HETATM    7  C   UNL     1      43.323 -15.992   7.737  1.00  0.00     0.275 A 
HETATM    8  N   UNL     1      43.915 -16.820   6.819  1.00  0.00    -0.054 NA
HETATM    9  C   UNL     1      41.573 -14.868   4.912  1.00  0.00     0.205 C 
HETATM   10  C   UNL     1      41.620 -15.687   3.625  1.00  0.00     0.063 C 
HETATM   11  H   UNL     1      43.986 -17.835   4.341  1.00  0.00     0.184 HD
ENDROOT
BRANCH  10  12
HETATM   12  C   UNL     1      40.528 -15.388   2.665  1.00  0.00     0.256 C 
HETATM   13  N   UNL     1      40.849 -14.394   1.764  1.00  0.00    -0.323 N 
HETATM   14  H   UNL     1      41.757 -13.958   1.869  1.00  0.00     0.169 HD
HETATM   15  O   UNL     1      39.485 -16.023   2.736  1.00  0.00    -0.267 OA
BRANCH  13  16
HETATM   16  C   UNL     1      40.079 -13.969   0.661  1.00  0.00     0.035 A 
HETATM   17  C   UNL     1      39.868 -14.740  -0.486  1.00  0.00     0.031 A 
HETATM   18  C   UNL     1      39.119 -14.237  -1.555  1.00  0.00     0.026 A 
HETATM   19  C   UNL     1      38.579 -12.957  -1.483  1.00  0.00     0.034 A 
HETATM   20 CL   UNL     1      37.671 -12.332  -2.803  1.00  0.00    -0.084 Cl
HETATM   21  C   UNL     1      38.774 -12.179  -0.345  1.00  0.00     0.026 A 
HETATM   22  C   UNL     1      39.517 -12.688   0.726  1.00  0.00     0.031 A 
ENDBRANCH  13  16
ENDBRANCH  10  12
BRANCH   9  23
HETATM   23  C   UNL     1      42.013 -13.419   4.677  1.00  0.00     0.005 A 
HETATM   24  C   UNL     1      41.213 -12.348   5.120  1.00  0.00     0.076 A 
HETATM   25  C   UNL     1      41.636 -11.029   4.912  1.00  0.00     0.037 A 
HETATM   26  C   UNL     1      42.835 -10.765   4.247  1.00  0.00     0.003 A 
HETATM   27  C   UNL     1      43.617 -11.813   3.778  1.00  0.00     0.001 A 
HETATM   28  C   UNL     1      43.209 -13.130   3.985  1.00  0.00     0.012 A 
BRANCH  24  29
HETATM   29  O   UNL     1      40.050 -12.690   5.755  1.00  0.00    -0.355 OA
HETATM   30  C   UNL     1      39.116 -11.651   6.019  1.00  0.00     0.210 C 
ENDBRANCH  24  29
ENDBRANCH   9  23
TORSDOF 4
ENDMDL
MODEL 4
REMARK VINA RESULT:      -7.8      3.759      6.575
REMARK  4 active torsions:
REMARK  status: ('A' for Active; 'I' for Inactive)
REMARK    1  A    between atoms: C_9  and  C_10 
REMARK    2  A    between atoms: C_11  and  O_12 
REMARK    3  A    between atoms: C_18  and  C_19 
REMARK       I    between atoms: C_19  and  N_20 
REMARK    4  A    between atoms: N_20  and  C_21 
ROOT
HETATM    1  C   UNL     1      39.685 -10.750   5.958  1.00  0.00     0.070 C 
HETATM    2  C   UNL     1      41.041 -11.406   6.037  1.00  0.00     0.037 C 
HETATM    3  N   UNL     1      41.898 -10.896   7.010  1.00  0.00    -0.192 N 
HETATM    4  C   UNL     1      43.223 -11.144   7.009  1.00  0.00     0.725 A 
HETATM    5  N   UNL     1      43.731 -12.093   6.162  1.00  0.00    -0.084 N 
HETATM    6  N   UNL     1      45.078 -12.151   6.245  1.00  0.00    -0.149 NA
HETATM    7  C   UNL     1      45.306 -11.231   7.189  1.00  0.00     0.275 A 
HETATM    8  N   UNL     1      44.199 -10.596   7.689  1.00  0.00    -0.054 NA
HETATM    9  C   UNL     1      42.907 -12.918   5.266  1.00  0.00     0.205 C 
HETATM   10  C   UNL     1      41.483 -12.374   5.194  1.00  0.00     0.063 C 
HETATM   11  H   UNL     1      41.570 -10.098   7.549  1.00  0.00     0.184 HD
ENDROOT
BRANCH  10  12
HETATM   12  C   UNL     1      40.690 -12.871   4.042  1.00  0.00     0.256 C 
HETATM   13  N   UNL     1      41.305 -12.662   2.825  1.00  0.00    -0.323 N 
HETATM   14  H   UNL     1      42.190 -12.172   2.839  1.00  0.00     0.169 HD
HETATM   15  O   UNL     1      39.614 -13.413   4.252  1.00  0.00    -0.267 OA
BRANCH  13  16
HETATM   16  C   UNL     1      40.868 -13.123   1.566  1.00  0.00     0.035 A 
HETATM   17  C   UNL     1      40.369 -14.408   1.336  1.00  0.00     0.031 A 
HETATM   18  C   UNL     1      39.985 -14.805   0.050  1.00  0.00     0.026 A 
HETATM   19  C   UNL     1      40.103 -13.917  -1.014  1.00  0.00     0.034 A 
HETATM   20 CL   UNL     1      39.648 -14.410  -2.597  1.00  0.00    -0.084 Cl
HETATM   21  C   UNL     1      40.593 -12.632  -0.802  1.00  0.00     0.026 A 
HETATM   22  C   UNL     1      40.967 -12.235   0.487  1.00  0.00     0.031 A 
ENDBRANCH  13  16
ENDBRANCH  10  12
BRANCH   9  23
HETATM   23  C   UNL     1      42.931 -14.380   5.725  1.00  0.00     0.005 A 
HETATM   24  C   UNL     1      43.117 -15.420   4.794  1.00  0.00     0.076 A 
HETATM   25  C   UNL     1      43.153 -16.749   5.231  1.00  0.00     0.037 A 
HETATM   26  C   UNL     1      42.982 -17.057   6.583  1.00  0.00     0.003 A 
HETATM   27  C   UNL     1      42.767 -16.042   7.506  1.00  0.00     0.001 A 
HETATM   28  C   UNL     1      42.736 -14.714   7.083  1.00  0.00     0.012 A 
BRANCH  24  29
HETATM   29  O   UNL     1      43.269 -15.037   3.489  1.00  0.00    -0.355 OA
HETATM   30  C   UNL     1      43.302 -16.061   2.503  1.00  0.00     0.210 C 
ENDBRANCH  24  29
ENDBRANCH   9  23
TORSDOF 4
ENDMDL
MODEL 5
REMARK VINA RESULT:      -7.4      3.116      5.021
REMARK  4 active torsions:
REMARK  status: ('A' for Active; 'I' for Inactive)
REMARK    1  A    between atoms: C_9  and  C_10 
REMARK    2  A    between atoms: C_11  and  O_12 
REMARK    3  A    between atoms: C_18  and  C_19 
REMARK       I    between atoms: C_19  and  N_20 
REMARK    4  A    between atoms: N_20  and  C_21 
ROOT
HETATM    1  C   UNL     1      44.670 -11.752   5.486  1.00  0.00     0.070 C 
HETATM    2  C   UNL     1      43.172 -11.636   5.350  1.00  0.00     0.037 C 
HETATM    3  N   UNL     1      42.573 -10.648   6.126  1.00  0.00    -0.192 N 
HETATM    4  C   UNL     1      41.245 -10.616   6.361  1.00  0.00     0.725 A 
HETATM    5  N   UNL     1      40.415 -11.444   5.653  1.00  0.00    -0.084 N 
HETATM    6  N   UNL     1      39.137 -11.330   6.072  1.00  0.00    -0.149 NA
HETATM    7  C   UNL     1      39.270 -10.387   7.012  1.00  0.00     0.275 A 
HETATM    8  N   UNL     1      40.541  -9.918   7.215  1.00  0.00    -0.054 NA
HETATM    9  C   UNL     1      40.875 -12.354   4.591  1.00  0.00     0.205 C 
HETATM   10  C   UNL     1      42.397 -12.462   4.600  1.00  0.00     0.063 C 
HETATM   11  H   UNL     1      43.173 -10.122   6.757  1.00  0.00     0.184 HD
ENDROOT
BRANCH  10  12
HETATM   12  C   UNL     1      42.937 -13.629   3.857  1.00  0.00     0.256 C 
HETATM   13  N   UNL     1      42.791 -14.822   4.535  1.00  0.00    -0.323 N 
HETATM   14  H   UNL     1      42.376 -14.777   5.457  1.00  0.00     0.169 HD
HETATM   15  O   UNL     1      43.432 -13.452   2.753  1.00  0.00    -0.267 OA
BRANCH  13  16
HETATM   16  C   UNL     1      43.089 -16.113   4.050  1.00  0.00     0.035 A 
HETATM   17  C   UNL     1      43.875 -17.041   4.737  1.00  0.00     0.031 A 
HETATM   18  C   UNL     1      44.155 -18.292   4.176  1.00  0.00     0.026 A 
HETATM   19  C   UNL     1      43.653 -18.619   2.921  1.00  0.00     0.034 A 
HETATM   20 CL   UNL     1      44.010 -20.149   2.224  1.00  0.00    -0.084 Cl
HETATM   21  C   UNL     1      42.862 -17.707   2.226  1.00  0.00     0.026 A 
HETATM   22  C   UNL     1      42.577 -16.460   2.793  1.00  0.00     0.031 A 
ENDBRANCH  13  16
ENDBRANCH  10  12
BRANCH   9  23
HETATM   23  C   UNL     1      40.349 -11.884   3.231  1.00  0.00     0.005 A 
HETATM   24  C   UNL     1      39.696 -12.783   2.366  1.00  0.00     0.076 A 
HETATM   25  C   UNL     1      39.207 -12.335   1.134  1.00  0.00     0.037 A 
HETATM   26  C   UNL     1      39.382 -11.007   0.741  1.00  0.00     0.003 A 
HETATM   27  C   UNL     1      40.052 -10.117   1.572  1.00  0.00     0.001 A 
HETATM   28  C   UNL     1      40.538 -10.551   2.805  1.00  0.00     0.012 A 
BRANCH  24  29
HETATM   29  O   UNL     1      39.572 -14.068   2.820  1.00  0.00    -0.355 OA
HETATM   30  C   UNL     1      39.716 -15.118   1.870  1.00  0.00     0.210 C 
ENDBRANCH  24  29
ENDBRANCH   9  23
TORSDOF 4
ENDMDL
MODEL 6
REMARK VINA RESULT:      -7.4      2.838      5.501
REMARK  4 active torsions:
REMARK  status: ('A' for Active; 'I' for Inactive)
REMARK    1  A    between atoms: C_9  and  C_10 
REMARK    2  A    between atoms: C_11  and  O_12 
REMARK    3  A    between atoms: C_18  and  C_19 
REMARK       I    between atoms: C_19  and  N_20 
REMARK    4  A    between atoms: N_20  and  C_21 
ROOT
HETATM    1  C   UNL     1      41.705 -10.450   1.364  1.00  0.00     0.070 C 
HETATM    2  C   UNL     1      41.293 -11.882   1.126  1.00  0.00     0.037 C 
HETATM    3  N   UNL     1      41.061 -12.227  -0.203  1.00  0.00    -0.192 N 
HETATM    4  C   UNL     1      40.397 -13.346  -0.556  1.00  0.00     0.725 A 
HETATM    5  N   UNL     1      40.119 -14.293   0.394  1.00  0.00    -0.084 N 
HETATM    6  N   UNL     1      39.387 -15.303  -0.122  1.00  0.00    -0.149 NA
HETATM    7  C   UNL     1      39.293 -14.912  -1.398  1.00  0.00     0.275 A 
HETATM    8  N   UNL     1      39.903 -13.724  -1.707  1.00  0.00    -0.054 NA
HETATM    9  C   UNL     1      40.548 -14.197   1.799  1.00  0.00     0.205 C 
HETATM   10  C   UNL     1      41.067 -12.795   2.106  1.00  0.00     0.063 C 
HETATM   11  H   UNL     1      41.134 -11.487  -0.897  1.00  0.00     0.184 HD
ENDROOT
BRANCH  10  12
HETATM   12  C   UNL     1      41.149 -12.471   3.552  1.00  0.00     0.256 C 
HETATM   13  N   UNL     1      42.437 -12.228   3.985  1.00  0.00    -0.323 N 
HETATM   14  H   UNL     1      43.176 -12.329   3.300  1.00  0.00     0.169 HD
HETATM   15  O   UNL     1      40.120 -12.433   4.211  1.00  0.00    -0.267 OA
BRANCH  13  16
HETATM   16  C   UNL     1      42.830 -11.781   5.263  1.00  0.00     0.035 A 
HETATM   17  C   UNL     1      42.546 -10.508   5.766  1.00  0.00     0.031 A 
HETATM   18  C   UNL     1      42.999 -10.125   7.033  1.00  0.00     0.026 A 
HETATM   19  C   UNL     1      43.743 -11.013   7.803  1.00  0.00     0.034 A 
HETATM   20 CL   UNL     1      44.313 -10.536   9.353  1.00  0.00    -0.084 Cl
HETATM   21  C   UNL     1      44.029 -12.286   7.320  1.00  0.00     0.026 A 
HETATM   22  C   UNL     1      43.567 -12.670   6.055  1.00  0.00     0.031 A 
ENDBRANCH  13  16
ENDBRANCH  10  12
BRANCH   9  23
HETATM   23  C   UNL     1      41.600 -15.268   2.102  1.00  0.00     0.005 A 
HETATM   24  C   UNL     1      41.471 -16.099   3.232  1.00  0.00     0.076 A 
HETATM   25  C   UNL     1      42.432 -17.084   3.487  1.00  0.00     0.037 A 
HETATM   26  C   UNL     1      43.534 -17.237   2.643  1.00  0.00     0.003 A 
HETATM   27  C   UNL     1      43.689 -16.403   1.543  1.00  0.00     0.001 A 
HETATM   28  C   UNL     1      42.734 -15.422   1.276  1.00  0.00     0.012 A 
BRANCH  24  29
HETATM   29  O   UNL     1      40.368 -15.881   4.013  1.00  0.00    -0.355 OA
HETATM   30  C   UNL     1      40.545 -15.915   5.424  1.00  0.00     0.210 C 
ENDBRANCH  24  29
ENDBRANCH   9  23
TORSDOF 4
ENDMDL
MODEL 7
REMARK VINA RESULT:      -7.2      1.586      1.986
REMARK  4 active torsions:
REMARK  status: ('A' for Active; 'I' for Inactive)
REMARK    1  A    between atoms: C_9  and  C_10 
REMARK    2  A    between atoms: C_11  and  O_12 
REMARK    3  A    between atoms: C_18  and  C_19 
REMARK       I    between atoms: C_19  and  N_20 
REMARK    4  A    between atoms: N_20  and  C_21 
ROOT
HETATM    1  C   UNL     1      40.381 -14.736   0.022  1.00  0.00     0.070 C 
HETATM    2  C   UNL     1      40.531 -13.373   0.650  1.00  0.00     0.037 C 
HETATM    3  N   UNL     1      39.748 -12.365   0.093  1.00  0.00    -0.192 N 
HETATM    4  C   UNL     1      39.984 -11.056   0.318  1.00  0.00     0.725 A 
HETATM    5  N   UNL     1      40.881 -10.689   1.285  1.00  0.00    -0.084 N 
HETATM    6  N   UNL     1      41.044  -9.350   1.317  1.00  0.00    -0.149 NA
HETATM    7  C   UNL     1      40.186  -8.974   0.362  1.00  0.00     0.275 A 
HETATM    8  N   UNL     1      39.512  -9.986  -0.270  1.00  0.00    -0.054 NA
HETATM    9  C   UNL     1      41.586 -11.644   2.155  1.00  0.00     0.205 C 
HETATM   10  C   UNL     1      41.412 -13.069   1.639  1.00  0.00     0.063 C 
HETATM   11  H   UNL     1      39.183 -12.607  -0.717  1.00  0.00     0.184 HD
ENDROOT
BRANCH  10  12
HETATM   12  C   UNL     1      42.383 -14.048   2.189  1.00  0.00     0.256 C 
HETATM   13  N   UNL     1      41.783 -15.107   2.837  1.00  0.00    -0.323 N 
HETATM   14  H   UNL     1      40.773 -15.091   2.901  1.00  0.00     0.169 HD
HETATM   15  O   UNL     1      43.579 -13.854   2.021  1.00  0.00    -0.267 OA
BRANCH  13  16
HETATM   16  C   UNL     1      42.421 -16.253   3.357  1.00  0.00     0.035 A 
HETATM   17  C   UNL     1      42.718 -16.433   4.711  1.00  0.00     0.031 A 
HETATM   18  C   UNL     1      43.384 -17.583   5.148  1.00  0.00     0.026 A 
HETATM   19  C   UNL     1      43.760 -18.559   4.231  1.00  0.00     0.034 A 
HETATM   20 CL   UNL     1      44.592 -19.965   4.765  1.00  0.00    -0.084 Cl
HETATM   21  C   UNL     1      43.467 -18.397   2.880  1.00  0.00     0.026 A 
HETATM   22  C   UNL     1      42.793 -17.250   2.446  1.00  0.00     0.031 A 
ENDBRANCH  13  16
ENDBRANCH  10  12
BRANCH   9  23
HETATM   23  C   UNL     1      41.095 -11.502   3.600  1.00  0.00     0.005 A 
HETATM   24  C   UNL     1      41.971 -11.072   4.615  1.00  0.00     0.076 A 
HETATM   25  C   UNL     1      41.503 -10.931   5.927  1.00  0.00     0.037 A 
HETATM   26  C   UNL     1      40.178 -11.237   6.245  1.00  0.00     0.003 A 
HETATM   27  C   UNL     1      39.313 -11.693   5.258  1.00  0.00     0.001 A 
HETATM   28  C   UNL     1      39.766 -11.830   3.947  1.00  0.00     0.012 A 
BRANCH  24  29
HETATM   29  O   UNL     1      43.254 -10.799   4.224  1.00  0.00    -0.355 OA
HETATM   30  C   UNL     1      44.301 -11.529   4.852  1.00  0.00     0.210 C 
ENDBRANCH  24  29
ENDBRANCH   9  23
TORSDOF 4
ENDMDL
MODEL 8
REMARK VINA RESULT:      -7.1      2.762      4.419
REMARK  4 active torsions:
REMARK  status: ('A' for Active; 'I' for Inactive)
REMARK    1  A    between atoms: C_9  and  C_10 
REMARK    2  A    between atoms: C_11  and  O_12 
REMARK    3  A    between atoms: C_18  and  C_19 
REMARK       I    between atoms: C_19  and  N_20 
REMARK    4  A    between atoms: N_20  and  C_21 
ROOT
HETATM    1  C   UNL     1      40.971 -16.041   2.593  1.00  0.00     0.070 C 
HETATM    2  C   UNL     1      40.691 -14.938   1.603  1.00  0.00     0.037 C 
HETATM    3  N   UNL     1      39.829 -15.272   0.561  1.00  0.00    -0.192 N 
HETATM    4  C   UNL     1      39.721 -14.526  -0.558  1.00  0.00     0.725 A 
HETATM    5  N   UNL     1      40.307 -13.289  -0.602  1.00  0.00    -0.084 N 
HETATM    6  N   UNL     1      40.161 -12.722  -1.818  1.00  0.00    -0.149 NA
HETATM    7  C   UNL     1      39.445 -13.664  -2.444  1.00  0.00     0.275 A 
HETATM    8  N   UNL     1      39.149 -14.780  -1.707  1.00  0.00    -0.054 NA
HETATM    9  C   UNL     1      41.021 -12.677   0.531  1.00  0.00     0.205 C 
HETATM   10  C   UNL     1      41.271 -13.710   1.626  1.00  0.00     0.063 C 
HETATM   11  H   UNL     1      39.501 -16.234   0.516  1.00  0.00     0.184 HD
ENDROOT
BRANCH  10  12
HETATM   12  C   UNL     1      42.307 -13.321   2.615  1.00  0.00     0.256 C 
HETATM   13  N   UNL     1      41.784 -12.763   3.763  1.00  0.00    -0.323 N 
HETATM   14  H   UNL     1      40.779 -12.645   3.798  1.00  0.00     0.169 HD
HETATM   15  O   UNL     1      43.484 -13.528   2.354  1.00  0.00    -0.267 OA
BRANCH  13  16
HETATM   16  C   UNL     1      42.492 -12.405   4.929  1.00  0.00     0.035 A 
HETATM   17  C   UNL     1      43.042 -13.329   5.823  1.00  0.00     0.031 A 
HETATM   18  C   UNL     1      43.703 -12.897   6.978  1.00  0.00     0.026 A 
HETATM   19  C   UNL     1      43.815 -11.537   7.247  1.00  0.00     0.034 A 
HETATM   20 CL   UNL     1      44.614 -11.007   8.674  1.00  0.00    -0.084 Cl
HETATM   21  C   UNL     1      43.279 -10.604   6.364  1.00  0.00     0.026 A 
HETATM   22  C   UNL     1      42.626 -11.038   5.205  1.00  0.00     0.031 A 
ENDBRANCH  13  16
ENDBRANCH  10  12
BRANCH   9  23
HETATM   23  C   UNL     1      40.237 -11.472   1.059  1.00  0.00     0.005 A 
HETATM   24  C   UNL     1      40.748 -10.167   0.916  1.00  0.00     0.076 A 
HETATM   25  C   UNL     1      40.013  -9.074   1.388  1.00  0.00     0.037 A 
HETATM   26  C   UNL     1      38.784  -9.266   2.024  1.00  0.00     0.003 A 
HETATM   27  C   UNL     1      38.284 -10.551   2.198  1.00  0.00     0.001 A 
HETATM   28  C   UNL     1      39.005 -11.646   1.726  1.00  0.00     0.012 A 
BRANCH  24  29
HETATM   29  O   UNL     1      41.961 -10.064   0.290  1.00  0.00    -0.355 OA
HETATM   30  C   UNL     1      42.007  -9.349  -0.940  1.00  0.00     0.210 C 
ENDBRANCH  24  29
ENDBRANCH   9  23
TORSDOF 4
ENDMDL
MODEL 9
REMARK VINA RESULT:      -7.1      3.706      6.151
REMARK  4 active torsions:
REMARK  status: ('A' for Active; 'I' for Inactive)
REMARK    1  A    between atoms: C_9  and  C_10 
REMARK    2  A    between atoms: C_11  and  O_12 
REMARK    3  A    between atoms: C_18  and  C_19 
REMARK       I    between atoms: C_19  and  N_20 
REMARK    4  A    between atoms: N_20  and  C_21 
ROOT
HETATM    1  C   UNL     1      39.115  -9.524   3.377  1.00  0.00     0.070 C 
HETATM    2  C   UNL     1      40.154 -10.273   4.174  1.00  0.00     0.037 C 
HETATM    3  N   UNL     1      40.333  -9.837   5.485  1.00  0.00    -0.192 N 
HETATM    4  C   UNL     1      41.412 -10.176   6.220  1.00  0.00     0.725 A 
HETATM    5  N   UNL     1      42.263 -11.146   5.761  1.00  0.00    -0.084 N 
HETATM    6  N   UNL     1      43.321 -11.297   6.585  1.00  0.00    -0.149 NA
HETATM    7  C   UNL     1      43.020 -10.409   7.539  1.00  0.00     0.275 A 
HETATM    8  N   UNL     1      41.857  -9.706   7.357  1.00  0.00    -0.054 NA
HETATM    9  C   UNL     1      42.052 -11.900   4.515  1.00  0.00     0.205 C 
HETATM   10  C   UNL     1      40.947 -11.258   3.680  1.00  0.00     0.063 C 
HETATM   11  H   UNL     1      39.798  -9.026   5.785  1.00  0.00     0.184 HD
ENDROOT
BRANCH  10  12
HETATM   12  C   UNL     1      40.922 -11.683   2.258  1.00  0.00     0.256 C 
HETATM   13  N   UNL     1      39.904 -12.569   1.971  1.00  0.00    -0.323 N 
HETATM   14  H   UNL     1      39.317 -12.857   2.744  1.00  0.00     0.169 HD
HETATM   15  O   UNL     1      41.756 -11.229   1.488  1.00  0.00    -0.267 OA
BRANCH  13  16
HETATM   16  C   UNL     1      39.542 -13.060   0.700  1.00  0.00     0.035 A 
HETATM   17  C   UNL     1      39.999 -14.272   0.173  1.00  0.00     0.031 A 
HETATM   18  C   UNL     1      39.622 -14.677  -1.112  1.00  0.00     0.026 A 
HETATM   19  C   UNL     1      38.789 -13.870  -1.879  1.00  0.00     0.034 A 
HETATM   20 CL   UNL     1      38.340 -14.361  -3.464  1.00  0.00    -0.084 Cl
HETATM   21  C   UNL     1      38.321 -12.663  -1.367  1.00  0.00     0.026 A 
HETATM   22  C   UNL     1      38.692 -12.264  -0.078  1.00  0.00     0.031 A 
ENDBRANCH  13  16
ENDBRANCH  10  12
BRANCH   9  23
HETATM   23  C   UNL     1      41.739 -13.366   4.834  1.00  0.00     0.005 A 
HETATM   24  C   UNL     1      42.410 -14.404   4.158  1.00  0.00     0.076 A 
HETATM   25  C   UNL     1      42.126 -15.738   4.472  1.00  0.00     0.037 A 
HETATM   26  C   UNL     1      41.164 -16.052   5.434  1.00  0.00     0.003 A 
HETATM   27  C   UNL     1      40.473 -15.037   6.085  1.00  0.00     0.001 A 
HETATM   28  C   UNL     1      40.753 -13.704   5.785  1.00  0.00     0.012 A 
BRANCH  24  29
HETATM   29  O   UNL     1      43.332 -14.014   3.225  1.00  0.00    -0.355 OA
HETATM   30  C   UNL     1      43.302 -14.666   1.960  1.00  0.00     0.210 C 
ENDBRANCH  24  29
ENDBRANCH   9  23
TORSDOF 4
ENDMDL
MODEL 10
REMARK VINA RESULT:      -7.0     16.442     18.856
REMARK  4 active torsions:
REMARK  status: ('A' for Active; 'I' for Inactive)
REMARK    1  A    between atoms: C_9  and  C_10 
REMARK    2  A    between atoms: C_11  and  O_12 
REMARK    3  A    between atoms: C_18  and  C_19 
REMARK       I    between atoms: C_19  and  N_20 
REMARK    4  A    between atoms: N_20  and  C_21 
ROOT
HETATM    1  C   UNL     1      47.639 -28.052   2.235  1.00  0.00     0.070 C 
HETATM    2  C   UNL     1      46.659 -28.825   1.388  1.00  0.00     0.037 C 
HETATM    3  N   UNL     1      45.365 -28.911   1.895  1.00  0.00    -0.192 N 
HETATM    4  C   UNL     1      44.465 -29.806   1.438  1.00  0.00     0.725 A 
HETATM    5  N   UNL     1      44.740 -30.517   0.300  1.00  0.00    -0.084 N 
HETATM    6  N   UNL     1      43.767 -31.415   0.038  1.00  0.00    -0.149 NA
HETATM    7  C   UNL     1      42.920 -31.161   1.042  1.00  0.00     0.275 A 
HETATM    8  N   UNL     1      43.306 -30.179   1.917  1.00  0.00    -0.054 NA
HETATM    9  C   UNL     1      45.956 -30.334  -0.509  1.00  0.00     0.205 C 
HETATM   10  C   UNL     1      46.976 -29.482   0.243  1.00  0.00     0.063 C 
HETATM   11  H   UNL     1      45.193 -28.499   2.809  1.00  0.00     0.184 HD
ENDROOT
BRANCH  10  12
HETATM   12  C   UNL     1      48.359 -29.563  -0.291  1.00  0.00     0.256 C 
HETATM   13  N   UNL     1      48.990 -30.753   0.007  1.00  0.00    -0.323 N 
HETATM   14  H   UNL     1      48.474 -31.415   0.574  1.00  0.00     0.169 HD
HETATM   15  O   UNL     1      48.804 -28.621  -0.932  1.00  0.00    -0.267 OA
BRANCH  13  16
HETATM   16  C   UNL     1      50.252 -31.181  -0.455  1.00  0.00     0.035 A 
HETATM   17  C   UNL     1      50.835 -30.743  -1.647  1.00  0.00     0.031 A 
HETATM   18  C   UNL     1      52.078 -31.238  -2.056  1.00  0.00     0.026 A 
HETATM   19  C   UNL     1      52.742 -32.179  -1.276  1.00  0.00     0.034 A 
HETATM   20 CL   UNL     1      54.262 -32.800  -1.788  1.00  0.00    -0.084 Cl
HETATM   21  C   UNL     1      52.178 -32.621  -0.083  1.00  0.00     0.026 A 
HETATM   22  C   UNL     1      50.939 -32.117   0.328  1.00  0.00     0.031 A 
ENDBRANCH  13  16
ENDBRANCH  10  12
BRANCH   9  23
HETATM   23  C   UNL     1      45.598 -29.721  -1.866  1.00  0.00     0.005 A 
HETATM   24  C   UNL     1      45.469 -30.535  -3.008  1.00  0.00     0.076 A 
HETATM   25  C   UNL     1      45.124 -29.963  -4.238  1.00  0.00     0.037 A 
HETATM   26  C   UNL     1      44.930 -28.584  -4.350  1.00  0.00     0.003 A 
HETATM   27  C   UNL     1      45.085 -27.767  -3.238  1.00  0.00     0.001 A 
HETATM   28  C   UNL     1      45.422 -28.327  -2.006  1.00  0.00     0.012 A 
BRANCH  24  29
HETATM   29  O   UNL     1      45.682 -31.873  -2.817  1.00  0.00    -0.355 OA
HETATM   30  C   UNL     1      44.667 -32.770  -3.252  1.00  0.00     0.210 C 
ENDBRANCH  24  29
ENDBRANCH   9  23
TORSDOF 4
ENDMDL
