MODEL 1
REMARK VINA RESULT:      -9.1      0.000      0.000
REMARK  7 active torsions:
REMARK  status: ('A' for Active; 'I' for Inactive)
REMARK    1  A    between atoms: O_2  and  C_3 
REMARK    2  A    between atoms: C_4  and  O_5 
REMARK    3  A    between atoms: C_8  and  N_9 
REMARK       I    between atoms: N_9  and  C_10 
REMARK    4  A    between atoms: C_10  and  C_11 
REMARK    5  A    between atoms: C_11  and  N_12 
REMARK    6  A    between atoms: N_20  and  C_21 
REMARK    7  A    between atoms: C_21  and  C_22 
ROOT
HETATM    1  N   UNL     1      44.572 -10.768   6.923  1.00  0.00    -0.063 N 
HETATM    2  H   UNL     1      45.354 -10.174   6.577  1.00  0.00     0.280 HD
HETATM    3  C   UNL     1      44.980 -12.183   6.623  1.00  0.00     0.238 C 
HETATM    4  C   UNL     1      43.812 -13.133   6.867  1.00  0.00     0.069 C 
HETATM    5  C   UNL     1      42.548 -12.693   6.118  1.00  0.00     0.119 C 
HETATM    6  N   UNL     1      41.434 -13.559   6.427  1.00  0.00    -0.324 N 
HETATM    7  C   UNL     1      41.183 -14.465   5.418  1.00  0.00     0.326 C 
HETATM    8  O   UNL     1      40.407 -15.395   5.532  1.00  0.00    -0.247 OA
HETATM    9  N   UNL     1      41.959 -14.140   4.349  1.00  0.00    -0.264 N 
HETATM   10  C   UNL     1      42.726 -13.051   4.632  1.00  0.00     0.256 C 
HETATM   11  O   UNL     1      43.522 -12.486   3.894  1.00  0.00    -0.270 OA
HETATM   12  C   UNL     1      42.197 -11.227   6.349  1.00  0.00     0.069 C 
HETATM   13  C   UNL     1      43.384 -10.300   6.141  1.00  0.00     0.238 C 
HETATM   14  H   UNL     1      40.999 -13.709   7.333  1.00  0.00     0.165 HD
ENDROOT
BRANCH   1  15
HETATM   15  C   UNL     1      44.575 -10.439   8.432  1.00  0.00     0.337 C 
BRANCH  15  16
HETATM   16  C   UNL     1      44.831  -8.941   8.593  1.00  0.00     0.248 C 
HETATM   17  N   UNL     1      44.152  -8.144   9.457  1.00  0.00    -0.326 N 
HETATM   18  H   UNL     1      44.596  -7.233   9.550  1.00  0.00     0.169 HD
HETATM   19  O   UNL     1      45.822  -8.481   8.007  1.00  0.00    -0.271 OA
BRANCH  17  20
HETATM   20  C   UNL     1      43.063  -8.379  10.309  1.00  0.00     0.037 A 
HETATM   21  C   UNL     1      41.728  -8.349   9.919  1.00  0.00     0.069 A 
HETATM   22  C   UNL     1      40.726  -8.680  10.839  1.00  0.00     0.103 A 
HETATM   23  C   UNL     1      41.023  -8.967  12.178  1.00  0.00     0.101 A 
HETATM   24  C   UNL     1      42.358  -8.944  12.577  1.00  0.00     0.042 A 
HETATM   25  C   UNL     1      43.365  -8.645  11.651  1.00  0.00     0.032 A 
BRANCH  22  26
HETATM   26  O   UNL     1      39.425  -8.621  10.406  1.00  0.00    -0.353 OA
HETATM   27  C   UNL     1      39.156  -9.680   9.486  1.00  0.00     0.210 C 
ENDBRANCH  22  26
BRANCH  23  28
HETATM   28  O   UNL     1      39.966  -9.269  12.991  1.00  0.00    -0.353 OA
HETATM   29  C   UNL     1      39.665 -10.649  13.169  1.00  0.00     0.210 C 
ENDBRANCH  23  28
ENDBRANCH  17  20
ENDBRANCH  15  16
ENDBRANCH   1  15
BRANCH   9  30
HETATM   30  C   UNL     1      42.079 -14.952   3.157  1.00  0.00     0.175 C 
BRANCH  30  31
HETATM   31  C   UNL     1      42.803 -16.241   3.488  1.00  0.00    -0.040 A 
HETATM   32  C   UNL     1      42.656 -17.366   2.661  1.00  0.00     0.010 A 
HETATM   33  C   UNL     1      43.250 -18.583   3.003  1.00  0.00     0.024 A 
HETATM   34  C   UNL     1      43.996 -18.682   4.174  1.00  0.00     0.034 A 
HETATM   35 CL   UNL     1      44.705 -20.186   4.611  1.00  0.00    -0.084 Cl
HETATM   36  C   UNL     1      44.158 -17.573   5.003  1.00  0.00     0.024 A 
HETATM   37  C   UNL     1      43.560 -16.356   4.663  1.00  0.00     0.010 A 
ENDBRANCH  30  31
ENDBRANCH   9  30
TORSDOF 7
ENDMDL
MODEL 2
REMARK VINA RESULT:      -9.0      1.567      2.324
REMARK  7 active torsions:
REMARK  status: ('A' for Active; 'I' for Inactive)
REMARK    1  A    between atoms: O_2  and  C_3 
REMARK    2  A    between atoms: C_4  and  O_5 
REMARK    3  A    between atoms: C_8  and  N_9 
REMARK       I    between atoms: N_9  and  C_10 
REMARK    4  A    between atoms: C_10  and  C_11 
REMARK    5  A    between atoms: C_11  and  N_12 
REMARK    6  A    between atoms: N_20  and  C_21 
REMARK    7  A    between atoms: C_21  and  C_22 
ROOT
HETATM    1  N   UNL     1      43.366 -10.400   7.842  1.00  0.00    -0.063 N 
HETATM    2  H   UNL     1      43.101 -10.468   8.846  1.00  0.00     0.280 HD
HETATM    3  C   UNL     1      42.077 -10.519   7.077  1.00  0.00     0.238 C 
HETATM    4  C   UNL     1      42.360 -10.673   5.586  1.00  0.00     0.069 C 
HETATM    5  C   UNL     1      43.343 -11.816   5.303  1.00  0.00     0.119 C 
HETATM    6  N   UNL     1      43.658 -11.892   3.896  1.00  0.00    -0.324 N 
HETATM    7  C   UNL     1      42.976 -12.911   3.263  1.00  0.00     0.326 C 
HETATM    8  O   UNL     1      42.958 -13.054   2.055  1.00  0.00    -0.247 OA
HETATM    9  N   UNL     1      42.345 -13.655   4.211  1.00  0.00    -0.264 N 
HETATM   10  C   UNL     1      42.582 -13.146   5.451  1.00  0.00     0.256 C 
HETATM   11  O   UNL     1      42.181 -13.576   6.524  1.00  0.00    -0.270 OA
HETATM   12  C   UNL     1      44.604 -11.744   6.156  1.00  0.00     0.069 C 
HETATM   13  C   UNL     1      44.304 -11.549   7.633  1.00  0.00     0.238 C 
HETATM   14  H   UNL     1      44.116 -11.188   3.325  1.00  0.00     0.165 HD
ENDROOT
BRANCH   1  15
HETATM   15  C   UNL     1      43.986  -8.987   7.778  1.00  0.00     0.337 C 
BRANCH  15  16
HETATM   16  C   UNL     1      45.231  -8.972   8.664  1.00  0.00     0.248 C 
HETATM   17  N   UNL     1      45.203  -9.115  10.013  1.00  0.00    -0.326 N 
HETATM   18  H   UNL     1      46.137  -9.268  10.390  1.00  0.00     0.169 HD
HETATM   19  O   UNL     1      46.325  -8.986   8.083  1.00  0.00    -0.271 OA
BRANCH  17  20
HETATM   20  C   UNL     1      44.151  -9.212  10.936  1.00  0.00     0.037 A 
HETATM   21  C   UNL     1      43.374  -8.143  11.370  1.00  0.00     0.069 A 
HETATM   22  C   UNL     1      42.296  -8.371  12.234  1.00  0.00     0.103 A 
HETATM   23  C   UNL     1      42.021  -9.647  12.745  1.00  0.00     0.101 A 
HETATM   24  C   UNL     1      42.835 -10.706  12.348  1.00  0.00     0.042 A 
HETATM   25  C   UNL     1      43.894 -10.487  11.459  1.00  0.00     0.032 A 
BRANCH  22  26
HETATM   26  O   UNL     1      41.569  -7.280  12.641  1.00  0.00    -0.353 OA
HETATM   27  C   UNL     1      42.369  -6.423  13.456  1.00  0.00     0.210 C 
ENDBRANCH  22  26
BRANCH  23  28
HETATM   28  O   UNL     1      40.949  -9.754  13.587  1.00  0.00    -0.353 OA
HETATM   29  C   UNL     1      39.809 -10.449  13.092  1.00  0.00     0.210 C 
ENDBRANCH  23  28
ENDBRANCH  17  20
ENDBRANCH  15  16
ENDBRANCH   1  15
BRANCH   9  30
HETATM   30  C   UNL     1      41.412 -14.721   3.916  1.00  0.00     0.175 C 
BRANCH  30  31
HETATM   31  C   UNL     1      42.172 -15.991   3.592  1.00  0.00    -0.040 A 
HETATM   32  C   UNL     1      42.039 -16.590   2.329  1.00  0.00     0.010 A 
HETATM   33  C   UNL     1      42.668 -17.805   2.049  1.00  0.00     0.024 A 
HETATM   34  C   UNL     1      43.433 -18.429   3.031  1.00  0.00     0.034 A 
HETATM   35 CL   UNL     1      44.185 -19.938   2.698  1.00  0.00    -0.084 Cl
HETATM   36  C   UNL     1      43.581 -17.844   4.288  1.00  0.00     0.024 A 
HETATM   37  C   UNL     1      42.949 -16.629   4.569  1.00  0.00     0.010 A 
ENDBRANCH  30  31
ENDBRANCH   9  30
TORSDOF 7
ENDMDL
MODEL 3
REMARK VINA RESULT:      -8.8      3.458      9.535
REMARK  7 active torsions:
REMARK  status: ('A' for Active; 'I' for Inactive)
REMARK    1  A    between atoms: O_2  and  C_3 
REMARK    2  A    between atoms: C_4  and  O_5 
REMARK    3  A    between atoms: C_8  and  N_9 
REMARK       I    between atoms: N_9  and  C_10 
REMARK    4  A    between atoms: C_10  and  C_11 
REMARK    5  A    between atoms: C_11  and  N_12 
REMARK    6  A    between atoms: N_20  and  C_21 
REMARK    7  A    between atoms: C_21  and  C_22 
ROOT
HETATM    1  N   UNL     1      42.344 -13.106   4.535  1.00  0.00    -0.063 N 
HETATM    2  H   UNL     1      42.689 -14.088   4.501  1.00  0.00     0.280 HD
HETATM    3  C   UNL     1      43.577 -12.247   4.534  1.00  0.00     0.238 C 
HETATM    4  C   UNL     1      43.209 -10.795   4.821  1.00  0.00     0.069 C 
HETATM    5  C   UNL     1      42.373 -10.657   6.100  1.00  0.00     0.119 C 
HETATM    6  N   UNL     1      41.968  -9.286   6.309  1.00  0.00    -0.324 N 
HETATM    7  C   UNL     1      42.734  -8.658   7.269  1.00  0.00     0.326 C 
HETATM    8  O   UNL     1      42.683  -7.462   7.488  1.00  0.00    -0.247 OA
HETATM    9  N   UNL     1      43.528  -9.591   7.860  1.00  0.00    -0.264 N 
HETATM   10  C   UNL     1      43.316 -10.816   7.305  1.00  0.00     0.256 C 
HETATM   11  O   UNL     1      43.849 -11.875   7.608  1.00  0.00    -0.270 OA
HETATM   12  C   UNL     1      41.179 -11.605   6.138  1.00  0.00     0.069 C 
HETATM   13  C   UNL     1      41.558 -13.039   5.808  1.00  0.00     0.238 C 
HETATM   14  H   UNL     1      41.379  -8.717   5.710  1.00  0.00     0.165 HD
ENDROOT
BRANCH   1  15
HETATM   15  C   UNL     1      41.534 -13.015   3.222  1.00  0.00     0.337 C 
BRANCH  15  16
HETATM   16  C   UNL     1      40.284 -13.881   3.371  1.00  0.00     0.248 C 
HETATM   17  N   UNL     1      40.310 -15.229   3.530  1.00  0.00    -0.326 N 
HETATM   18  H   UNL     1      39.397 -15.589   3.800  1.00  0.00     0.169 HD
HETATM   19  O   UNL     1      39.208 -13.283   3.510  1.00  0.00    -0.271 OA
BRANCH  17  20
HETATM   20  C   UNL     1      41.353 -16.167   3.512  1.00  0.00     0.037 A 
HETATM   21  C   UNL     1      42.108 -16.536   4.620  1.00  0.00     0.069 A 
HETATM   22  C   UNL     1      43.072 -17.545   4.501  1.00  0.00     0.103 A 
HETATM   23  C   UNL     1      43.359 -18.146   3.268  1.00  0.00     0.101 A 
HETATM   24  C   UNL     1      42.636 -17.735   2.150  1.00  0.00     0.042 A 
HETATM   25  C   UNL     1      41.649 -16.750   2.272  1.00  0.00     0.032 A 
BRANCH  22  26
HETATM   26  O   UNL     1      43.798 -17.862   5.622  1.00  0.00    -0.353 OA
HETATM   27  C   UNL     1      43.199 -17.289   6.784  1.00  0.00     0.210 C 
ENDBRANCH  22  26
BRANCH  23  28
HETATM   28  O   UNL     1      44.325 -19.114   3.265  1.00  0.00    -0.353 OA
HETATM   29  C   UNL     1      43.949 -20.397   2.774  1.00  0.00     0.210 C 
ENDBRANCH  23  28
ENDBRANCH  17  20
ENDBRANCH  15  16
ENDBRANCH   1  15
BRANCH   9  30
HETATM   30  C   UNL     1      44.574  -9.281   8.811  1.00  0.00     0.175 C 
BRANCH  30  31
HETATM   31  C   UNL     1      43.999  -9.257  10.213  1.00  0.00    -0.040 A 
HETATM   32  C   UNL     1      43.807 -10.457  10.917  1.00  0.00     0.010 A 
HETATM   33  C   UNL     1      43.199 -10.453  12.175  1.00  0.00     0.024 A 
HETATM   34  C   UNL     1      42.780  -9.250  12.736  1.00  0.00     0.034 A 
HETATM   35 CL   UNL     1      42.007  -9.246  14.271  1.00  0.00    -0.084 Cl
HETATM   36  C   UNL     1      42.969  -8.049  12.053  1.00  0.00     0.024 A 
HETATM   37  C   UNL     1      43.574  -8.053  10.792  1.00  0.00     0.010 A 
ENDBRANCH  30  31
ENDBRANCH   9  30
TORSDOF 7
ENDMDL
MODEL 4
REMARK VINA RESULT:      -8.8      3.682      9.605
REMARK  7 active torsions:
REMARK  status: ('A' for Active; 'I' for Inactive)
REMARK    1  A    between atoms: O_2  and  C_3 
REMARK    2  A    between atoms: C_4  and  O_5 
REMARK    3  A    between atoms: C_8  and  N_9 
REMARK       I    between atoms: N_9  and  C_10 
REMARK    4  A    between atoms: C_10  and  C_11 
REMARK    5  A    between atoms: C_11  and  N_12 
REMARK    6  A    between atoms: N_20  and  C_21 
REMARK    7  A    between atoms: C_21  and  C_22 
ROOT
HETATM    1  N   UNL     1      41.474 -12.706   4.081  1.00  0.00    -0.063 N 
HETATM    2  H   UNL     1      40.439 -12.807   4.031  1.00  0.00     0.280 HD
HETATM    3  C   UNL     1      41.883 -13.390   5.355  1.00  0.00     0.238 C 
HETATM    4  C   UNL     1      43.350 -13.103   5.661  1.00  0.00     0.069 C 
HETATM    5  C   UNL     1      43.655 -11.600   5.652  1.00  0.00     0.119 C 
HETATM    6  N   UNL     1      45.063 -11.356   5.864  1.00  0.00    -0.324 N 
HETATM    7  C   UNL     1      45.333 -10.955   7.156  1.00  0.00     0.326 C 
HETATM    8  O   UNL     1      46.460 -10.857   7.604  1.00  0.00    -0.247 OA
HETATM    9  N   UNL     1      44.151 -10.736   7.792  1.00  0.00    -0.264 N 
HETATM   10  C   UNL     1      43.107 -10.995   6.957  1.00  0.00     0.256 C 
HETATM   11  O   UNL     1      41.913 -10.887   7.200  1.00  0.00    -0.270 OA
HETATM   12  C   UNL     1      43.147 -10.895   4.400  1.00  0.00     0.069 C 
HETATM   13  C   UNL     1      41.697 -11.225   4.088  1.00  0.00     0.238 C 
HETATM   14  H   UNL     1      45.837 -11.646   5.275  1.00  0.00     0.165 HD
ENDROOT
BRANCH   1  15
HETATM   15  C   UNL     1      41.923 -13.462   2.811  1.00  0.00     0.337 C 
BRANCH  15  16
HETATM   16  C   UNL     1      40.816 -14.442   2.424  1.00  0.00     0.248 C 
HETATM   17  N   UNL     1      40.862 -15.775   2.675  1.00  0.00    -0.326 N 
HETATM   18  H   UNL     1      39.958 -16.216   2.514  1.00  0.00     0.169 HD
HETATM   19  O   UNL     1      39.761 -13.949   2.001  1.00  0.00    -0.271 OA
BRANCH  17  20
HETATM   20  C   UNL     1      41.856 -16.606   3.214  1.00  0.00     0.037 A 
HETATM   21  C   UNL     1      42.194 -16.669   4.561  1.00  0.00     0.069 A 
HETATM   22  C   UNL     1      43.148 -17.596   4.998  1.00  0.00     0.103 A 
HETATM   23  C   UNL     1      43.839 -18.419   4.098  1.00  0.00     0.101 A 
HETATM   24  C   UNL     1      43.534 -18.315   2.742  1.00  0.00     0.042 A 
HETATM   25  C   UNL     1      42.558 -17.411   2.306  1.00  0.00     0.032 A 
BRANCH  22  26
HETATM   26  O   UNL     1      43.453 -17.607   6.336  1.00  0.00    -0.353 OA
HETATM   27  C   UNL     1      44.356 -16.548   6.652  1.00  0.00     0.210 C 
ENDBRANCH  22  26
BRANCH  23  28
HETATM   28  O   UNL     1      44.755 -19.281   4.633  1.00  0.00    -0.353 OA
HETATM   29  C   UNL     1      44.318 -20.615   4.873  1.00  0.00     0.210 C 
ENDBRANCH  23  28
ENDBRANCH  17  20
ENDBRANCH  15  16
ENDBRANCH   1  15
BRANCH   9  30
HETATM   30  C   UNL     1      44.031 -10.448   9.205  1.00  0.00     0.175 C 
BRANCH  30  31
HETATM   31  C   UNL     1      43.492  -9.045   9.396  1.00  0.00    -0.040 A 
HETATM   32  C   UNL     1      44.175  -7.945   8.852  1.00  0.00     0.010 A 
HETATM   33  C   UNL     1      43.733  -6.643   9.095  1.00  0.00     0.024 A 
HETATM   34  C   UNL     1      42.605  -6.432   9.883  1.00  0.00     0.034 A 
HETATM   35 CL   UNL     1      42.076  -4.829  10.206  1.00  0.00    -0.084 Cl
HETATM   36  C   UNL     1      41.911  -7.512  10.425  1.00  0.00     0.024 A 
HETATM   37  C   UNL     1      42.355  -8.817  10.186  1.00  0.00     0.010 A 
ENDBRANCH  30  31
ENDBRANCH   9  30
TORSDOF 7
ENDMDL
MODEL 5
REMARK VINA RESULT:      -8.7      2.257      3.830
REMARK  7 active torsions:
REMARK  status: ('A' for Active; 'I' for Inactive)
REMARK    1  A    between atoms: O_2  and  C_3 
REMARK    2  A    between atoms: C_4  and  O_5 
REMARK    3  A    between atoms: C_8  and  N_9 
REMARK       I    between atoms: N_9  and  C_10 
REMARK    4  A    between atoms: C_10  and  C_11 
REMARK    5  A    between atoms: C_11  and  N_12 
REMARK    6  A    between atoms: N_20  and  C_21 
REMARK    7  A    between atoms: C_21  and  C_22 
ROOT
HETATM    1  N   UNL     1      40.576 -11.777   5.810  1.00  0.00    -0.063 N 
HETATM    2  H   UNL     1      41.220 -11.130   6.311  1.00  0.00     0.280 HD
HETATM    3  C   UNL     1      41.168 -13.147   5.986  1.00  0.00     0.238 C 
HETATM    4  C   UNL     1      40.444 -14.154   5.097  1.00  0.00     0.069 C 
HETATM    5  C   UNL     1      40.395 -13.695   3.634  1.00  0.00     0.119 C 
HETATM    6  N   UNL     1      39.637 -14.622   2.826  1.00  0.00    -0.324 N 
HETATM    7  C   UNL     1      40.451 -15.449   2.080  1.00  0.00     0.326 C 
HETATM    8  O   UNL     1      40.038 -16.411   1.459  1.00  0.00    -0.247 OA
HETATM    9  N   UNL     1      41.732 -15.010   2.200  1.00  0.00    -0.264 N 
HETATM   10  C   UNL     1      41.787 -13.922   3.017  1.00  0.00     0.256 C 
HETATM   11  O   UNL     1      42.775 -13.271   3.328  1.00  0.00    -0.270 OA
HETATM   12  C   UNL     1      39.888 -12.267   3.472  1.00  0.00     0.069 C 
HETATM   13  C   UNL     1      40.592 -11.286   4.395  1.00  0.00     0.238 C 
HETATM   14  H   UNL     1      38.655 -14.863   2.917  1.00  0.00     0.165 HD
ENDROOT
BRANCH   1  15
HETATM   15  C   UNL     1      39.260 -11.575   6.594  1.00  0.00     0.337 C 
BRANCH  15  16
HETATM   16  C   UNL     1      38.901 -10.091   6.547  1.00  0.00     0.248 C 
HETATM   17  N   UNL     1      39.589  -9.123   7.205  1.00  0.00    -0.326 N 
HETATM   18  H   UNL     1      39.312  -8.193   6.895  1.00  0.00     0.169 HD
HETATM   19  O   UNL     1      38.027  -9.757   5.734  1.00  0.00    -0.271 OA
BRANCH  17  20
HETATM   20  C   UNL     1      40.661  -9.168   8.108  1.00  0.00     0.037 A 
HETATM   21  C   UNL     1      41.999  -9.291   7.749  1.00  0.00     0.069 A 
HETATM   22  C   UNL     1      42.993  -9.243   8.734  1.00  0.00     0.103 A 
HETATM   23  C   UNL     1      42.673  -9.153  10.096  1.00  0.00     0.101 A 
HETATM   24  C   UNL     1      41.329  -9.083  10.455  1.00  0.00     0.042 A 
HETATM   25  C   UNL     1      40.334  -9.099   9.470  1.00  0.00     0.032 A 
BRANCH  22  26
HETATM   26  O   UNL     1      44.296  -9.383   8.326  1.00  0.00    -0.353 OA
HETATM   27  C   UNL     1      44.570 -10.741   7.985  1.00  0.00     0.210 C 
ENDBRANCH  22  26
BRANCH  23  28
HETATM   28  O   UNL     1      43.722  -9.122  10.972  1.00  0.00    -0.353 OA
HETATM   29  C   UNL     1      43.488  -8.507  12.235  1.00  0.00     0.210 C 
ENDBRANCH  23  28
ENDBRANCH  17  20
ENDBRANCH  15  16
ENDBRANCH   1  15
BRANCH   9  30
HETATM   30  C   UNL     1      42.883 -15.714   1.678  1.00  0.00     0.175 C 
BRANCH  30  31
HETATM   31  C   UNL     1      43.200 -16.902   2.565  1.00  0.00    -0.040 A 
HETATM   32  C   UNL     1      43.582 -16.703   3.901  1.00  0.00     0.010 A 
HETATM   33  C   UNL     1      43.958 -17.785   4.701  1.00  0.00     0.024 A 
HETATM   34  C   UNL     1      43.954 -19.071   4.169  1.00  0.00     0.034 A 
HETATM   35 CL   UNL     1      44.443 -20.400   5.143  1.00  0.00    -0.084 Cl
HETATM   36  C   UNL     1      43.571 -19.286   2.846  1.00  0.00     0.024 A 
HETATM   37  C   UNL     1      43.198 -18.204   2.044  1.00  0.00     0.010 A 
ENDBRANCH  30  31
ENDBRANCH   9  30
TORSDOF 7
ENDMDL
MODEL 6
REMARK VINA RESULT:      -8.7      3.388      9.365
REMARK  7 active torsions:
REMARK  status: ('A' for Active; 'I' for Inactive)
REMARK    1  A    between atoms: O_2  and  C_3 
REMARK    2  A    between atoms: C_4  and  O_5 
REMARK    3  A    between atoms: C_8  and  N_9 
REMARK       I    between atoms: N_9  and  C_10 
REMARK    4  A    between atoms: C_10  and  C_11 
REMARK    5  A    between atoms: C_11  and  N_12 
REMARK    6  A    between atoms: N_20  and  C_21 
REMARK    7  A    between atoms: C_21  and  C_22 
ROOT
HETATM    1  N   UNL     1      40.591 -13.127   3.831  1.00  0.00    -0.063 N 
HETATM    2  H   UNL     1      39.827 -12.784   3.212  1.00  0.00     0.280 HD
HETATM    3  C   UNL     1      40.190 -12.727   5.223  1.00  0.00     0.238 C 
HETATM    4  C   UNL     1      41.343 -12.964   6.194  1.00  0.00     0.069 C 
HETATM    5  C   UNL     1      42.640 -12.297   5.718  1.00  0.00     0.119 C 
HETATM    6  N   UNL     1      43.736 -12.601   6.608  1.00  0.00    -0.324 N 
HETATM    7  C   UNL     1      44.026 -11.551   7.455  1.00  0.00     0.326 C 
HETATM    8  O   UNL     1      44.793 -11.643   8.394  1.00  0.00    -0.247 OA
HETATM    9  N   UNL     1      43.298 -10.472   7.062  1.00  0.00    -0.264 N 
HETATM   10  C   UNL     1      42.525 -10.786   5.986  1.00  0.00     0.256 C 
HETATM   11  O   UNL     1      41.763 -10.049   5.374  1.00  0.00    -0.270 OA
HETATM   12  C   UNL     1      42.986 -12.629   4.271  1.00  0.00     0.069 C 
HETATM   13  C   UNL     1      41.813 -12.426   3.326  1.00  0.00     0.238 C 
HETATM   14  H   UNL     1      44.131 -13.514   6.814  1.00  0.00     0.165 HD
ENDROOT
BRANCH   1  15
HETATM   15  C   UNL     1      40.524 -14.652   3.591  1.00  0.00     0.337 C 
BRANCH  15  16
HETATM   16  C   UNL     1      40.998 -14.932   2.166  1.00  0.00     0.248 C 
HETATM   17  N   UNL     1      41.896 -15.897   1.842  1.00  0.00    -0.326 N 
HETATM   18  H   UNL     1      41.932 -16.048   0.835  1.00  0.00     0.169 HD
HETATM   19  O   UNL     1      40.400 -14.340   1.256  1.00  0.00    -0.271 OA
BRANCH  17  20
HETATM   20  C   UNL     1      42.664 -16.779   2.617  1.00  0.00     0.037 A 
HETATM   21  C   UNL     1      43.259 -16.457   3.832  1.00  0.00     0.069 A 
HETATM   22  C   UNL     1      43.936 -17.443   4.560  1.00  0.00     0.103 A 
HETATM   23  C   UNL     1      44.103 -18.741   4.058  1.00  0.00     0.101 A 
HETATM   24  C   UNL     1      43.550 -19.044   2.815  1.00  0.00     0.042 A 
HETATM   25  C   UNL     1      42.845 -18.069   2.100  1.00  0.00     0.032 A 
BRANCH  22  26
HETATM   26  O   UNL     1      44.515 -17.069   5.746  1.00  0.00    -0.353 OA
HETATM   27  C   UNL     1      43.526 -16.946   6.768  1.00  0.00     0.210 C 
ENDBRANCH  22  26
BRANCH  23  28
HETATM   28  O   UNL     1      44.788 -19.622   4.848  1.00  0.00    -0.353 OA
HETATM   29  C   UNL     1      44.048 -20.711   5.389  1.00  0.00     0.210 C 
ENDBRANCH  23  28
ENDBRANCH  17  20
ENDBRANCH  15  16
ENDBRANCH   1  15
BRANCH   9  30
HETATM   30  C   UNL     1      43.227  -9.230   7.801  1.00  0.00     0.175 C 
BRANCH  30  31
HETATM   31  C   UNL     1      42.265  -9.381   8.962  1.00  0.00    -0.040 A 
HETATM   32  C   UNL     1      40.886  -9.205   8.764  1.00  0.00     0.010 A 
HETATM   33  C   UNL     1      40.001  -9.257   9.843  1.00  0.00     0.024 A 
HETATM   34  C   UNL     1      40.489  -9.487  11.127  1.00  0.00     0.034 A 
HETATM   35 CL   UNL     1      39.405  -9.525  12.459  1.00  0.00    -0.084 Cl
HETATM   36  C   UNL     1      41.854  -9.672  11.339  1.00  0.00     0.024 A 
HETATM   37  C   UNL     1      42.742  -9.615  10.260  1.00  0.00     0.010 A 
ENDBRANCH  30  31
ENDBRANCH   9  30
TORSDOF 7
ENDMDL
MODEL 7
REMARK VINA RESULT:      -8.4      4.273     10.188
REMARK  7 active torsions:
REMARK  status: ('A' for Active; 'I' for Inactive)
REMARK    1  A    between atoms: O_2  and  C_3 
REMARK    2  A    between atoms: C_4  and  O_5 
REMARK    3  A    between atoms: C_8  and  N_9 
REMARK       I    between atoms: N_9  and  C_10 
REMARK    4  A    between atoms: C_10  and  C_11 
REMARK    5  A    between atoms: C_11  and  N_12 
REMARK    6  A    between atoms: N_20  and  C_21 
REMARK    7  A    between atoms: C_21  and  C_22 
ROOT
HETATM    1  N   UNL     1      44.330  -8.598   9.610  1.00  0.00    -0.063 N 
HETATM    2  H   UNL     1      45.149  -7.966   9.491  1.00  0.00     0.280 HD
HETATM    3  C   UNL     1      43.207  -7.717  10.079  1.00  0.00     0.238 C 
HETATM    4  C   UNL     1      42.017  -8.565  10.517  1.00  0.00     0.069 C 
HETATM    5  C   UNL     1      42.420  -9.634  11.540  1.00  0.00     0.119 C 
HETATM    6  N   UNL     1      41.296 -10.476  11.879  1.00  0.00    -0.324 N 
HETATM    7  C   UNL     1      40.746 -10.144  13.101  1.00  0.00     0.326 C 
HETATM    8  O   UNL     1      39.697 -10.604  13.509  1.00  0.00    -0.247 OA
HETATM    9  N   UNL     1      41.557  -9.231  13.700  1.00  0.00    -0.264 N 
HETATM   10  C   UNL     1      42.620  -8.941  12.900  1.00  0.00     0.256 C 
HETATM   11  O   UNL     1      43.545  -8.176  13.136  1.00  0.00    -0.270 OA
HETATM   12  C   UNL     1      43.624 -10.459  11.100  1.00  0.00     0.069 C 
HETATM   13  C   UNL     1      44.784  -9.598  10.628  1.00  0.00     0.238 C 
HETATM   14  H   UNL     1      40.769 -11.084  11.260  1.00  0.00     0.165 HD
ENDROOT
BRANCH   1  15
HETATM   15  C   UNL     1      44.132  -9.125   8.171  1.00  0.00     0.337 C 
BRANCH  15  16
HETATM   16  C   UNL     1      45.489  -9.582   7.639  1.00  0.00     0.248 C 
HETATM   17  N   UNL     1      45.657 -10.617   6.778  1.00  0.00    -0.326 N 
HETATM   18  H   UNL     1      46.602 -10.638   6.400  1.00  0.00     0.169 HD
HETATM   19  O   UNL     1      46.460  -8.855   7.897  1.00  0.00    -0.271 OA
BRANCH  17  20
HETATM   20  C   UNL     1      44.765 -11.555   6.236  1.00  0.00     0.037 A 
HETATM   21  C   UNL     1      44.192 -11.469   4.972  1.00  0.00     0.069 A 
HETATM   22  C   UNL     1      43.377 -12.507   4.503  1.00  0.00     0.103 A 
HETATM   23  C   UNL     1      43.053 -13.607   5.309  1.00  0.00     0.101 A 
HETATM   24  C   UNL     1      43.587 -13.663   6.595  1.00  0.00     0.042 A 
HETATM   25  C   UNL     1      44.428 -12.642   7.055  1.00  0.00     0.032 A 
BRANCH  22  26
HETATM   26  O   UNL     1      42.828 -12.365   3.254  1.00  0.00    -0.353 OA
HETATM   27  C   UNL     1      42.544 -10.992   2.986  1.00  0.00     0.210 C 
ENDBRANCH  22  26
BRANCH  23  28
HETATM   28  O   UNL     1      42.243 -14.558   4.753  1.00  0.00    -0.353 OA
HETATM   29  C   UNL     1      42.885 -15.665   4.129  1.00  0.00     0.210 C 
ENDBRANCH  23  28
ENDBRANCH  17  20
ENDBRANCH  15  16
ENDBRANCH   1  15
BRANCH   9  30
HETATM   30  C   UNL     1      41.230  -8.539  14.928  1.00  0.00     0.175 C 
BRANCH  30  31
HETATM   31  C   UNL     1      40.750  -7.137  14.611  1.00  0.00    -0.040 A 
HETATM   32  C   UNL     1      41.419  -6.024  15.145  1.00  0.00     0.010 A 
HETATM   33  C   UNL     1      40.934  -4.732  14.929  1.00  0.00     0.024 A 
HETATM   34  C   UNL     1      39.777  -4.545  14.177  1.00  0.00     0.034 A 
HETATM   35 CL   UNL     1      39.164  -2.958  13.934  1.00  0.00    -0.084 Cl
HETATM   36  C   UNL     1      39.104  -5.639  13.635  1.00  0.00     0.024 A 
HETATM   37  C   UNL     1      39.587  -6.933  13.853  1.00  0.00     0.010 A 
ENDBRANCH  30  31
ENDBRANCH   9  30
TORSDOF 7
ENDMDL
MODEL 8
REMARK VINA RESULT:      -8.3      6.507      9.797
REMARK  7 active torsions:
REMARK  status: ('A' for Active; 'I' for Inactive)
REMARK    1  A    between atoms: O_2  and  C_3 
REMARK    2  A    between atoms: C_4  and  O_5 
REMARK    3  A    between atoms: C_8  and  N_9 
REMARK       I    between atoms: N_9  and  C_10 
REMARK    4  A    between atoms: C_10  and  C_11 
REMARK    5  A    between atoms: C_11  and  N_12 
REMARK    6  A    between atoms: N_20  and  C_21 
REMARK    7  A    between atoms: C_21  and  C_22 
ROOT
HETATM    1  N   UNL     1      39.676 -12.700  -0.523  1.00  0.00    -0.063 N 
HETATM    2  H   UNL     1      40.158 -12.073  -1.200  1.00  0.00     0.280 HD
HETATM    3  C   UNL     1      40.017 -12.160   0.838  1.00  0.00     0.238 C 
HETATM    4  C   UNL     1      39.565 -13.133   1.921  1.00  0.00     0.069 C 
HETATM    5  C   UNL     1      40.098 -14.551   1.678  1.00  0.00     0.119 C 
HETATM    6  N   UNL     1      39.593 -15.472   2.670  1.00  0.00    -0.324 N 
HETATM    7  C   UNL     1      40.531 -15.760   3.639  1.00  0.00     0.326 C 
HETATM    8  O   UNL     1      40.274 -16.375   4.657  1.00  0.00    -0.247 OA
HETATM    9  N   UNL     1      41.720 -15.221   3.257  1.00  0.00    -0.264 N 
HETATM   10  C   UNL     1      41.587 -14.573   2.067  1.00  0.00     0.256 C 
HETATM   11  O   UNL     1      42.458 -13.992   1.432  1.00  0.00    -0.270 OA
HETATM   12  C   UNL     1      39.836 -15.053   0.263  1.00  0.00     0.069 C 
HETATM   13  C   UNL     1      40.255 -14.053  -0.802  1.00  0.00     0.238 C 
HETATM   14  H   UNL     1      38.625 -15.728   2.840  1.00  0.00     0.165 HD
ENDROOT
BRANCH   1  15
HETATM   15  C   UNL     1      38.194 -12.493  -0.908  1.00  0.00     0.337 C 
BRANCH  15  16
HETATM   16  C   UNL     1      38.066 -12.665  -2.420  1.00  0.00     0.248 C 
HETATM   17  N   UNL     1      38.529 -11.768  -3.327  1.00  0.00    -0.326 N 
HETATM   18  H   UNL     1      38.518 -12.152  -4.270  1.00  0.00     0.169 HD
HETATM   19  O   UNL     1      37.655 -13.763  -2.821  1.00  0.00    -0.271 OA
BRANCH  17  20
HETATM   20  C   UNL     1      39.116 -10.500  -3.194  1.00  0.00     0.037 A 
HETATM   21  C   UNL     1      38.413  -9.317  -2.996  1.00  0.00     0.069 A 
HETATM   22  C   UNL     1      39.109  -8.118  -2.796  1.00  0.00     0.103 A 
HETATM   23  C   UNL     1      40.507  -8.060  -2.869  1.00  0.00     0.101 A 
HETATM   24  C   UNL     1      41.204  -9.239  -3.121  1.00  0.00     0.042 A 
HETATM   25  C   UNL     1      40.513 -10.445  -3.290  1.00  0.00     0.032 A 
BRANCH  22  26
HETATM   26  O   UNL     1      38.367  -6.978  -2.616  1.00  0.00    -0.353 OA
HETATM   27  C   UNL     1      36.981  -7.243  -2.835  1.00  0.00     0.210 C 
ENDBRANCH  22  26
BRANCH  23  28
HETATM   28  O   UNL     1      41.082  -6.836  -2.666  1.00  0.00    -0.353 OA
HETATM   29  C   UNL     1      42.435  -6.827  -2.221  1.00  0.00     0.210 C 
ENDBRANCH  23  28
ENDBRANCH  17  20
ENDBRANCH  15  16
ENDBRANCH   1  15
BRANCH   9  30
HETATM   30  C   UNL     1      42.902 -15.191   4.091  1.00  0.00     0.175 C 
BRANCH  30  31
HETATM   31  C   UNL     1      43.366 -16.606   4.371  1.00  0.00    -0.040 A 
HETATM   32  C   UNL     1      43.686 -17.467   3.310  1.00  0.00     0.010 A 
HETATM   33  C   UNL     1      44.032 -18.798   3.554  1.00  0.00     0.024 A 
HETATM   34  C   UNL     1      44.060 -19.276   4.862  1.00  0.00     0.034 A 
HETATM   35 CL   UNL     1      44.459 -20.920   5.162  1.00  0.00    -0.084 Cl
HETATM   36  C   UNL     1      43.752 -18.432   5.927  1.00  0.00     0.024 A 
HETATM   37  C   UNL     1      43.402 -17.100   5.683  1.00  0.00     0.010 A 
ENDBRANCH  30  31
ENDBRANCH   9  30
TORSDOF 7
ENDMDL
MODEL 9
REMARK VINA RESULT:      -8.3      3.498      9.578
REMARK  7 active torsions:
REMARK  status: ('A' for Active; 'I' for Inactive)
REMARK    1  A    between atoms: O_2  and  C_3 
REMARK    2  A    between atoms: C_4  and  O_5 
REMARK    3  A    between atoms: C_8  and  N_9 
REMARK       I    between atoms: N_9  and  C_10 
REMARK    4  A    between atoms: C_10  and  C_11 
REMARK    5  A    between atoms: C_11  and  N_12 
REMARK    6  A    between atoms: N_20  and  C_21 
REMARK    7  A    between atoms: C_21  and  C_22 
ROOT
HETATM    1  N   UNL     1      41.875 -12.980   3.645  1.00  0.00    -0.063 N 
HETATM    2  H   UNL     1      42.700 -12.989   3.009  1.00  0.00     0.280 HD
HETATM    3  C   UNL     1      41.236 -11.633   3.454  1.00  0.00     0.238 C 
HETATM    4  C   UNL     1      40.155 -11.408   4.507  1.00  0.00     0.069 C 
HETATM    5  C   UNL     1      40.683 -11.635   5.929  1.00  0.00     0.119 C 
HETATM    6  N   UNL     1      39.625 -11.495   6.903  1.00  0.00    -0.324 N 
HETATM    7  C   UNL     1      39.672 -10.279   7.553  1.00  0.00     0.326 C 
HETATM    8  O   UNL     1      38.789  -9.878   8.287  1.00  0.00    -0.247 OA
HETATM    9  N   UNL     1      40.825  -9.650   7.199  1.00  0.00    -0.264 N 
HETATM   10  C   UNL     1      41.533 -10.414   6.322  1.00  0.00     0.256 C 
HETATM   11  O   UNL     1      42.618 -10.158   5.816  1.00  0.00    -0.270 OA
HETATM   12  C   UNL     1      41.419 -12.960   6.089  1.00  0.00     0.069 C 
HETATM   13  C   UNL     1      42.462 -13.186   5.007  1.00  0.00     0.238 C 
HETATM   14  H   UNL     1      38.784 -12.058   6.988  1.00  0.00     0.165 HD
ENDROOT
BRANCH   1  15
HETATM   15  C   UNL     1      41.032 -14.143   3.077  1.00  0.00     0.337 C 
BRANCH  15  16
HETATM   16  C   UNL     1      41.648 -14.575   1.748  1.00  0.00     0.248 C 
HETATM   17  N   UNL     1      42.446 -15.663   1.601  1.00  0.00    -0.326 N 
HETATM   18  H   UNL     1      42.595 -15.885   0.618  1.00  0.00     0.169 HD
HETATM   19  O   UNL     1      41.259 -13.977   0.735  1.00  0.00    -0.271 OA
BRANCH  17  20
HETATM   20  C   UNL     1      42.983 -16.578   2.519  1.00  0.00     0.037 A 
HETATM   21  C   UNL     1      43.438 -16.253   3.792  1.00  0.00     0.069 A 
HETATM   22  C   UNL     1      43.879 -17.264   4.654  1.00  0.00     0.103 A 
HETATM   23  C   UNL     1      43.951 -18.602   4.241  1.00  0.00     0.101 A 
HETATM   24  C   UNL     1      43.544 -18.915   2.947  1.00  0.00     0.042 A 
HETATM   25  C   UNL     1      43.072 -17.911   2.093  1.00  0.00     0.032 A 
BRANCH  22  26
HETATM   26  O   UNL     1      44.329 -16.886   5.894  1.00  0.00    -0.353 OA
HETATM   27  C   UNL     1      43.233 -16.546   6.742  1.00  0.00     0.210 C 
ENDBRANCH  22  26
BRANCH  23  28
HETATM   28  O   UNL     1      44.405 -19.505   5.162  1.00  0.00    -0.353 OA
HETATM   29  C   UNL     1      44.005 -20.860   4.985  1.00  0.00     0.210 C 
ENDBRANCH  23  28
ENDBRANCH  17  20
ENDBRANCH  15  16
ENDBRANCH   1  15
BRANCH   9  30
HETATM   30  C   UNL     1      41.151  -8.289   7.565  1.00  0.00     0.175 C 
BRANCH  30  31
HETATM   31  C   UNL     1      41.683  -8.255   8.984  1.00  0.00    -0.040 A 
HETATM   32  C   UNL     1      41.037  -7.482   9.961  1.00  0.00     0.010 A 
HETATM   33  C   UNL     1      41.568  -7.376  11.249  1.00  0.00     0.024 A 
HETATM   34  C   UNL     1      42.748  -8.043  11.567  1.00  0.00     0.034 A 
HETATM   35 CL   UNL     1      43.417  -7.892  13.143  1.00  0.00    -0.084 Cl
HETATM   36  C   UNL     1      43.398  -8.821  10.610  1.00  0.00     0.024 A 
HETATM   37  C   UNL     1      42.869  -8.924   9.319  1.00  0.00     0.010 A 
ENDBRANCH  30  31
ENDBRANCH   9  30
TORSDOF 7
ENDMDL
MODEL 10
REMARK VINA RESULT:      -8.2      2.377      3.573
REMARK  7 active torsions:
REMARK  status: ('A' for Active; 'I' for Inactive)
REMARK    1  A    between atoms: O_2  and  C_3 
REMARK    2  A    between atoms: C_4  and  O_5 
REMARK    3  A    between atoms: C_8  and  N_9 
REMARK       I    between atoms: N_9  and  C_10 
REMARK    4  A    between atoms: C_10  and  C_11 
REMARK    5  A    between atoms: C_11  and  N_12 
REMARK    6  A    between atoms: N_20  and  C_21 
REMARK    7  A    between atoms: C_21  and  C_22 
ROOT
HETATM    1  N   UNL     1      40.538 -10.646   4.087  1.00  0.00    -0.063 N 
HETATM    2  H   UNL     1      40.959  -9.963   3.423  1.00  0.00     0.280 HD
HETATM    3  C   UNL     1      41.599 -10.912   5.117  1.00  0.00     0.238 C 
HETATM    4  C   UNL     1      41.187 -12.078   6.011  1.00  0.00     0.069 C 
HETATM    5  C   UNL     1      40.807 -13.320   5.195  1.00  0.00     0.119 C 
HETATM    6  N   UNL     1      40.344 -14.383   6.057  1.00  0.00    -0.324 N 
HETATM    7  C   UNL     1      41.308 -15.350   6.254  1.00  0.00     0.326 C 
HETATM    8  O   UNL     1      41.200 -16.246   7.070  1.00  0.00    -0.247 OA
HETATM    9  N   UNL     1      42.350 -15.092   5.419  1.00  0.00    -0.264 N 
HETATM   10  C   UNL     1      42.105 -13.971   4.686  1.00  0.00     0.256 C 
HETATM   11  O   UNL     1      42.822 -13.465   3.832  1.00  0.00    -0.270 OA
HETATM   12  C   UNL     1      39.804 -13.022   4.086  1.00  0.00     0.069 C 
HETATM   13  C   UNL     1      40.210 -11.832   3.233  1.00  0.00     0.238 C 
HETATM   14  H   UNL     1      39.532 -14.378   6.666  1.00  0.00     0.165 HD
ENDROOT
BRANCH   1  15
HETATM   15  C   UNL     1      39.338  -9.845   4.639  1.00  0.00     0.337 C 
BRANCH  15  16
HETATM   16  C   UNL     1      39.764  -8.384   4.779  1.00  0.00     0.248 C 
HETATM   17  N   UNL     1      40.228  -7.837   5.931  1.00  0.00    -0.326 N 
HETATM   18  H   UNL     1      40.633  -6.917   5.769  1.00  0.00     0.169 HD
HETATM   19  O   UNL     1      39.830  -7.722   3.733  1.00  0.00    -0.271 OA
BRANCH  17  20
HETATM   20  C   UNL     1      40.360  -8.339   7.235  1.00  0.00     0.037 A 
HETATM   21  C   UNL     1      41.559  -8.741   7.813  1.00  0.00     0.069 A 
HETATM   22  C   UNL     1      41.584  -9.150   9.152  1.00  0.00     0.103 A 
HETATM   23  C   UNL     1      40.410  -9.244   9.914  1.00  0.00     0.101 A 
HETATM   24  C   UNL     1      39.204  -8.890   9.313  1.00  0.00     0.042 A 
HETATM   25  C   UNL     1      39.180  -8.450   7.984  1.00  0.00     0.032 A 
BRANCH  22  26
HETATM   26  O   UNL     1      42.790  -9.548   9.670  1.00  0.00    -0.353 OA
HETATM   27  C   UNL     1      43.623  -8.417   9.925  1.00  0.00     0.210 C 
ENDBRANCH  22  26
BRANCH  23  28
HETATM   28  O   UNL     1      40.550  -9.662  11.208  1.00  0.00    -0.353 OA
HETATM   29  C   UNL     1      39.932  -8.864  12.212  1.00  0.00     0.210 C 
ENDBRANCH  23  28
ENDBRANCH  17  20
ENDBRANCH  15  16
ENDBRANCH   1  15
BRANCH   9  30
HETATM   30  C   UNL     1      43.608 -15.805   5.447  1.00  0.00     0.175 C 
BRANCH  30  31
HETATM   31  C   UNL     1      43.540 -16.999   4.517  1.00  0.00    -0.040 A 
HETATM   32  C   UNL     1      44.086 -18.232   4.908  1.00  0.00     0.010 A 
HETATM   33  C   UNL     1      44.104 -19.314   4.025  1.00  0.00     0.024 A 
HETATM   34  C   UNL     1      43.575 -19.170   2.745  1.00  0.00     0.034 A 
HETATM   35 CL   UNL     1      43.621 -20.492   1.648  1.00  0.00    -0.084 Cl
HETATM   36  C   UNL     1      43.023 -17.955   2.343  1.00  0.00     0.024 A 
HETATM   37  C   UNL     1      43.008 -16.870   3.225  1.00  0.00     0.010 A 
ENDBRANCH  30  31
ENDBRANCH   9  30
TORSDOF 7
ENDMDL
