MODEL 1
REMARK VINA RESULT:      -9.0      0.000      0.000
REMARK  8 active torsions:
REMARK  status: ('A' for Active; 'I' for Inactive)
REMARK    1  A    between atoms: C_2  and  C_3 
REMARK    2  A    between atoms: C_3  and  C_4 
REMARK    3  A    between atoms: C_7  and  N_8 
REMARK       I    between atoms: N_8  and  C_9 
REMARK    4  A    between atoms: C_9  and  C_10 
REMARK    5  A    between atoms: C_13  and  N_14 
REMARK       I    between atoms: N_14  and  C_15 
REMARK    6  A    between atoms: C_15  and  C_16 
REMARK    7  A    between atoms: C_16  and  C_17 
REMARK    8  A    between atoms: C_19  and  N_20 
ROOT
HETATM    1  C   UNL     1      44.459 -10.849   8.281  1.00  0.00     0.032 A 
HETATM    2  C   UNL     1      45.495 -10.598   9.189  1.00  0.00     0.019 A 
HETATM    3  C   UNL     1      45.292  -9.733  10.275  1.00  0.00     0.030 A 
HETATM    4  C   UNL     1      44.064  -9.097  10.457  1.00  0.00     0.034 A 
HETATM    5  C   UNL     1      43.042  -9.322   9.528  1.00  0.00     0.030 A 
HETATM    6  C   UNL     1      43.236 -10.189   8.451  1.00  0.00     0.019 A 
ENDROOT
BRANCH   4   7
HETATM    7  N   UNL     1      43.762  -8.233  11.527  1.00  0.00    -0.327 N 
HETATM    8  C   UNL     1      43.078  -8.524  12.689  1.00  0.00     0.223 C 
HETATM    9  O   UNL     1      42.636  -9.619  13.020  1.00  0.00    -0.273 OA
HETATM   10  H   UNL     1      44.140  -7.288  11.436  1.00  0.00     0.169 HD
BRANCH   8  11
HETATM   11  C   UNL     1      42.912  -7.324  13.606  1.00  0.00     0.128 C 
BRANCH  11  12
HETATM   12  C   UNL     1      41.520  -7.326  14.215  1.00  0.00     0.158 C 
HETATM   13  S   UNL     1      40.385  -6.220  13.320  1.00  0.00    -0.077 SA
HETATM   14  C   UNL     1      39.712  -5.655  14.843  1.00  0.00     0.168 C 
HETATM   15  N   UNL     1      40.380  -5.994  15.898  1.00  0.00    -0.189 NA
HETATM   16  C   UNL     1      41.508  -6.719  15.610  1.00  0.00     0.260 C 
HETATM   17  O   UNL     1      42.426  -6.892  16.408  1.00  0.00    -0.270 OA
BRANCH  14  18
HETATM   18  N   UNL     1      38.525  -4.959  14.850  1.00  0.00    -0.360 N 
HETATM   19  C   UNL     1      37.908  -4.417  16.065  1.00  0.00     0.125 C 
HETATM   20  C   UNL     1      37.292  -3.052  15.766  1.00  0.00     0.020 C 
HETATM   21  C   UNL     1      36.308  -3.128  14.601  1.00  0.00     0.003 C 
HETATM   22  C   UNL     1      36.959  -3.779  13.384  1.00  0.00     0.020 C 
HETATM   23  C   UNL     1      37.580  -5.130  13.739  1.00  0.00     0.125 C 
ENDBRANCH  14  18
ENDBRANCH  11  12
ENDBRANCH   8  11
ENDBRANCH   4   7
BRANCH   1  24
HETATM   24  C   UNL     1      44.577 -11.798   7.131  1.00  0.00     0.256 C 
HETATM   25  N   UNL     1      43.685 -12.855   7.123  1.00  0.00    -0.323 N 
HETATM   26  H   UNL     1      43.053 -12.946   7.903  1.00  0.00     0.169 HD
HETATM   27  O   UNL     1      45.420 -11.552   6.274  1.00  0.00    -0.267 OA
BRANCH  25  28
HETATM   28  C   UNL     1      43.485 -13.788   6.081  1.00  0.00     0.035 A 
HETATM   29  C   UNL     1      43.004 -13.454   4.816  1.00  0.00     0.030 A 
HETATM   30  C   UNL     1      42.768 -14.447   3.856  1.00  0.00     0.010 A 
HETATM   31  C   UNL     1      43.027 -15.794   4.132  1.00  0.00    -0.054 A 
HETATM   32  C   UNL     1      43.526 -16.125   5.399  1.00  0.00     0.010 A 
HETATM   33  C   UNL     1      43.748 -15.134   6.362  1.00  0.00     0.030 A 
BRANCH  31  34
HETATM   34  C   UNL     1      42.739 -16.891   3.121  1.00  0.00     0.014 C 
HETATM   35  C   UNL     1      42.886 -16.334   1.700  1.00  0.00     0.015 C 
BRANCH  34  36
HETATM   36  C   UNL     1      43.611 -18.152   3.291  1.00  0.00     0.004 C 
HETATM   37  C   UNL     1      43.256 -19.261   2.309  1.00  0.00     0.006 C 
ENDBRANCH  34  36
ENDBRANCH  31  34
ENDBRANCH  25  28
ENDBRANCH   1  24
TORSDOF 8
ENDMDL
MODEL 2
REMARK VINA RESULT:      -8.7      4.489     13.130
REMARK  8 active torsions:
REMARK  status: ('A' for Active; 'I' for Inactive)
REMARK    1  A    between atoms: C_2  and  C_3 
REMARK    2  A    between atoms: C_3  and  C_4 
REMARK    3  A    between atoms: C_7  and  N_8 
REMARK       I    between atoms: N_8  and  C_9 
REMARK    4  A    between atoms: C_9  and  C_10 
REMARK    5  A    between atoms: C_13  and  N_14 
REMARK       I    between atoms: N_14  and  C_15 
REMARK    6  A    between atoms: C_15  and  C_16 
REMARK    7  A    between atoms: C_16  and  C_17 
REMARK    8  A    between atoms: C_19  and  N_20 
ROOT
HETATM    1  C   UNL     1      44.043 -10.312   8.695  1.00  0.00     0.032 A 
HETATM    2  C   UNL     1      45.103 -11.050   8.154  1.00  0.00     0.019 A 
HETATM    3  C   UNL     1      45.006 -11.586   6.860  1.00  0.00     0.030 A 
HETATM    4  C   UNL     1      43.849 -11.407   6.102  1.00  0.00     0.034 A 
HETATM    5  C   UNL     1      42.777 -10.701   6.659  1.00  0.00     0.030 A 
HETATM    6  C   UNL     1      42.872 -10.158   7.943  1.00  0.00     0.019 A 
ENDROOT
BRANCH   4   7
HETATM    7  N   UNL     1      43.671 -11.888   4.790  1.00  0.00    -0.327 N 
HETATM    8  C   UNL     1      43.104 -13.080   4.390  1.00  0.00     0.223 C 
HETATM    9  O   UNL     1      42.607 -13.932   5.119  1.00  0.00    -0.273 OA
HETATM   10  H   UNL     1      43.968 -11.245   4.054  1.00  0.00     0.169 HD
BRANCH   8  11
HETATM   11  C   UNL     1      43.116 -13.275   2.883  1.00  0.00     0.128 C 
BRANCH  11  12
HETATM   12  C   UNL     1      41.747 -12.953   2.308  1.00  0.00     0.158 C 
HETATM   13  S   UNL     1      41.283 -14.103   0.976  1.00  0.00    -0.077 SA
HETATM   14  C   UNL     1      40.631 -12.769   0.033  1.00  0.00     0.168 C 
HETATM   15  N   UNL     1      40.933 -11.589   0.468  1.00  0.00    -0.189 NA
HETATM   16  C   UNL     1      41.733 -11.616   1.583  1.00  0.00     0.260 C 
HETATM   17  O   UNL     1      42.370 -10.646   1.986  1.00  0.00    -0.270 OA
BRANCH  14  18
HETATM   18  N   UNL     1      39.813 -13.027  -1.043  1.00  0.00    -0.360 N 
HETATM   19  C   UNL     1      40.157 -13.961  -2.121  1.00  0.00     0.125 C 
HETATM   20  C   UNL     1      38.913 -14.735  -2.550  1.00  0.00     0.020 C 
HETATM   21  C   UNL     1      37.778 -13.792  -2.941  1.00  0.00     0.003 C 
HETATM   22  C   UNL     1      37.509 -12.779  -1.832  1.00  0.00     0.020 C 
HETATM   23  C   UNL     1      38.787 -12.047  -1.423  1.00  0.00     0.125 C 
ENDBRANCH  14  18
ENDBRANCH  11  12
ENDBRANCH   8  11
ENDBRANCH   4   7
BRANCH   1  24
HETATM   24  C   UNL     1      44.088  -9.664  10.042  1.00  0.00     0.256 C 
HETATM   25  N   UNL     1      42.864  -9.411  10.634  1.00  0.00    -0.323 N 
HETATM   26  H   UNL     1      42.030  -9.632  10.111  1.00  0.00     0.169 HD
HETATM   27  O   UNL     1      45.191  -9.441  10.530  1.00  0.00    -0.267 OA
BRANCH  25  28
HETATM   28  C   UNL     1      42.637  -8.960  11.954  1.00  0.00     0.035 A 
HETATM   29  C   UNL     1      41.743  -9.558  12.841  1.00  0.00     0.030 A 
HETATM   30  C   UNL     1      41.524  -9.011  14.111  1.00  0.00     0.010 A 
HETATM   31  C   UNL     1      42.209  -7.866  14.532  1.00  0.00    -0.054 A 
HETATM   32  C   UNL     1      43.118  -7.276  13.646  1.00  0.00     0.010 A 
HETATM   33  C   UNL     1      43.327  -7.815  12.371  1.00  0.00     0.030 A 
BRANCH  31  34
HETATM   34  C   UNL     1      41.955  -7.232  15.890  1.00  0.00     0.014 C 
HETATM   35  C   UNL     1      41.554  -5.764  15.707  1.00  0.00     0.015 C 
BRANCH  34  36
HETATM   36  C   UNL     1      40.901  -7.968  16.744  1.00  0.00     0.004 C 
HETATM   37  C   UNL     1      41.111  -7.783  18.242  1.00  0.00     0.006 C 
ENDBRANCH  34  36
ENDBRANCH  31  34
ENDBRANCH  25  28
ENDBRANCH   1  24
TORSDOF 8
ENDMDL
MODEL 3
REMARK VINA RESULT:      -8.5      2.049      2.696
REMARK  8 active torsions:
REMARK  status: ('A' for Active; 'I' for Inactive)
REMARK    1  A    between atoms: C_2  and  C_3 
REMARK    2  A    between atoms: C_3  and  C_4 
REMARK    3  A    between atoms: C_7  and  N_8 
REMARK       I    between atoms: N_8  and  C_9 
REMARK    4  A    between atoms: C_9  and  C_10 
REMARK    5  A    between atoms: C_13  and  N_14 
REMARK       I    between atoms: N_14  and  C_15 
REMARK    6  A    between atoms: C_15  and  C_16 
REMARK    7  A    between atoms: C_16  and  C_17 
REMARK    8  A    between atoms: C_19  and  N_20 
ROOT
HETATM    1  C   UNL     1      43.838 -10.793   7.959  1.00  0.00     0.032 A 
HETATM    2  C   UNL     1      44.557 -10.667   9.154  1.00  0.00     0.019 A 
HETATM    3  C   UNL     1      44.232  -9.656  10.073  1.00  0.00     0.030 A 
HETATM    4  C   UNL     1      43.204  -8.754   9.803  1.00  0.00     0.034 A 
HETATM    5  C   UNL     1      42.511  -8.860   8.592  1.00  0.00     0.030 A 
HETATM    6  C   UNL     1      42.824  -9.869   7.679  1.00  0.00     0.019 A 
ENDROOT
BRANCH   4   7
HETATM    7  N   UNL     1      42.794  -7.726  10.674  1.00  0.00    -0.327 N 
HETATM    8  C   UNL     1      41.583  -7.589  11.320  1.00  0.00     0.223 C 
HETATM    9  O   UNL     1      40.642  -8.376  11.279  1.00  0.00    -0.273 OA
HETATM   10  H   UNL     1      43.508  -7.023  10.875  1.00  0.00     0.169 HD
BRANCH   8  11
HETATM   11  C   UNL     1      41.487  -6.326  12.157  1.00  0.00     0.128 C 
BRANCH  11  12
HETATM   12  C   UNL     1      41.180  -6.683  13.602  1.00  0.00     0.158 C 
HETATM   13  S   UNL     1      40.573  -5.248  14.542  1.00  0.00    -0.077 SA
HETATM   14  C   UNL     1      41.552  -5.721  15.923  1.00  0.00     0.168 C 
HETATM   15  N   UNL     1      42.430  -6.642  15.685  1.00  0.00    -0.189 NA
HETATM   16  C   UNL     1      42.435  -7.054  14.376  1.00  0.00     0.260 C 
HETATM   17  O   UNL     1      43.356  -7.688  13.868  1.00  0.00    -0.270 OA
BRANCH  14  18
HETATM   18  N   UNL     1      41.312  -5.161  17.157  1.00  0.00    -0.360 N 
HETATM   19  C   UNL     1      40.930  -3.759  17.353  1.00  0.00     0.125 C 
HETATM   20  C   UNL     1      39.889  -3.658  18.466  1.00  0.00     0.020 C 
HETATM   21  C   UNL     1      40.387  -4.308  19.754  1.00  0.00     0.003 C 
HETATM   22  C   UNL     1      40.859  -5.735  19.493  1.00  0.00     0.020 C 
HETATM   23  C   UNL     1      41.881  -5.787  18.358  1.00  0.00     0.125 C 
ENDBRANCH  14  18
ENDBRANCH  11  12
ENDBRANCH   8  11
ENDBRANCH   4   7
BRANCH   1  24
HETATM   24  C   UNL     1      44.085 -11.873   6.955  1.00  0.00     0.256 C 
HETATM   25  N   UNL     1      43.165 -12.906   6.937  1.00  0.00    -0.323 N 
HETATM   26  H   UNL     1      42.425 -12.892   7.621  1.00  0.00     0.169 HD
HETATM   27  O   UNL     1      45.050 -11.747   6.208  1.00  0.00    -0.267 OA
BRANCH  25  28
HETATM   28  C   UNL     1      43.082 -13.951   5.990  1.00  0.00     0.035 A 
HETATM   29  C   UNL     1      43.646 -15.213   6.168  1.00  0.00     0.030 A 
HETATM   30  C   UNL     1      43.578 -16.176   5.153  1.00  0.00     0.010 A 
HETATM   31  C   UNL     1      42.925 -15.907   3.945  1.00  0.00    -0.054 A 
HETATM   32  C   UNL     1      42.345 -14.643   3.775  1.00  0.00     0.010 A 
HETATM   33  C   UNL     1      42.425 -13.676   4.784  1.00  0.00     0.030 A 
BRANCH  31  34
HETATM   34  C   UNL     1      42.876 -16.921   2.815  1.00  0.00     0.014 C 
HETATM   35  C   UNL     1      43.277 -16.247   1.498  1.00  0.00     0.015 C 
BRANCH  34  36
HETATM   36  C   UNL     1      43.740 -18.176   3.054  1.00  0.00     0.004 C 
HETATM   37  C   UNL     1      43.323 -19.363   2.196  1.00  0.00     0.006 C 
ENDBRANCH  34  36
ENDBRANCH  31  34
ENDBRANCH  25  28
ENDBRANCH   1  24
TORSDOF 8
ENDMDL
MODEL 4
REMARK VINA RESULT:      -8.4      2.494      3.010
REMARK  8 active torsions:
REMARK  status: ('A' for Active; 'I' for Inactive)
REMARK    1  A    between atoms: C_2  and  C_3 
REMARK    2  A    between atoms: C_3  and  C_4 
REMARK    3  A    between atoms: C_7  and  N_8 
REMARK       I    between atoms: N_8  and  C_9 
REMARK    4  A    between atoms: C_9  and  C_10 
REMARK    5  A    between atoms: C_13  and  N_14 
REMARK       I    between atoms: N_14  and  C_15 
REMARK    6  A    between atoms: C_15  and  C_16 
REMARK    7  A    between atoms: C_16  and  C_17 
REMARK    8  A    between atoms: C_19  and  N_20 
ROOT
HETATM    1  C   UNL     1      44.398 -10.830   8.334  1.00  0.00     0.032 A 
HETATM    2  C   UNL     1      45.410 -10.539   9.257  1.00  0.00     0.019 A 
HETATM    3  C   UNL     1      45.160  -9.672  10.333  1.00  0.00     0.030 A 
HETATM    4  C   UNL     1      43.910  -9.075  10.488  1.00  0.00     0.034 A 
HETATM    5  C   UNL     1      42.912  -9.339   9.544  1.00  0.00     0.030 A 
HETATM    6  C   UNL     1      43.153 -10.208   8.477  1.00  0.00     0.019 A 
ENDROOT
BRANCH   4   7
HETATM    7  N   UNL     1      43.562  -8.214  11.546  1.00  0.00    -0.327 N 
HETATM    8  C   UNL     1      42.921  -8.530  12.727  1.00  0.00     0.223 C 
HETATM    9  O   UNL     1      42.568  -9.647  13.088  1.00  0.00    -0.273 OA
HETATM   10  H   UNL     1      43.865  -7.245  11.429  1.00  0.00     0.169 HD
BRANCH   8  11
HETATM   11  C   UNL     1      42.681  -7.326  13.621  1.00  0.00     0.128 C 
BRANCH  11  12
HETATM   12  C   UNL     1      41.408  -6.612  13.199  1.00  0.00     0.158 C 
HETATM   13  S   UNL     1      40.579  -7.461  11.819  1.00  0.00    -0.077 SA
HETATM   14  C   UNL     1      40.235  -5.915  11.056  1.00  0.00     0.168 C 
HETATM   15  N   UNL     1      40.860  -4.901  11.562  1.00  0.00    -0.189 NA
HETATM   16  C   UNL     1      41.694  -5.246  12.595  1.00  0.00     0.260 C 
HETATM   17  O   UNL     1      42.584  -4.514  13.022  1.00  0.00    -0.270 OA
BRANCH  14  18
HETATM   18  N   UNL     1      39.312  -5.845  10.037  1.00  0.00    -0.360 N 
HETATM   19  C   UNL     1      38.468  -4.673   9.784  1.00  0.00     0.125 C 
HETATM   20  C   UNL     1      38.326  -4.454   8.279  1.00  0.00     0.020 C 
HETATM   21  C   UNL     1      37.802  -5.707   7.582  1.00  0.00     0.003 C 
HETATM   22  C   UNL     1      38.652  -6.922   7.940  1.00  0.00     0.020 C 
HETATM   23  C   UNL     1      38.783  -7.085   9.455  1.00  0.00     0.125 C 
ENDBRANCH  14  18
ENDBRANCH  11  12
ENDBRANCH   8  11
ENDBRANCH   4   7
BRANCH   1  24
HETATM   24  C   UNL     1      44.567 -11.783   7.193  1.00  0.00     0.256 C 
HETATM   25  N   UNL     1      43.593 -12.756   7.068  1.00  0.00    -0.323 N 
HETATM   26  H   UNL     1      42.868 -12.793   7.768  1.00  0.00     0.169 HD
HETATM   27  O   UNL     1      45.523 -11.610   6.444  1.00  0.00    -0.267 OA
BRANCH  25  28
HETATM   28  C   UNL     1      43.435 -13.666   5.998  1.00  0.00     0.035 A 
HETATM   29  C   UNL     1      43.040 -13.298   4.713  1.00  0.00     0.030 A 
HETATM   30  C   UNL     1      42.840 -14.267   3.721  1.00  0.00     0.010 A 
HETATM   31  C   UNL     1      43.051 -15.624   3.987  1.00  0.00    -0.054 A 
HETATM   32  C   UNL     1      43.464 -15.990   5.274  1.00  0.00     0.010 A 
HETATM   33  C   UNL     1      43.650 -15.022   6.269  1.00  0.00     0.030 A 
BRANCH  31  34
HETATM   34  C   UNL     1      42.800 -16.696   2.939  1.00  0.00     0.014 C 
HETATM   35  C   UNL     1      43.110 -16.137   1.545  1.00  0.00     0.015 C 
BRANCH  34  36
HETATM   36  C   UNL     1      43.583 -18.005   3.173  1.00  0.00     0.004 C 
HETATM   37  C   UNL     1      43.155 -19.132   2.243  1.00  0.00     0.006 C 
ENDBRANCH  34  36
ENDBRANCH  31  34
ENDBRANCH  25  28
ENDBRANCH   1  24
TORSDOF 8
ENDMDL
MODEL 5
REMARK VINA RESULT:      -8.4      2.266      3.512
REMARK  8 active torsions:
REMARK  status: ('A' for Active; 'I' for Inactive)
REMARK    1  A    between atoms: C_2  and  C_3 
REMARK    2  A    between atoms: C_3  and  C_4 
REMARK    3  A    between atoms: C_7  and  N_8 
REMARK       I    between atoms: N_8  and  C_9 
REMARK    4  A    between atoms: C_9  and  C_10 
REMARK    5  A    between atoms: C_13  and  N_14 
REMARK       I    between atoms: N_14  and  C_15 
REMARK    6  A    between atoms: C_15  and  C_16 
REMARK    7  A    between atoms: C_16  and  C_17 
REMARK    8  A    between atoms: C_19  and  N_20 
ROOT
HETATM    1  C   UNL     1      43.765 -10.300   8.862  1.00  0.00     0.032 A 
HETATM    2  C   UNL     1      44.518 -10.108  10.027  1.00  0.00     0.019 A 
HETATM    3  C   UNL     1      44.118  -9.161  10.982  1.00  0.00     0.030 A 
HETATM    4  C   UNL     1      42.976  -8.386  10.779  1.00  0.00     0.034 A 
HETATM    5  C   UNL     1      42.245  -8.554   9.598  1.00  0.00     0.030 A 
HETATM    6  C   UNL     1      42.635  -9.502   8.648  1.00  0.00     0.019 A 
ENDROOT
BRANCH   4   7
HETATM    7  N   UNL     1      42.487  -7.431  11.691  1.00  0.00    -0.327 N 
HETATM    8  C   UNL     1      41.384  -7.526  12.514  1.00  0.00     0.223 C 
HETATM    9  O   UNL     1      40.641  -8.495  12.627  1.00  0.00    -0.273 OA
HETATM   10  H   UNL     1      43.054  -6.584  11.771  1.00  0.00     0.169 HD
BRANCH   8  11
HETATM   11  C   UNL     1      41.141  -6.275  13.341  1.00  0.00     0.128 C 
BRANCH  11  12
HETATM   12  C   UNL     1      41.863  -6.387  14.673  1.00  0.00     0.158 C 
HETATM   13  S   UNL     1      41.242  -7.779  15.667  1.00  0.00    -0.077 SA
HETATM   14  C   UNL     1      41.301  -6.788  17.118  1.00  0.00     0.168 C 
HETATM   15  N   UNL     1      41.481  -5.523  16.912  1.00  0.00    -0.189 NA
HETATM   16  C   UNL     1      41.570  -5.202  15.581  1.00  0.00     0.260 C 
HETATM   17  O   UNL     1      41.450  -4.059  15.149  1.00  0.00    -0.270 OA
BRANCH  14  18
HETATM   18  N   UNL     1      41.216  -7.381  18.357  1.00  0.00    -0.360 N 
HETATM   19  C   UNL     1      39.948  -7.695  19.023  1.00  0.00     0.125 C 
HETATM   20  C   UNL     1      40.062  -9.037  19.743  1.00  0.00     0.020 C 
HETATM   21  C   UNL     1      41.243  -9.051  20.710  1.00  0.00     0.003 C 
HETATM   22  C   UNL     1      42.528  -8.634  20.001  1.00  0.00     0.020 C 
HETATM   23  C   UNL     1      42.357  -7.298  19.278  1.00  0.00     0.125 C 
ENDBRANCH  14  18
ENDBRANCH  11  12
ENDBRANCH   8  11
ENDBRANCH   4   7
BRANCH   1  24
HETATM   24  C   UNL     1      44.093 -11.325   7.823  1.00  0.00     0.256 C 
HETATM   25  N   UNL     1      43.042 -12.118   7.401  1.00  0.00    -0.323 N 
HETATM   26  H   UNL     1      42.145 -11.992   7.846  1.00  0.00     0.169 HD
HETATM   27  O   UNL     1      45.245 -11.360   7.402  1.00  0.00    -0.267 OA
BRANCH  25  28
HETATM   28  C   UNL     1      43.051 -13.039   6.329  1.00  0.00     0.035 A 
HETATM   29  C   UNL     1      42.875 -12.683   4.993  1.00  0.00     0.030 A 
HETATM   30  C   UNL     1      42.829 -13.663   3.993  1.00  0.00     0.010 A 
HETATM   31  C   UNL     1      42.979 -15.019   4.304  1.00  0.00    -0.054 A 
HETATM   32  C   UNL     1      43.172 -15.372   5.645  1.00  0.00     0.010 A 
HETATM   33  C   UNL     1      43.204 -14.394   6.646  1.00  0.00     0.030 A 
BRANCH  31  34
HETATM   34  C   UNL     1      42.891 -16.101   3.241  1.00  0.00     0.014 C 
HETATM   35  C   UNL     1      43.532 -15.600   1.941  1.00  0.00     0.015 C 
BRANCH  34  36
HETATM   36  C   UNL     1      43.516 -17.448   3.657  1.00  0.00     0.004 C 
HETATM   37  C   UNL     1      43.513 -18.481   2.537  1.00  0.00     0.006 C 
ENDBRANCH  34  36
ENDBRANCH  31  34
ENDBRANCH  25  28
ENDBRANCH   1  24
TORSDOF 8
ENDMDL
MODEL 6
REMARK VINA RESULT:      -8.4      3.727     13.595
REMARK  8 active torsions:
REMARK  status: ('A' for Active; 'I' for Inactive)
REMARK    1  A    between atoms: C_2  and  C_3 
REMARK    2  A    between atoms: C_3  and  C_4 
REMARK    3  A    between atoms: C_7  and  N_8 
REMARK       I    between atoms: N_8  and  C_9 
REMARK    4  A    between atoms: C_9  and  C_10 
REMARK    5  A    between atoms: C_13  and  N_14 
REMARK       I    between atoms: N_14  and  C_15 
REMARK    6  A    between atoms: C_15  and  C_16 
REMARK    7  A    between atoms: C_16  and  C_17 
REMARK    8  A    between atoms: C_19  and  N_20 
ROOT
HETATM    1  C   UNL     1      42.855  -9.177   8.665  1.00  0.00     0.032 A 
HETATM    2  C   UNL     1      43.839 -10.165   8.538  1.00  0.00     0.019 A 
HETATM    3  C   UNL     1      43.856 -11.007   7.415  1.00  0.00     0.030 A 
HETATM    4  C   UNL     1      42.887 -10.884   6.420  1.00  0.00     0.034 A 
HETATM    5  C   UNL     1      41.883  -9.921   6.568  1.00  0.00     0.030 A 
HETATM    6  C   UNL     1      41.867  -9.075   7.680  1.00  0.00     0.019 A 
ENDROOT
BRANCH   4   7
HETATM    7  N   UNL     1      42.839 -11.667   5.251  1.00  0.00    -0.327 N 
HETATM    8  C   UNL     1      41.937 -12.661   4.928  1.00  0.00     0.223 C 
HETATM    9  O   UNL     1      40.975 -13.019   5.599  1.00  0.00    -0.273 OA
HETATM   10  H   UNL     1      43.540 -11.431   4.546  1.00  0.00     0.169 HD
BRANCH   8  11
HETATM   11  C   UNL     1      42.221 -13.317   3.587  1.00  0.00     0.128 C 
BRANCH  11  12
HETATM   12  C   UNL     1      41.875 -14.795   3.649  1.00  0.00     0.158 C 
HETATM   13  S   UNL     1      43.050 -15.725   4.681  1.00  0.00    -0.077 SA
HETATM   14  C   UNL     1      43.060 -17.037   3.511  1.00  0.00     0.168 C 
HETATM   15  N   UNL     1      42.509 -16.763   2.373  1.00  0.00    -0.189 NA
HETATM   16  C   UNL     1      42.039 -15.476   2.299  1.00  0.00     0.260 C 
HETATM   17  O   UNL     1      41.751 -14.918   1.244  1.00  0.00    -0.270 OA
BRANCH  14  18
HETATM   18  N   UNL     1      43.577 -18.264   3.863  1.00  0.00    -0.360 N 
HETATM   19  C   UNL     1      44.131 -18.563   5.187  1.00  0.00     0.125 C 
HETATM   20  C   UNL     1      43.738 -19.979   5.602  1.00  0.00     0.020 C 
HETATM   21  C   UNL     1      44.158 -21.005   4.552  1.00  0.00     0.003 C 
HETATM   22  C   UNL     1      43.638 -20.612   3.173  1.00  0.00     0.020 C 
HETATM   23  C   UNL     1      44.038 -19.181   2.812  1.00  0.00     0.125 C 
ENDBRANCH  14  18
ENDBRANCH  11  12
ENDBRANCH   8  11
ENDBRANCH   4   7
BRANCH   1  24
HETATM   24  C   UNL     1      42.799  -8.206   9.802  1.00  0.00     0.256 C 
HETATM   25  N   UNL     1      42.178  -8.656  10.953  1.00  0.00    -0.323 N 
HETATM   26  H   UNL     1      41.765  -9.576  10.939  1.00  0.00     0.169 HD
HETATM   27  O   UNL     1      43.334  -7.113   9.645  1.00  0.00    -0.267 OA
BRANCH  25  28
HETATM   28  C   UNL     1      42.134  -8.002  12.205  1.00  0.00     0.035 A 
HETATM   29  C   UNL     1      43.228  -7.882  13.061  1.00  0.00     0.030 A 
HETATM   30  C   UNL     1      43.089  -7.277  14.317  1.00  0.00     0.010 A 
HETATM   31  C   UNL     1      41.858  -6.761  14.737  1.00  0.00    -0.054 A 
HETATM   32  C   UNL     1      40.765  -6.869  13.869  1.00  0.00     0.010 A 
HETATM   33  C   UNL     1      40.901  -7.485  12.619  1.00  0.00     0.030 A 
BRANCH  31  34
HETATM   34  C   UNL     1      41.676  -6.139  16.112  1.00  0.00     0.014 C 
HETATM   35  C   UNL     1      41.025  -4.758  15.971  1.00  0.00     0.015 C 
BRANCH  34  36
HETATM   36  C   UNL     1      40.867  -7.009  17.096  1.00  0.00     0.004 C 
HETATM   37  C   UNL     1      41.728  -7.637  18.185  1.00  0.00     0.006 C 
ENDBRANCH  34  36
ENDBRANCH  31  34
ENDBRANCH  25  28
ENDBRANCH   1  24
TORSDOF 8
ENDMDL
MODEL 7
REMARK VINA RESULT:      -8.3      3.355     13.705
REMARK  8 active torsions:
REMARK  status: ('A' for Active; 'I' for Inactive)
REMARK    1  A    between atoms: C_2  and  C_3 
REMARK    2  A    between atoms: C_3  and  C_4 
REMARK    3  A    between atoms: C_7  and  N_8 
REMARK       I    between atoms: N_8  and  C_9 
REMARK    4  A    between atoms: C_9  and  C_10 
REMARK    5  A    between atoms: C_13  and  N_14 
REMARK       I    between atoms: N_14  and  C_15 
REMARK    6  A    between atoms: C_15  and  C_16 
REMARK    7  A    between atoms: C_16  and  C_17 
REMARK    8  A    between atoms: C_19  and  N_20 
ROOT
HETATM    1  C   UNL     1      41.756  -8.250  13.035  1.00  0.00     0.032 A 
HETATM    2  C   UNL     1      40.897  -8.984  12.209  1.00  0.00     0.019 A 
HETATM    3  C   UNL     1      41.412  -9.738  11.142  1.00  0.00     0.030 A 
HETATM    4  C   UNL     1      42.781  -9.753  10.879  1.00  0.00     0.034 A 
HETATM    5  C   UNL     1      43.633  -8.989  11.683  1.00  0.00     0.030 A 
HETATM    6  C   UNL     1      43.127  -8.245  12.752  1.00  0.00     0.019 A 
ENDROOT
BRANCH   4   7
HETATM    7  N   UNL     1      43.388 -10.495   9.847  1.00  0.00    -0.327 N 
HETATM    8  C   UNL     1      43.361 -10.247   8.490  1.00  0.00     0.223 C 
HETATM    9  O   UNL     1      42.825  -9.295   7.934  1.00  0.00    -0.273 OA
HETATM   10  H   UNL     1      43.948 -11.290  10.162  1.00  0.00     0.169 HD
BRANCH   8  11
HETATM   11  C   UNL     1      44.104 -11.291   7.674  1.00  0.00     0.128 C 
BRANCH  11  12
HETATM   12  C   UNL     1      43.128 -12.048   6.789  1.00  0.00     0.158 C 
HETATM   13  S   UNL     1      43.485 -13.832   6.756  1.00  0.00    -0.077 SA
HETATM   14  C   UNL     1      43.178 -13.876   5.025  1.00  0.00     0.168 C 
HETATM   15  N   UNL     1      43.091 -12.718   4.453  1.00  0.00    -0.189 NA
HETATM   16  C   UNL     1      43.281 -11.674   5.322  1.00  0.00     0.260 C 
HETATM   17  O   UNL     1      43.528 -10.526   4.961  1.00  0.00    -0.270 OA
BRANCH  14  18
HETATM   18  N   UNL     1      42.992 -15.084   4.393  1.00  0.00    -0.360 N 
HETATM   19  C   UNL     1      42.414 -15.220   3.052  1.00  0.00     0.125 C 
HETATM   20  C   UNL     1      43.144 -16.320   2.285  1.00  0.00     0.020 C 
HETATM   21  C   UNL     1      43.133 -17.637   3.056  1.00  0.00     0.003 C 
HETATM   22  C   UNL     1      43.658 -17.438   4.475  1.00  0.00     0.020 C 
HETATM   23  C   UNL     1      42.913 -16.313   5.193  1.00  0.00     0.125 C 
ENDBRANCH  14  18
ENDBRANCH  11  12
ENDBRANCH   8  11
ENDBRANCH   4   7
BRANCH   1  24
HETATM   24  C   UNL     1      41.294  -7.467  14.223  1.00  0.00     0.256 C 
HETATM   25  N   UNL     1      41.556  -8.029  15.459  1.00  0.00    -0.323 N 
HETATM   26  H   UNL     1      41.991  -8.938  15.482  1.00  0.00     0.169 HD
HETATM   27  O   UNL     1      40.758  -6.383  14.016  1.00  0.00    -0.267 OA
BRANCH  25  28
HETATM   28  C   UNL     1      41.369  -7.425  16.723  1.00  0.00     0.035 A 
HETATM   29  C   UNL     1      42.025  -6.268  17.139  1.00  0.00     0.030 A 
HETATM   30  C   UNL     1      41.837  -5.767  18.434  1.00  0.00     0.010 A 
HETATM   31  C   UNL     1      40.973  -6.400  19.334  1.00  0.00    -0.054 A 
HETATM   32  C   UNL     1      40.302  -7.553  18.907  1.00  0.00     0.010 A 
HETATM   33  C   UNL     1      40.501  -8.061  17.618  1.00  0.00     0.030 A 
BRANCH  31  34
HETATM   34  C   UNL     1      40.787  -5.898  20.756  1.00  0.00     0.014 C 
HETATM   35  C   UNL     1      39.771  -6.784  21.487  1.00  0.00     0.015 C 
BRANCH  34  36
HETATM   36  C   UNL     1      42.094  -5.806  21.570  1.00  0.00     0.004 C 
HETATM   37  C   UNL     1      42.636  -7.167  21.987  1.00  0.00     0.006 C 
ENDBRANCH  34  36
ENDBRANCH  31  34
ENDBRANCH  25  28
ENDBRANCH   1  24
TORSDOF 8
ENDMDL
MODEL 8
REMARK VINA RESULT:      -8.3     11.377     15.710
REMARK  8 active torsions:
REMARK  status: ('A' for Active; 'I' for Inactive)
REMARK    1  A    between atoms: C_2  and  C_3 
REMARK    2  A    between atoms: C_3  and  C_4 
REMARK    3  A    between atoms: C_7  and  N_8 
REMARK       I    between atoms: N_8  and  C_9 
REMARK    4  A    between atoms: C_9  and  C_10 
REMARK    5  A    between atoms: C_13  and  N_14 
REMARK       I    between atoms: N_14  and  C_15 
REMARK    6  A    between atoms: C_15  and  C_16 
REMARK    7  A    between atoms: C_16  and  C_17 
REMARK    8  A    between atoms: C_19  and  N_20 
ROOT
HETATM    1  C   UNL     1      40.409 -13.457  -0.649  1.00  0.00     0.032 A 
HETATM    2  C   UNL     1      40.138 -13.658  -2.008  1.00  0.00     0.019 A 
HETATM    3  C   UNL     1      39.924 -12.562  -2.858  1.00  0.00     0.030 A 
HETATM    4  C   UNL     1      39.960 -11.260  -2.361  1.00  0.00     0.034 A 
HETATM    5  C   UNL     1      40.195 -11.063  -0.996  1.00  0.00     0.030 A 
HETATM    6  C   UNL     1      40.417 -12.150  -0.147  1.00  0.00     0.019 A 
ENDROOT
BRANCH   4   7
HETATM    7  N   UNL     1      39.780 -10.101  -3.141  1.00  0.00    -0.327 N 
HETATM    8  C   UNL     1      38.596  -9.477  -3.478  1.00  0.00     0.223 C 
HETATM    9  O   UNL     1      37.471  -9.804  -3.117  1.00  0.00    -0.273 OA
HETATM   10  H   UNL     1      40.645  -9.656  -3.456  1.00  0.00     0.169 HD
BRANCH   8  11
HETATM   11  C   UNL     1      38.790  -8.263  -4.370  1.00  0.00     0.128 C 
BRANCH  11  12
HETATM   12  C   UNL     1      39.901  -8.528  -5.372  1.00  0.00     0.158 C 
HETATM   13  S   UNL     1      41.174  -7.227  -5.335  1.00  0.00    -0.077 SA
HETATM   14  C   UNL     1      41.263  -7.246  -7.091  1.00  0.00     0.168 C 
HETATM   15  N   UNL     1      40.317  -7.899  -7.683  1.00  0.00    -0.189 NA
HETATM   16  C   UNL     1      39.407  -8.437  -6.808  1.00  0.00     0.260 C 
HETATM   17  O   UNL     1      38.296  -8.838  -7.145  1.00  0.00    -0.270 OA
BRANCH  14  18
HETATM   18  N   UNL     1      42.323  -6.641  -7.728  1.00  0.00    -0.360 N 
HETATM   19  C   UNL     1      42.815  -5.301  -7.395  1.00  0.00     0.125 C 
HETATM   20  C   UNL     1      44.341  -5.277  -7.472  1.00  0.00     0.020 C 
HETATM   21  C   UNL     1      44.836  -5.754  -8.836  1.00  0.00     0.003 C 
HETATM   22  C   UNL     1      44.232  -7.110  -9.187  1.00  0.00     0.020 C 
HETATM   23  C   UNL     1      42.708  -7.089  -9.073  1.00  0.00     0.125 C 
ENDBRANCH  14  18
ENDBRANCH  11  12
ENDBRANCH   8  11
ENDBRANCH   4   7
BRANCH   1  24
HETATM   24  C   UNL     1      40.701 -14.567   0.310  1.00  0.00     0.256 C 
HETATM   25  N   UNL     1      41.963 -14.562   0.876  1.00  0.00    -0.323 N 
HETATM   26  H   UNL     1      42.613 -13.850   0.577  1.00  0.00     0.169 HD
HETATM   27  O   UNL     1      39.802 -15.366   0.548  1.00  0.00    -0.267 OA
BRANCH  25  28
HETATM   28  C   UNL     1      42.429 -15.394   1.919  1.00  0.00     0.035 A 
HETATM   29  C   UNL     1      42.406 -15.043   3.267  1.00  0.00     0.030 A 
HETATM   30  C   UNL     1      42.948 -15.896   4.237  1.00  0.00     0.010 A 
HETATM   31  C   UNL     1      43.507 -17.129   3.882  1.00  0.00    -0.054 A 
HETATM   32  C   UNL     1      43.514 -17.486   2.528  1.00  0.00     0.010 A 
HETATM   33  C   UNL     1      42.985 -16.627   1.558  1.00  0.00     0.030 A 
BRANCH  31  34
HETATM   34  C   UNL     1      44.138 -18.050   4.913  1.00  0.00     0.014 C 
HETATM   35  C   UNL     1      43.355 -17.966   6.228  1.00  0.00     0.015 C 
BRANCH  34  36
HETATM   36  C   UNL     1      44.257 -19.520   4.458  1.00  0.00     0.004 C 
HETATM   37  C   UNL     1      43.915 -20.516   5.558  1.00  0.00     0.006 C 
ENDBRANCH  34  36
ENDBRANCH  31  34
ENDBRANCH  25  28
ENDBRANCH   1  24
TORSDOF 8
ENDMDL
MODEL 9
REMARK VINA RESULT:      -8.2      3.134     13.303
REMARK  8 active torsions:
REMARK  status: ('A' for Active; 'I' for Inactive)
REMARK    1  A    between atoms: C_2  and  C_3 
REMARK    2  A    between atoms: C_3  and  C_4 
REMARK    3  A    between atoms: C_7  and  N_8 
REMARK       I    between atoms: N_8  and  C_9 
REMARK    4  A    between atoms: C_9  and  C_10 
REMARK    5  A    between atoms: C_13  and  N_14 
REMARK       I    between atoms: N_14  and  C_15 
REMARK    6  A    between atoms: C_15  and  C_16 
REMARK    7  A    between atoms: C_16  and  C_17 
REMARK    8  A    between atoms: C_19  and  N_20 
ROOT
HETATM    1  C   UNL     1      42.701  -8.038  11.661  1.00  0.00     0.032 A 
HETATM    2  C   UNL     1      42.345  -7.760  10.336  1.00  0.00     0.019 A 
HETATM    3  C   UNL     1      42.629  -8.683   9.317  1.00  0.00     0.030 A 
HETATM    4  C   UNL     1      43.283  -9.880   9.605  1.00  0.00     0.034 A 
HETATM    5  C   UNL     1      43.670 -10.139  10.924  1.00  0.00     0.030 A 
HETATM    6  C   UNL     1      43.383  -9.228  11.943  1.00  0.00     0.019 A 
ENDROOT
BRANCH   4   7
HETATM    7  N   UNL     1      43.588 -10.873   8.654  1.00  0.00    -0.327 N 
HETATM    8  C   UNL     1      44.657 -10.918   7.783  1.00  0.00     0.223 C 
HETATM    9  O   UNL     1      45.572 -10.104   7.709  1.00  0.00    -0.273 OA
HETATM   10  H   UNL     1      42.951 -11.672   8.648  1.00  0.00     0.169 HD
BRANCH   8  11
HETATM   11  C   UNL     1      44.639 -12.133   6.872  1.00  0.00     0.128 C 
BRANCH  11  12
HETATM   12  C   UNL     1      43.495 -12.019   5.878  1.00  0.00     0.158 C 
HETATM   13  S   UNL     1      42.526 -13.556   5.778  1.00  0.00    -0.077 SA
HETATM   14  C   UNL     1      42.431 -13.399   4.030  1.00  0.00     0.168 C 
HETATM   15  N   UNL     1      43.217 -12.510   3.514  1.00  0.00    -0.189 NA
HETATM   16  C   UNL     1      43.994 -11.873   4.449  1.00  0.00     0.260 C 
HETATM   17  O   UNL     1      44.995 -11.219   4.167  1.00  0.00    -0.270 OA
BRANCH  14  18
HETATM   18  N   UNL     1      41.522 -14.153   3.323  1.00  0.00    -0.360 N 
HETATM   19  C   UNL     1      40.427 -13.579   2.534  1.00  0.00     0.125 C 
HETATM   20  C   UNL     1      40.245 -14.378   1.246  1.00  0.00     0.020 C 
HETATM   21  C   UNL     1      40.033 -15.862   1.537  1.00  0.00     0.003 C 
HETATM   22  C   UNL     1      41.144 -16.402   2.433  1.00  0.00     0.020 C 
HETATM   23  C   UNL     1      41.302 -15.557   3.696  1.00  0.00     0.125 C 
ENDBRANCH  14  18
ENDBRANCH  11  12
ENDBRANCH   8  11
ENDBRANCH   4   7
BRANCH   1  24
HETATM   24  C   UNL     1      42.387  -7.133  12.810  1.00  0.00     0.256 C 
HETATM   25  N   UNL     1      41.701  -7.709  13.864  1.00  0.00    -0.323 N 
HETATM   26  H   UNL     1      41.418  -8.673  13.775  1.00  0.00     0.169 HD
HETATM   27  O   UNL     1      42.787  -5.975  12.749  1.00  0.00    -0.267 OA
BRANCH  25  28
HETATM   28  C   UNL     1      41.428  -7.121  15.120  1.00  0.00     0.035 A 
HETATM   29  C   UNL     1      42.373  -6.974  16.135  1.00  0.00     0.030 A 
HETATM   30  C   UNL     1      42.008  -6.442  17.378  1.00  0.00     0.010 A 
HETATM   31  C   UNL     1      40.696  -6.026  17.629  1.00  0.00    -0.054 A 
HETATM   32  C   UNL     1      39.752  -6.160  16.602  1.00  0.00     0.010 A 
HETATM   33  C   UNL     1      40.114  -6.705  15.364  1.00  0.00     0.030 A 
BRANCH  31  34
HETATM   34  C   UNL     1      40.269  -5.486  18.983  1.00  0.00     0.014 C 
HETATM   35  C   UNL     1      40.632  -6.495  20.079  1.00  0.00     0.015 C 
BRANCH  34  36
HETATM   36  C   UNL     1      40.854  -4.099  19.324  1.00  0.00     0.004 C 
HETATM   37  C   UNL     1      41.090  -3.899  20.815  1.00  0.00     0.006 C 
ENDBRANCH  34  36
ENDBRANCH  31  34
ENDBRANCH  25  28
ENDBRANCH   1  24
TORSDOF 8
ENDMDL
MODEL 10
REMARK VINA RESULT:      -8.1      2.973      3.713
REMARK  8 active torsions:
REMARK  status: ('A' for Active; 'I' for Inactive)
REMARK    1  A    between atoms: C_2  and  C_3 
REMARK    2  A    between atoms: C_3  and  C_4 
REMARK    3  A    between atoms: C_7  and  N_8 
REMARK       I    between atoms: N_8  and  C_9 
REMARK    4  A    between atoms: C_9  and  C_10 
REMARK    5  A    between atoms: C_13  and  N_14 
REMARK       I    between atoms: N_14  and  C_15 
REMARK    6  A    between atoms: C_15  and  C_16 
REMARK    7  A    between atoms: C_16  and  C_17 
REMARK    8  A    between atoms: C_19  and  N_20 
ROOT
HETATM    1  C   UNL     1      40.797 -12.220   5.769  1.00  0.00     0.032 A 
HETATM    2  C   UNL     1      41.747 -11.276   6.179  1.00  0.00     0.019 A 
HETATM    3  C   UNL     1      41.357 -10.163   6.941  1.00  0.00     0.030 A 
HETATM    4  C   UNL     1      40.019  -9.972   7.286  1.00  0.00     0.034 A 
HETATM    5  C   UNL     1      39.068 -10.897   6.844  1.00  0.00     0.030 A 
HETATM    6  C   UNL     1      39.452 -12.010   6.093  1.00  0.00     0.019 A 
ENDROOT
BRANCH   4   7
HETATM    7  N   UNL     1      39.541  -8.900   8.064  1.00  0.00    -0.327 N 
HETATM    8  C   UNL     1      39.409  -8.838   9.436  1.00  0.00     0.223 C 
HETATM    9  O   UNL     1      39.728  -9.707  10.240  1.00  0.00    -0.273 OA
HETATM   10  H   UNL     1      39.305  -8.058   7.537  1.00  0.00     0.169 HD
BRANCH   8  11
HETATM   11  C   UNL     1      38.821  -7.525   9.924  1.00  0.00     0.128 C 
BRANCH  11  12
HETATM   12  C   UNL     1      39.097  -7.353  11.408  1.00  0.00     0.158 C 
HETATM   13  S   UNL     1      37.661  -6.669  12.292  1.00  0.00    -0.077 SA
HETATM   14  C   UNL     1      38.718  -5.623  13.229  1.00  0.00     0.168 C 
HETATM   15  N   UNL     1      39.936  -5.547  12.801  1.00  0.00    -0.189 NA
HETATM   16  C   UNL     1      40.156  -6.293  11.671  1.00  0.00     0.260 C 
HETATM   17  O   UNL     1      41.132  -6.146  10.940  1.00  0.00    -0.270 OA
BRANCH  14  18
HETATM   18  N   UNL     1      38.240  -5.005  14.362  1.00  0.00    -0.360 N 
HETATM   19  C   UNL     1      38.463  -5.511  15.721  1.00  0.00     0.125 C 
HETATM   20  C   UNL     1      38.715  -4.342  16.672  1.00  0.00     0.020 C 
HETATM   21  C   UNL     1      37.581  -3.322  16.612  1.00  0.00     0.003 C 
HETATM   22  C   UNL     1      37.318  -2.887  15.174  1.00  0.00     0.020 C 
HETATM   23  C   UNL     1      37.095  -4.090  14.258  1.00  0.00     0.125 C 
ENDBRANCH  14  18
ENDBRANCH  11  12
ENDBRANCH   8  11
ENDBRANCH   4   7
BRANCH   1  24
HETATM   24  C   UNL     1      41.138 -13.458   5.002  1.00  0.00     0.256 C 
HETATM   25  N   UNL     1      42.336 -14.065   5.333  1.00  0.00    -0.323 N 
HETATM   26  H   UNL     1      42.918 -13.617   6.025  1.00  0.00     0.169 HD
HETATM   27  O   UNL     1      40.325 -13.858   4.175  1.00  0.00    -0.267 OA
BRANCH  25  28
HETATM   28  C   UNL     1      42.808 -15.317   4.878  1.00  0.00     0.035 A 
HETATM   29  C   UNL     1      42.904 -15.673   3.534  1.00  0.00     0.030 A 
HETATM   30  C   UNL     1      43.318 -16.958   3.163  1.00  0.00     0.010 A 
HETATM   31  C   UNL     1      43.665 -17.911   4.128  1.00  0.00    -0.054 A 
HETATM   32  C   UNL     1      43.583 -17.546   5.477  1.00  0.00     0.010 A 
HETATM   33  C   UNL     1      43.156 -16.265   5.847  1.00  0.00     0.030 A 
BRANCH  31  34
HETATM   34  C   UNL     1      44.076 -19.324   3.749  1.00  0.00     0.014 C 
HETATM   35  C   UNL     1      44.221 -20.176   5.016  1.00  0.00     0.015 C 
BRANCH  34  36
HETATM   36  C   UNL     1      43.123 -20.014   2.751  1.00  0.00     0.004 C 
HETATM   37  C   UNL     1      43.826 -20.495   1.488  1.00  0.00     0.006 C 
ENDBRANCH  34  36
ENDBRANCH  31  34
ENDBRANCH  25  28
ENDBRANCH   1  24
TORSDOF 8
ENDMDL
