MODEL 1
REMARK VINA RESULT:      -8.9      0.000      0.000
REMARK  3 active torsions:
REMARK  status: ('A' for Active; 'I' for Inactive)
REMARK    1  A    between atoms: C_5  and  C_6 
REMARK    2  A    between atoms: C_6  and  N_7 
REMARK    3  A    between atoms: C_11  and  C_12 
ROOT
HETATM    1  N   UNL     1      41.191 -14.250   6.060  1.00  0.00    -0.066 N 
HETATM    2  H   UNL     1      41.341 -13.918   7.020  1.00  0.00     0.280 HD
HETATM    3  C   UNL     1      40.921 -15.737   6.125  1.00  0.00     0.236 C 
HETATM    4  C   UNL     1      42.102 -16.427   6.791  1.00  0.00     0.037 C 
HETATM    5  C   UNL     1      43.418 -16.188   6.033  1.00  0.00     0.024 C 
HETATM    6  C   UNL     1      43.641 -14.678   5.866  1.00  0.00     0.037 C 
HETATM    7  C   UNL     1      42.441 -13.944   5.275  1.00  0.00     0.236 C 
ENDROOT
BRANCH   1   8
HETATM    8  C   UNL     1      40.007 -13.473   5.520  1.00  0.00     0.293 C 
BRANCH   8   9
HETATM    9  C   UNL     1      40.204 -12.988   4.139  1.00  0.00     0.061 A 
HETATM   10  N   UNL     1      40.163 -13.797   3.012  1.00  0.00    -0.307 N 
HETATM   11  C   UNL     1      40.398 -12.964   1.918  1.00  0.00     0.139 A 
HETATM   12  C   UNL     1      39.942 -15.167   2.884  1.00  0.00     0.099 A 
HETATM   13  C   UNL     1      40.403 -13.543   0.603  1.00  0.00    -0.016 A 
HETATM   14  N   UNL     1      40.597 -11.720   2.302  1.00  0.00    -0.240 NA
HETATM   15  C   UNL     1      40.650 -12.725  -0.638  1.00  0.00     0.052 C 
HETATM   16  C   UNL     1      40.183 -14.876   0.502  1.00  0.00     0.012 A 
HETATM   17  C   UNL     1      39.948 -15.720   1.660  1.00  0.00     0.018 A 
HETATM   18  C   UNL     1      40.514 -11.730   3.660  1.00  0.00     0.146 A 
ENDBRANCH   8   9
ENDBRANCH   1   8
BRANCH   5  19
HETATM   19  C   UNL     1      43.492 -16.987   4.750  1.00  0.00    -0.024 A 
HETATM   20  C   UNL     1      43.684 -18.414   4.668  1.00  0.00     0.018 A 
HETATM   21  C   UNL     1      43.684 -18.757   3.322  1.00  0.00     0.138 A 
HETATM   22  C   UNL     1      43.862 -19.465   5.586  1.00  0.00     0.017 A 
HETATM   23  N   UNL     1      43.807 -19.981   2.782  1.00  0.00    -0.242 NA
HETATM   24  N   UNL     1      43.553 -17.614   2.594  1.00  0.00    -0.350 N 
HETATM   25  C   UNL     1      43.968 -20.953   3.706  1.00  0.00     0.119 A 
HETATM   26  C   UNL     1      44.005 -20.759   5.080  1.00  0.00     0.020 A 
HETATM   27  H   UNL     1      43.567 -17.597   1.584  1.00  0.00     0.166 HD
HETATM   28  C   UNL     1      43.446 -16.535   3.439  1.00  0.00     0.098 A 
ENDBRANCH   5  19
TORSDOF 3
ENDMDL
MODEL 2
REMARK VINA RESULT:      -8.8      3.802      7.763
REMARK  3 active torsions:
REMARK  status: ('A' for Active; 'I' for Inactive)
REMARK    1  A    between atoms: C_5  and  C_6 
REMARK    2  A    between atoms: C_6  and  N_7 
REMARK    3  A    between atoms: C_11  and  C_12 
ROOT
HETATM    1  N   UNL     1      42.894 -13.768   5.353  1.00  0.00    -0.066 N 
HETATM    2  H   UNL     1      43.573 -13.992   4.616  1.00  0.00     0.280 HD
HETATM    3  C   UNL     1      42.250 -12.446   4.996  1.00  0.00     0.236 C 
HETATM    4  C   UNL     1      43.332 -11.384   4.874  1.00  0.00     0.037 C 
HETATM    5  C   UNL     1      44.133 -11.218   6.175  1.00  0.00     0.024 C 
HETATM    6  C   UNL     1      44.697 -12.582   6.602  1.00  0.00     0.037 C 
HETATM    7  C   UNL     1      43.649 -13.688   6.655  1.00  0.00     0.236 C 
ENDROOT
BRANCH   1   8
HETATM    8  C   UNL     1      41.895 -14.909   5.373  1.00  0.00     0.293 C 
BRANCH   8   9
HETATM    9  C   UNL     1      42.515 -16.226   5.620  1.00  0.00     0.061 A 
HETATM   10  N   UNL     1      42.941 -17.091   4.621  1.00  0.00    -0.307 N 
HETATM   11  C   UNL     1      43.460 -18.214   5.265  1.00  0.00     0.139 A 
HETATM   12  C   UNL     1      42.906 -16.965   3.233  1.00  0.00     0.099 A 
HETATM   13  C   UNL     1      43.988 -19.283   4.461  1.00  0.00    -0.016 A 
HETATM   14  N   UNL     1      43.361 -18.101   6.573  1.00  0.00    -0.240 NA
HETATM   15  C   UNL     1      44.567 -20.536   5.065  1.00  0.00     0.052 C 
HETATM   16  C   UNL     1      43.946 -19.137   3.115  1.00  0.00     0.012 A 
HETATM   17  C   UNL     1      43.393 -17.958   2.472  1.00  0.00     0.018 A 
HETATM   18  C   UNL     1      42.755 -16.904   6.800  1.00  0.00     0.146 A 
ENDBRANCH   8   9
ENDBRANCH   1   8
BRANCH   5  19
HETATM   19  C   UNL     1      43.345 -10.494   7.244  1.00  0.00    -0.024 A 
HETATM   20  C   UNL     1      43.851 -10.119   8.541  1.00  0.00     0.018 A 
HETATM   21  C   UNL     1      42.826  -9.468   9.216  1.00  0.00     0.138 A 
HETATM   22  C   UNL     1      45.069 -10.260   9.231  1.00  0.00     0.017 A 
HETATM   23  N   UNL     1      42.859  -8.927  10.446  1.00  0.00    -0.242 NA
HETATM   24  N   UNL     1      41.723  -9.474   8.417  1.00  0.00    -0.350 N 
HETATM   25  C   UNL     1      44.053  -9.084  11.060  1.00  0.00     0.119 A 
HETATM   26  C   UNL     1      45.158  -9.725  10.518  1.00  0.00     0.020 A 
HETATM   27  H   UNL     1      40.831  -9.094   8.703  1.00  0.00     0.166 HD
HETATM   28  C   UNL     1      42.014 -10.098   7.227  1.00  0.00     0.098 A 
ENDBRANCH   5  19
TORSDOF 3
ENDMDL
MODEL 3
REMARK VINA RESULT:      -8.8      2.054      4.332
REMARK  3 active torsions:
REMARK  status: ('A' for Active; 'I' for Inactive)
REMARK    1  A    between atoms: C_5  and  C_6 
REMARK    2  A    between atoms: C_6  and  N_7 
REMARK    3  A    between atoms: C_11  and  C_12 
ROOT
HETATM    1  N   UNL     1      41.339 -13.799   2.395  1.00  0.00    -0.066 N 
HETATM    2  H   UNL     1      41.117 -13.539   1.426  1.00  0.00     0.280 HD
HETATM    3  C   UNL     1      42.842 -13.943   2.499  1.00  0.00     0.236 C 
HETATM    4  C   UNL     1      43.310 -14.993   1.503  1.00  0.00     0.037 C 
HETATM    5  C   UNL     1      42.656 -16.362   1.751  1.00  0.00     0.024 C 
HETATM    6  C   UNL     1      41.128 -16.201   1.757  1.00  0.00     0.037 C 
HETATM    7  C   UNL     1      40.633 -15.099   2.687  1.00  0.00     0.236 C 
ENDROOT
BRANCH   1   8
HETATM    8  C   UNL     1      40.805 -12.681   3.269  1.00  0.00     0.293 C 
BRANCH   8   9
HETATM    9  C   UNL     1      41.860 -11.970   4.019  1.00  0.00     0.061 A 
HETATM   10  N   UNL     1      42.472 -12.458   5.165  1.00  0.00    -0.307 N 
HETATM   11  C   UNL     1      43.398 -11.494   5.562  1.00  0.00     0.139 A 
HETATM   12  C   UNL     1      42.278 -13.650   5.861  1.00  0.00     0.099 A 
HETATM   13  C   UNL     1      44.192 -11.746   6.733  1.00  0.00    -0.016 A 
HETATM   14  N   UNL     1      43.377 -10.454   4.754  1.00  0.00    -0.240 NA
HETATM   15  C   UNL     1      45.216 -10.763   7.240  1.00  0.00     0.052 C 
HETATM   16  C   UNL     1      43.989 -12.912   7.392  1.00  0.00     0.012 A 
HETATM   17  C   UNL     1      43.011 -13.895   6.959  1.00  0.00     0.018 A 
HETATM   18  C   UNL     1      42.417 -10.720   3.827  1.00  0.00     0.146 A 
ENDBRANCH   8   9
ENDBRANCH   1   8
BRANCH   5  19
HETATM   19  C   UNL     1      43.227 -17.057   2.968  1.00  0.00    -0.024 A 
HETATM   20  C   UNL     1      43.466 -18.474   3.081  1.00  0.00     0.018 A 
HETATM   21  C   UNL     1      44.002 -18.706   4.342  1.00  0.00     0.138 A 
HETATM   22  C   UNL     1      43.285 -19.599   2.257  1.00  0.00     0.017 A 
HETATM   23  N   UNL     1      44.398 -19.877   4.868  1.00  0.00    -0.242 NA
HETATM   24  N   UNL     1      44.052 -17.518   5.006  1.00  0.00    -0.350 N 
HETATM   25  C   UNL     1      44.211 -20.922   4.032  1.00  0.00     0.119 A 
HETATM   26  C   UNL     1      43.672 -20.845   2.755  1.00  0.00     0.020 A 
HETATM   27  H   UNL     1      44.368 -17.431   5.962  1.00  0.00     0.166 HD
HETATM   28  C   UNL     1      43.579 -16.513   4.196  1.00  0.00     0.098 A 
ENDBRANCH   5  19
TORSDOF 3
ENDMDL
MODEL 4
REMARK VINA RESULT:      -8.7      1.592      2.373
REMARK  3 active torsions:
REMARK  status: ('A' for Active; 'I' for Inactive)
REMARK    1  A    between atoms: C_5  and  C_6 
REMARK    2  A    between atoms: C_6  and  N_7 
REMARK    3  A    between atoms: C_11  and  C_12 
ROOT
HETATM    1  N   UNL     1      40.851 -14.456   3.302  1.00  0.00    -0.066 N 
HETATM    2  H   UNL     1      40.938 -13.715   4.008  1.00  0.00     0.280 HD
HETATM    3  C   UNL     1      40.584 -15.755   4.031  1.00  0.00     0.236 C 
HETATM    4  C   UNL     1      41.723 -16.022   5.004  1.00  0.00     0.037 C 
HETATM    5  C   UNL     1      43.083 -16.114   4.296  1.00  0.00     0.024 C 
HETATM    6  C   UNL     1      43.310 -14.843   3.463  1.00  0.00     0.037 C 
HETATM    7  C   UNL     1      42.149 -14.504   2.535  1.00  0.00     0.236 C 
ENDROOT
BRANCH   1   8
HETATM    8  C   UNL     1      39.701 -14.054   2.401  1.00  0.00     0.293 C 
BRANCH   8   9
HETATM    9  C   UNL     1      40.104 -13.147   1.307  1.00  0.00     0.061 A 
HETATM   10  N   UNL     1      40.004 -13.455  -0.043  1.00  0.00    -0.307 N 
HETATM   11  C   UNL     1      40.486 -12.347  -0.739  1.00  0.00     0.139 A 
HETATM   12  C   UNL     1      39.537 -14.603  -0.681  1.00  0.00     0.099 A 
HETATM   13  C   UNL     1      40.490 -12.388  -2.176  1.00  0.00    -0.016 A 
HETATM   14  N   UNL     1      40.886 -11.404   0.088  1.00  0.00    -0.240 NA
HETATM   15  C   UNL     1      40.994 -11.241  -3.014  1.00  0.00     0.052 C 
HETATM   16  C   UNL     1      40.029 -13.512  -2.774  1.00  0.00     0.012 A 
HETATM   17  C   UNL     1      39.539 -14.654  -2.023  1.00  0.00     0.018 A 
HETATM   18  C   UNL     1      40.688 -11.896   1.341  1.00  0.00     0.146 A 
ENDBRANCH   8   9
ENDBRANCH   1   8
BRANCH   5  19
HETATM   19  C   UNL     1      43.244 -17.411   3.532  1.00  0.00    -0.024 A 
HETATM   20  C   UNL     1      43.558 -18.689   4.119  1.00  0.00     0.018 A 
HETATM   21  C   UNL     1      43.606 -19.620   3.089  1.00  0.00     0.138 A 
HETATM   22  C   UNL     1      43.813 -19.171   5.416  1.00  0.00     0.017 A 
HETATM   23  N   UNL     1      43.841 -20.940   3.179  1.00  0.00    -0.242 NA
HETATM   24  N   UNL     1      43.388 -18.964   1.916  1.00  0.00    -0.350 N 
HETATM   25  C   UNL     1      44.071 -21.351   4.446  1.00  0.00     0.119 A 
HETATM   26  C   UNL     1      44.073 -20.535   5.568  1.00  0.00     0.020 A 
HETATM   27  H   UNL     1      43.414 -19.420   1.014  1.00  0.00     0.166 HD
HETATM   28  C   UNL     1      43.177 -17.628   2.163  1.00  0.00     0.098 A 
ENDBRANCH   5  19
TORSDOF 3
ENDMDL
MODEL 5
REMARK VINA RESULT:      -8.6      4.055      6.077
REMARK  3 active torsions:
REMARK  status: ('A' for Active; 'I' for Inactive)
REMARK    1  A    between atoms: C_5  and  C_6 
REMARK    2  A    between atoms: C_6  and  N_7 
REMARK    3  A    between atoms: C_11  and  C_12 
ROOT
HETATM    1  N   UNL     1      42.515 -12.844   6.726  1.00  0.00    -0.066 N 
HETATM    2  H   UNL     1      42.189 -12.735   7.694  1.00  0.00     0.280 HD
HETATM    3  C   UNL     1      41.297 -13.060   5.855  1.00  0.00     0.236 C 
HETATM    4  C   UNL     1      40.547 -14.288   6.346  1.00  0.00     0.037 C 
HETATM    5  C   UNL     1      41.418 -15.553   6.315  1.00  0.00     0.024 C 
HETATM    6  C   UNL     1      42.709 -15.301   7.108  1.00  0.00     0.037 C 
HETATM    7  C   UNL     1      43.444 -14.031   6.692  1.00  0.00     0.236 C 
ENDROOT
BRANCH   1   8
HETATM    8  C   UNL     1      43.253 -11.566   6.379  1.00  0.00     0.293 C 
BRANCH   8   9
HETATM    9  C   UNL     1      42.883 -10.424   7.240  1.00  0.00     0.061 A 
HETATM   10  N   UNL     1      43.546 -10.077   8.409  1.00  0.00    -0.307 N 
HETATM   11  C   UNL     1      42.891  -8.956   8.918  1.00  0.00     0.139 A 
HETATM   12  C   UNL     1      44.646 -10.660   9.037  1.00  0.00     0.099 A 
HETATM   13  C   UNL     1      43.379  -8.371  10.138  1.00  0.00    -0.016 A 
HETATM   14  N   UNL     1      41.874  -8.612   8.156  1.00  0.00    -0.240 NA
HETATM   15  C   UNL     1      42.737  -7.161  10.765  1.00  0.00     0.052 C 
HETATM   16  C   UNL     1      44.451  -8.952  10.729  1.00  0.00     0.012 A 
HETATM   17  C   UNL     1      45.108 -10.124  10.178  1.00  0.00     0.018 A 
HETATM   18  C   UNL     1      41.840  -9.523   7.145  1.00  0.00     0.146 A 
ENDBRANCH   8   9
ENDBRANCH   1   8
BRANCH   5  19
HETATM   19  C   UNL     1      41.627 -16.070   4.908  1.00  0.00    -0.024 A 
HETATM   20  C   UNL     1      42.640 -17.016   4.511  1.00  0.00     0.018 A 
HETATM   21  C   UNL     1      42.491 -17.236   3.147  1.00  0.00     0.138 A 
HETATM   22  C   UNL     1      43.678 -17.715   5.152  1.00  0.00     0.017 A 
HETATM   23  N   UNL     1      43.204 -18.061   2.361  1.00  0.00    -0.242 NA
HETATM   24  N   UNL     1      41.481 -16.441   2.697  1.00  0.00    -0.350 N 
HETATM   25  C   UNL     1      44.181 -18.713   3.028  1.00  0.00     0.119 A 
HETATM   26  C   UNL     1      44.458 -18.581   4.382  1.00  0.00     0.020 A 
HETATM   27  H   UNL     1      41.207 -16.391   1.726  1.00  0.00     0.166 HD
HETATM   28  C   UNL     1      40.954 -15.723   3.745  1.00  0.00     0.098 A 
ENDBRANCH   5  19
TORSDOF 3
ENDMDL
MODEL 6
REMARK VINA RESULT:      -8.5      1.762      7.219
REMARK  3 active torsions:
REMARK  status: ('A' for Active; 'I' for Inactive)
REMARK    1  A    between atoms: C_5  and  C_6 
REMARK    2  A    between atoms: C_6  and  N_7 
REMARK    3  A    between atoms: C_11  and  C_12 
ROOT
HETATM    1  N   UNL     1      41.788 -14.987   3.660  1.00  0.00    -0.066 N 
HETATM    2  H   UNL     1      41.263 -15.499   4.380  1.00  0.00     0.280 HD
HETATM    3  C   UNL     1      41.459 -13.518   3.811  1.00  0.00     0.236 C 
HETATM    4  C   UNL     1      39.957 -13.328   3.667  1.00  0.00     0.037 C 
HETATM    5  C   UNL     1      39.436 -13.822   2.309  1.00  0.00     0.024 C 
HETATM    6  C   UNL     1      39.863 -15.283   2.102  1.00  0.00     0.037 C 
HETATM    7  C   UNL     1      41.354 -15.521   2.319  1.00  0.00     0.236 C 
ENDROOT
BRANCH   1   8
HETATM    8  C   UNL     1      43.254 -15.279   3.913  1.00  0.00     0.293 C 
BRANCH   8   9
HETATM    9  C   UNL     1      43.485 -16.568   4.596  1.00  0.00     0.061 A 
HETATM   10  N   UNL     1      43.574 -17.793   3.949  1.00  0.00    -0.307 N 
HETATM   11  C   UNL     1      43.791 -18.750   4.940  1.00  0.00     0.139 A 
HETATM   12  C   UNL     1      43.479 -18.115   2.596  1.00  0.00     0.099 A 
HETATM   13  C   UNL     1      43.933 -20.125   4.546  1.00  0.00    -0.016 A 
HETATM   14  N   UNL     1      43.821 -18.198   6.135  1.00  0.00    -0.240 NA
HETATM   15  C   UNL     1      44.168 -21.230   5.544  1.00  0.00     0.052 C 
HETATM   16  C   UNL     1      43.840 -20.414   3.226  1.00  0.00     0.012 A 
HETATM   17  C   UNL     1      43.606 -19.396   2.217  1.00  0.00     0.018 A 
HETATM   18  C   UNL     1      43.601 -16.869   5.939  1.00  0.00     0.146 A 
ENDBRANCH   8   9
ENDBRANCH   1   8
BRANCH   5  19
HETATM   19  C   UNL     1      39.805 -12.886   1.179  1.00  0.00    -0.024 A 
HETATM   20  C   UNL     1      39.786 -13.225  -0.222  1.00  0.00     0.018 A 
HETATM   21  C   UNL     1      40.179 -12.095  -0.929  1.00  0.00     0.138 A 
HETATM   22  C   UNL     1      39.482 -14.369  -0.983  1.00  0.00     0.017 A 
HETATM   23  N   UNL     1      40.281 -11.947  -2.261  1.00  0.00    -0.242 NA
HETATM   24  N   UNL     1      40.479 -11.116  -0.030  1.00  0.00    -0.350 N 
HETATM   25  C   UNL     1      39.970 -13.072  -2.942  1.00  0.00     0.119 A 
HETATM   26  C   UNL     1      39.580 -14.276  -2.372  1.00  0.00     0.020 A 
HETATM   27  H   UNL     1      40.829 -10.207  -0.298  1.00  0.00     0.166 HD
HETATM   28  C   UNL     1      40.269 -11.579   1.247  1.00  0.00     0.098 A 
ENDBRANCH   5  19
TORSDOF 3
ENDMDL
MODEL 7
REMARK VINA RESULT:      -8.3      1.984      7.137
REMARK  3 active torsions:
REMARK  status: ('A' for Active; 'I' for Inactive)
REMARK    1  A    between atoms: C_5  and  C_6 
REMARK    2  A    between atoms: C_6  and  N_7 
REMARK    3  A    between atoms: C_11  and  C_12 
ROOT
HETATM    1  N   UNL     1      42.006 -13.622   3.902  1.00  0.00    -0.066 N 
HETATM    2  H   UNL     1      41.821 -12.975   4.678  1.00  0.00     0.280 HD
HETATM    3  C   UNL     1      42.619 -12.822   2.774  1.00  0.00     0.236 C 
HETATM    4  C   UNL     1      41.660 -11.711   2.375  1.00  0.00     0.037 C 
HETATM    5  C   UNL     1      40.295 -12.254   1.923  1.00  0.00     0.024 C 
HETATM    6  C   UNL     1      39.718 -13.158   3.022  1.00  0.00     0.037 C 
HETATM    7  C   UNL     1      40.688 -14.235   3.501  1.00  0.00     0.236 C 
ENDROOT
BRANCH   1   8
HETATM    8  C   UNL     1      42.952 -14.676   4.442  1.00  0.00     0.293 C 
BRANCH   8   9
HETATM    9  C   UNL     1      43.081 -15.854   3.562  1.00  0.00     0.061 A 
HETATM   10  N   UNL     1      43.399 -17.131   4.003  1.00  0.00    -0.307 N 
HETATM   11  C   UNL     1      43.424 -17.947   2.872  1.00  0.00     0.139 A 
HETATM   12  C   UNL     1      43.661 -17.611   5.285  1.00  0.00     0.099 A 
HETATM   13  C   UNL     1      43.724 -19.343   3.039  1.00  0.00    -0.016 A 
HETATM   14  N   UNL     1      43.165 -17.255   1.782  1.00  0.00    -0.240 NA
HETATM   15  C   UNL     1      43.777 -20.301   1.876  1.00  0.00     0.052 C 
HETATM   16  C   UNL     1      43.971 -19.787   4.294  1.00  0.00     0.012 A 
HETATM   17  C   UNL     1      43.945 -18.912   5.453  1.00  0.00     0.018 A 
HETATM   18  C   UNL     1      42.986 -15.969   2.188  1.00  0.00     0.146 A 
ENDBRANCH   8   9
ENDBRANCH   1   8
BRANCH   5  19
HETATM   19  C   UNL     1      40.358 -12.885   0.549  1.00  0.00    -0.024 A 
HETATM   20  C   UNL     1      40.579 -12.173  -0.685  1.00  0.00     0.018 A 
HETATM   21  C   UNL     1      40.577 -13.108  -1.712  1.00  0.00     0.138 A 
HETATM   22  C   UNL     1      40.778 -10.830  -1.056  1.00  0.00     0.017 A 
HETATM   23  N   UNL     1      40.770 -12.895  -3.025  1.00  0.00    -0.242 NA
HETATM   24  N   UNL     1      40.320 -14.331  -1.170  1.00  0.00    -0.350 N 
HETATM   25  C   UNL     1      40.965 -11.592  -3.325  1.00  0.00     0.119 A 
HETATM   26  C   UNL     1      40.975 -10.548  -2.409  1.00  0.00     0.020 A 
HETATM   27  H   UNL     1      40.227 -15.172  -1.722  1.00  0.00     0.166 HD
HETATM   28  C   UNL     1      40.175 -14.214   0.192  1.00  0.00     0.098 A 
ENDBRANCH   5  19
TORSDOF 3
ENDMDL
MODEL 8
REMARK VINA RESULT:      -8.3      2.154      4.137
REMARK  3 active torsions:
REMARK  status: ('A' for Active; 'I' for Inactive)
REMARK    1  A    between atoms: C_5  and  C_6 
REMARK    2  A    between atoms: C_6  and  N_7 
REMARK    3  A    between atoms: C_11  and  C_12 
ROOT
HETATM    1  N   UNL     1      40.816 -13.910   2.749  1.00  0.00    -0.066 N 
HETATM    2  H   UNL     1      40.698 -13.489   1.820  1.00  0.00     0.280 HD
HETATM    3  C   UNL     1      42.279 -13.797   3.120  1.00  0.00     0.236 C 
HETATM    4  C   UNL     1      43.115 -14.501   2.063  1.00  0.00     0.037 C 
HETATM    5  C   UNL     1      42.745 -15.986   1.922  1.00  0.00     0.024 C 
HETATM    6  C   UNL     1      41.238 -16.112   1.655  1.00  0.00     0.037 C 
HETATM    7  C   UNL     1      40.374 -15.348   2.654  1.00  0.00     0.236 C 
ENDROOT
BRANCH   1   8
HETATM    8  C   UNL     1      39.921 -13.127   3.689  1.00  0.00     0.293 C 
BRANCH   8   9
HETATM    9  C   UNL     1      40.136 -11.668   3.623  1.00  0.00     0.061 A 
HETATM   10  N   UNL     1      40.725 -10.916   4.630  1.00  0.00    -0.307 N 
HETATM   11  C   UNL     1      40.739  -9.595   4.183  1.00  0.00     0.139 A 
HETATM   12  C   UNL     1      41.232 -11.298   5.871  1.00  0.00     0.099 A 
HETATM   13  C   UNL     1      41.309  -8.588   5.036  1.00  0.00    -0.016 A 
HETATM   14  N   UNL     1      40.186  -9.491   2.993  1.00  0.00    -0.240 NA
HETATM   15  C   UNL     1      41.366  -7.135   4.640  1.00  0.00     0.052 C 
HETATM   16  C   UNL     1      41.798  -8.982   6.235  1.00  0.00     0.012 A 
HETATM   17  C   UNL     1      41.764 -10.366   6.677  1.00  0.00     0.018 A 
HETATM   18  C   UNL     1      39.784 -10.746   2.655  1.00  0.00     0.146 A 
ENDBRANCH   8   9
ENDBRANCH   1   8
BRANCH   5  19
HETATM   19  C   UNL     1      43.256 -16.815   3.081  1.00  0.00    -0.024 A 
HETATM   20  C   UNL     1      43.426 -18.247   3.069  1.00  0.00     0.018 A 
HETATM   21  C   UNL     1      43.923 -18.618   4.312  1.00  0.00     0.138 A 
HETATM   22  C   UNL     1      43.211 -19.283   2.142  1.00  0.00     0.017 A 
HETATM   23  N   UNL     1      44.253 -19.849   4.736  1.00  0.00    -0.242 NA
HETATM   24  N   UNL     1      44.014 -17.498   5.082  1.00  0.00    -0.350 N 
HETATM   25  C   UNL     1      44.035 -20.804   3.806  1.00  0.00     0.119 A 
HETATM   26  C   UNL     1      43.528 -20.586   2.532  1.00  0.00     0.020 A 
HETATM   27  H   UNL     1      44.313 -17.513   6.047  1.00  0.00     0.166 HD
HETATM   28  C   UNL     1      43.606 -16.402   4.359  1.00  0.00     0.098 A 
ENDBRANCH   5  19
TORSDOF 3
ENDMDL
MODEL 9
REMARK VINA RESULT:      -8.0      2.130      3.346
REMARK  3 active torsions:
REMARK  status: ('A' for Active; 'I' for Inactive)
REMARK    1  A    between atoms: C_5  and  C_6 
REMARK    2  A    between atoms: C_6  and  N_7 
REMARK    3  A    between atoms: C_11  and  C_12 
ROOT
HETATM    1  N   UNL     1      40.782 -12.409   3.015  1.00  0.00    -0.066 N 
HETATM    2  H   UNL     1      40.770 -11.720   3.776  1.00  0.00     0.280 HD
HETATM    3  C   UNL     1      40.403 -13.750   3.604  1.00  0.00     0.236 C 
HETATM    4  C   UNL     1      41.385 -14.103   4.710  1.00  0.00     0.037 C 
HETATM    5  C   UNL     1      42.834 -14.169   4.202  1.00  0.00     0.024 C 
HETATM    6  C   UNL     1      43.189 -12.848   3.503  1.00  0.00     0.037 C 
HETATM    7  C   UNL     1      42.177 -12.426   2.442  1.00  0.00     0.236 C 
ENDROOT
BRANCH   1   8
HETATM    8  C   UNL     1      39.779 -11.927   1.987  1.00  0.00     0.293 C 
BRANCH   8   9
HETATM    9  C   UNL     1      39.657 -12.825   0.821  1.00  0.00     0.061 A 
HETATM   10  N   UNL     1      38.849 -12.575  -0.280  1.00  0.00    -0.307 N 
HETATM   11  C   UNL     1      39.015 -13.655  -1.147  1.00  0.00     0.139 A 
HETATM   12  C   UNL     1      38.005 -11.502  -0.563  1.00  0.00     0.099 A 
HETATM   13  C   UNL     1      38.292 -13.654  -2.390  1.00  0.00    -0.016 A 
HETATM   14  N   UNL     1      39.845 -14.544  -0.644  1.00  0.00    -0.240 NA
HETATM   15  C   UNL     1      38.404 -14.778  -3.388  1.00  0.00     0.052 C 
HETATM   16  C   UNL     1      37.481 -12.600  -2.645  1.00  0.00     0.012 A 
HETATM   17  C   UNL     1      37.322 -11.492  -1.719  1.00  0.00     0.018 A 
HETATM   18  C   UNL     1      40.218 -14.063   0.573  1.00  0.00     0.146 A 
ENDBRANCH   8   9
ENDBRANCH   1   8
BRANCH   5  19
HETATM   19  C   UNL     1      43.096 -15.413   3.380  1.00  0.00    -0.024 A 
HETATM   20  C   UNL     1      43.423 -16.710   3.916  1.00  0.00     0.018 A 
HETATM   21  C   UNL     1      43.575 -17.578   2.842  1.00  0.00     0.138 A 
HETATM   22  C   UNL     1      43.614 -17.257   5.198  1.00  0.00     0.017 A 
HETATM   23  N   UNL     1      43.857 -18.891   2.873  1.00  0.00    -0.242 NA
HETATM   24  N   UNL     1      43.405 -16.864   1.694  1.00  0.00    -0.350 N 
HETATM   25  C   UNL     1      44.023 -19.366   4.128  1.00  0.00     0.119 A 
HETATM   26  C   UNL     1      43.919 -18.616   5.292  1.00  0.00     0.020 A 
HETATM   27  H   UNL     1      43.507 -17.266   0.772  1.00  0.00     0.166 HD
HETATM   28  C   UNL     1      43.125 -15.553   2.000  1.00  0.00     0.098 A 
ENDBRANCH   5  19
TORSDOF 3
ENDMDL
MODEL 10
REMARK VINA RESULT:      -8.0      5.192      7.573
REMARK  3 active torsions:
REMARK  status: ('A' for Active; 'I' for Inactive)
REMARK    1  A    between atoms: C_5  and  C_6 
REMARK    2  A    between atoms: C_6  and  N_7 
REMARK    3  A    between atoms: C_11  and  C_12 
ROOT
HETATM    1  N   UNL     1      43.964 -10.691   6.593  1.00  0.00    -0.066 N 
HETATM    2  H   UNL     1      43.863  -9.751   6.191  1.00  0.00     0.280 HD
HETATM    3  C   UNL     1      44.733 -11.535   5.599  1.00  0.00     0.236 C 
HETATM    4  C   UNL     1      43.980 -11.555   4.278  1.00  0.00     0.037 C 
HETATM    5  C   UNL     1      42.560 -12.123   4.426  1.00  0.00     0.024 C 
HETATM    6  C   UNL     1      41.810 -11.340   5.514  1.00  0.00     0.037 C 
HETATM    7  C   UNL     1      42.576 -11.233   6.829  1.00  0.00     0.236 C 
ENDROOT
BRANCH   1   8
HETATM    8  C   UNL     1      44.709 -10.518   7.901  1.00  0.00     0.293 C 
BRANCH   8   9
HETATM    9  C   UNL     1      44.186  -9.414   8.731  1.00  0.00     0.061 A 
HETATM   10  N   UNL     1      43.762  -9.555  10.045  1.00  0.00    -0.307 N 
HETATM   11  C   UNL     1      43.344  -8.292  10.465  1.00  0.00     0.139 A 
HETATM   12  C   UNL     1      43.717 -10.678  10.870  1.00  0.00     0.099 A 
HETATM   13  C   UNL     1      42.856  -8.142  11.809  1.00  0.00    -0.016 A 
HETATM   14  N   UNL     1      43.466  -7.407   9.499  1.00  0.00    -0.240 NA
HETATM   15  C   UNL     1      42.380  -6.819  12.351  1.00  0.00     0.052 C 
HETATM   16  C   UNL     1      42.825  -9.246  12.593  1.00  0.00     0.012 A 
HETATM   17  C   UNL     1      43.260 -10.551  12.126  1.00  0.00     0.018 A 
HETATM   18  C   UNL     1      43.949  -8.088   8.424  1.00  0.00     0.146 A 
ENDBRANCH   8   9
ENDBRANCH   1   8
BRANCH   5  19
HETATM   19  C   UNL     1      42.561 -13.626   4.611  1.00  0.00    -0.024 A 
HETATM   20  C   UNL     1      42.846 -14.591   3.579  1.00  0.00     0.018 A 
HETATM   21  C   UNL     1      42.755 -15.853   4.152  1.00  0.00     0.138 A 
HETATM   22  C   UNL     1      43.171 -14.543   2.210  1.00  0.00     0.017 A 
HETATM   23  N   UNL     1      42.966 -17.044   3.566  1.00  0.00    -0.242 NA
HETATM   24  N   UNL     1      42.385 -15.700   5.454  1.00  0.00    -0.350 N 
HETATM   25  C   UNL     1      43.282 -16.940   2.257  1.00  0.00     0.119 A 
HETATM   26  C   UNL     1      43.392 -15.752   1.547  1.00  0.00     0.020 A 
HETATM   27  H   UNL     1      42.213 -16.478   6.075  1.00  0.00     0.166 HD
HETATM   28  C   UNL     1      42.253 -14.363   5.746  1.00  0.00     0.098 A 
ENDBRANCH   5  19
TORSDOF 3
ENDMDL
