MODEL 1
REMARK VINA RESULT:      -9.1      0.000      0.000
REMARK  8 active torsions:
REMARK  status: ('A' for Active; 'I' for Inactive)
REMARK    1  A    between atoms: C_4  and  N_5 
REMARK       I    between atoms: N_5  and  C_6 
REMARK    2  A    between atoms: C_6  and  C_7 
REMARK    3  A    between atoms: C_7  and  N_8 
REMARK    4  A    between atoms: C_7  and  C_24 
REMARK    5  A    between atoms: N_8  and  C_11 
REMARK    6  A    between atoms: C_11  and  C_12 
REMARK    7  A    between atoms: C_15  and  N_16 
REMARK    8  A    between atoms: C_31  and  O_32 
ROOT
HETATM    1  C   UNL     1      42.182 -16.051   3.371  1.00  0.00     0.310 C 
ENDROOT
BRANCH   1   2
HETATM    2  C   UNL     1      41.830 -15.392   2.012  1.00  0.00     0.257 C 
HETATM    3  N   UNL     1      40.508 -15.256   1.680  1.00  0.00    -0.323 N 
HETATM    4  H   UNL     1      39.781 -15.674   2.261  1.00  0.00     0.169 HD
HETATM    5  O   UNL     1      42.785 -14.897   1.401  1.00  0.00    -0.270 OA
BRANCH   3   6
HETATM    6  C   UNL     1      39.959 -14.459   0.644  1.00  0.00     0.069 A 
HETATM    7  C   UNL     1      39.672 -14.935  -0.639  1.00  0.00     0.039 A 
HETATM    8  C   UNL     1      39.182 -14.071  -1.627  1.00  0.00    -0.060 A 
HETATM    9  C   UNL     1      38.847 -14.587  -2.997  1.00  0.00     0.048 C 
HETATM   10  C   UNL     1      38.959 -12.728  -1.311  1.00  0.00     0.009 A 
HETATM   11  C   UNL     1      39.232 -12.243  -0.029  1.00  0.00     0.039 A 
HETATM   12  C   UNL     1      39.729 -13.102   0.953  1.00  0.00     0.095 A 
BRANCH  12  13
HETATM   13  O   UNL     1      40.056 -12.732   2.238  1.00  0.00    -0.354 OA
HETATM   14  C   UNL     1      41.018 -11.691   2.378  1.00  0.00     0.210 C 
ENDBRANCH  12  13
ENDBRANCH   3   6
ENDBRANCH   1   2
BRANCH   1  15
HETATM   15  N   UNL     1      40.905 -16.022   4.171  1.00  0.00    -0.054 N 
HETATM   16  H   UNL     1      40.349 -15.253   3.754  1.00  0.00     0.278 HD
HETATM   17  H   UNL     1      40.342 -16.855   3.967  1.00  0.00     0.278 HD
BRANCH  15  18
HETATM   18  C   UNL     1      40.971 -15.809   5.634  1.00  0.00     0.272 C 
BRANCH  18  19
HETATM   19  C   UNL     1      41.941 -14.686   5.883  1.00  0.00    -0.033 A 
HETATM   20  C   UNL     1      43.156 -14.936   6.526  1.00  0.00     0.011 A 
HETATM   21  C   UNL     1      43.951 -13.876   6.977  1.00  0.00     0.030 A 
HETATM   22  C   UNL     1      43.558 -12.542   6.808  1.00  0.00     0.037 A 
HETATM   23  C   UNL     1      42.372 -12.303   6.099  1.00  0.00     0.030 A 
HETATM   24  C   UNL     1      41.568 -13.358   5.648  1.00  0.00     0.011 A 
BRANCH  22  25
HETATM   25  N   UNL     1      44.307 -11.467   7.357  1.00  0.00    -0.318 N 
HETATM   26  C   UNL     1      45.550 -11.006   6.889  1.00  0.00     0.224 C 
HETATM   27  O   UNL     1      46.192 -11.382   5.921  1.00  0.00    -0.273 OA
HETATM   28  C   UNL     1      46.064  -9.978   7.871  1.00  0.00     0.105 C 
HETATM   29  C   UNL     1      44.823  -9.589   8.650  1.00  0.00     0.029 C 
HETATM   30  C   UNL     1      43.983 -10.847   8.622  1.00  0.00     0.133 C 
ENDBRANCH  22  25
ENDBRANCH  18  19
ENDBRANCH  15  18
ENDBRANCH   1  15
BRANCH   1  31
HETATM   31  C   UNL     1      42.841 -17.411   3.317  1.00  0.00    -0.019 A 
HETATM   32  C   UNL     1      42.590 -18.250   2.217  1.00  0.00     0.010 A 
HETATM   33  C   UNL     1      43.163 -19.521   2.145  1.00  0.00     0.001 A 
HETATM   34  C   UNL     1      43.990 -19.971   3.168  1.00  0.00     0.000 A 
HETATM   35  C   UNL     1      44.241 -19.157   4.270  1.00  0.00     0.001 A 
HETATM   36  C   UNL     1      43.669 -17.885   4.350  1.00  0.00     0.010 A 
ENDBRANCH   1  31
TORSDOF 8
ENDMDL
MODEL 2
REMARK VINA RESULT:      -9.1      2.533      7.989
REMARK  8 active torsions:
REMARK  status: ('A' for Active; 'I' for Inactive)
REMARK    1  A    between atoms: C_4  and  N_5 
REMARK       I    between atoms: N_5  and  C_6 
REMARK    2  A    between atoms: C_6  and  C_7 
REMARK    3  A    between atoms: C_7  and  N_8 
REMARK    4  A    between atoms: C_7  and  C_24 
REMARK    5  A    between atoms: N_8  and  C_11 
REMARK    6  A    between atoms: C_11  and  C_12 
REMARK    7  A    between atoms: C_15  and  N_16 
REMARK    8  A    between atoms: C_31  and  O_32 
ROOT
HETATM    1  C   UNL     1      41.542 -12.160   4.726  1.00  0.00     0.310 C 
ENDROOT
BRANCH   1   2
HETATM    2  C   UNL     1      42.215 -10.910   5.349  1.00  0.00     0.257 C 
HETATM    3  N   UNL     1      42.268 -10.814   6.715  1.00  0.00    -0.323 N 
HETATM    4  H   UNL     1      41.783 -11.492   7.302  1.00  0.00     0.169 HD
HETATM    5  O   UNL     1      42.794 -10.166   4.547  1.00  0.00    -0.270 OA
BRANCH   3   6
HETATM    6  C   UNL     1      43.056  -9.920   7.484  1.00  0.00     0.069 A 
HETATM    7  C   UNL     1      42.596  -8.689   7.963  1.00  0.00     0.039 A 
HETATM    8  C   UNL     1      43.453  -7.835   8.671  1.00  0.00    -0.060 A 
HETATM    9  C   UNL     1      42.954  -6.525   9.209  1.00  0.00     0.048 C 
HETATM   10  C   UNL     1      44.769  -8.236   8.915  1.00  0.00     0.009 A 
HETATM   11  C   UNL     1      45.236  -9.469   8.451  1.00  0.00     0.039 A 
HETATM   12  C   UNL     1      44.385 -10.316   7.738  1.00  0.00     0.095 A 
BRANCH  12  13
HETATM   13  O   UNL     1      44.741 -11.539   7.213  1.00  0.00    -0.354 OA
HETATM   14  C   UNL     1      45.786 -11.539   6.246  1.00  0.00     0.210 C 
ENDBRANCH  12  13
ENDBRANCH   3   6
ENDBRANCH   1   2
BRANCH   1  15
HETATM   15  N   UNL     1      42.101 -12.259   3.329  1.00  0.00    -0.054 N 
HETATM   16  H   UNL     1      42.251 -11.277   3.034  1.00  0.00     0.278 HD
HETATM   17  H   UNL     1      43.052 -12.642   3.358  1.00  0.00     0.278 HD
BRANCH  15  18
HETATM   18  C   UNL     1      41.316 -12.946   2.281  1.00  0.00     0.272 C 
BRANCH  18  19
HETATM   19  C   UNL     1      41.759 -14.383   2.253  1.00  0.00    -0.033 A 
HETATM   20  C   UNL     1      40.888 -15.397   2.663  1.00  0.00     0.011 A 
HETATM   21  C   UNL     1      41.361 -16.697   2.870  1.00  0.00     0.030 A 
HETATM   22  C   UNL     1      42.710 -17.024   2.685  1.00  0.00     0.037 A 
HETATM   23  C   UNL     1      43.559 -16.017   2.207  1.00  0.00     0.030 A 
HETATM   24  C   UNL     1      43.095 -14.710   2.000  1.00  0.00     0.011 A 
BRANCH  22  25
HETATM   25  N   UNL     1      43.217 -18.315   2.997  1.00  0.00    -0.318 N 
HETATM   26  C   UNL     1      43.961 -18.652   4.143  1.00  0.00     0.224 C 
HETATM   27  O   UNL     1      44.266 -17.949   5.093  1.00  0.00    -0.273 OA
HETATM   28  C   UNL     1      44.447 -20.074   3.978  1.00  0.00     0.105 C 
HETATM   29  C   UNL     1      43.547 -20.626   2.890  1.00  0.00     0.029 C 
HETATM   30  C   UNL     1      43.221 -19.408   2.053  1.00  0.00     0.133 C 
ENDBRANCH  22  25
ENDBRANCH  18  19
ENDBRANCH  15  18
ENDBRANCH   1  15
BRANCH   1  31
HETATM   31  C   UNL     1      41.632 -13.446   5.515  1.00  0.00    -0.019 A 
HETATM   32  C   UNL     1      42.892 -14.037   5.720  1.00  0.00     0.010 A 
HETATM   33  C   UNL     1      43.010 -15.236   6.424  1.00  0.00     0.001 A 
HETATM   34  C   UNL     1      41.876 -15.861   6.930  1.00  0.00     0.000 A 
HETATM   35  C   UNL     1      40.620 -15.296   6.728  1.00  0.00     0.001 A 
HETATM   36  C   UNL     1      40.493 -14.097   6.022  1.00  0.00     0.010 A 
ENDBRANCH   1  31
TORSDOF 8
ENDMDL
MODEL 3
REMARK VINA RESULT:      -9.0      1.589      5.335
REMARK  8 active torsions:
REMARK  status: ('A' for Active; 'I' for Inactive)
REMARK    1  A    between atoms: C_4  and  N_5 
REMARK       I    between atoms: N_5  and  C_6 
REMARK    2  A    between atoms: C_6  and  C_7 
REMARK    3  A    between atoms: C_7  and  N_8 
REMARK    4  A    between atoms: C_7  and  C_24 
REMARK    5  A    between atoms: N_8  and  C_11 
REMARK    6  A    between atoms: C_11  and  C_12 
REMARK    7  A    between atoms: C_15  and  N_16 
REMARK    8  A    between atoms: C_31  and  O_32 
ROOT
HETATM    1  C   UNL     1      39.992 -13.885   1.236  1.00  0.00     0.310 C 
ENDROOT
BRANCH   1   2
HETATM    2  C   UNL     1      40.560 -15.223   1.775  1.00  0.00     0.257 C 
HETATM    3  N   UNL     1      41.921 -15.374   1.835  1.00  0.00    -0.323 N 
HETATM    4  H   UNL     1      42.539 -14.667   1.437  1.00  0.00     0.169 HD
HETATM    5  O   UNL     1      39.723 -15.997   2.256  1.00  0.00    -0.270 OA
BRANCH   3   6
HETATM    6  C   UNL     1      42.645 -16.376   2.529  1.00  0.00     0.069 A 
HETATM    7  C   UNL     1      42.812 -17.683   2.061  1.00  0.00     0.039 A 
HETATM    8  C   UNL     1      43.496 -18.633   2.832  1.00  0.00    -0.060 A 
HETATM    9  C   UNL     1      43.701 -20.030   2.318  1.00  0.00     0.048 C 
HETATM   10  C   UNL     1      44.031 -18.256   4.066  1.00  0.00     0.009 A 
HETATM   11  C   UNL     1      43.879 -16.950   4.539  1.00  0.00     0.039 A 
HETATM   12  C   UNL     1      43.190 -16.004   3.775  1.00  0.00     0.095 A 
BRANCH  12  13
HETATM   13  O   UNL     1      42.958 -14.700   4.150  1.00  0.00    -0.354 OA
HETATM   14  C   UNL     1      42.618 -14.478   5.515  1.00  0.00     0.210 C 
ENDBRANCH  12  13
ENDBRANCH   3   6
ENDBRANCH   1   2
BRANCH   1  15
HETATM   15  N   UNL     1      40.598 -12.814   2.109  1.00  0.00    -0.054 N 
HETATM   16  H   UNL     1      41.427 -13.262   2.538  1.00  0.00     0.278 HD
HETATM   17  H   UNL     1      41.006 -12.075   1.526  1.00  0.00     0.278 HD
BRANCH  15  18
HETATM   18  C   UNL     1      39.783 -12.212   3.187  1.00  0.00     0.272 C 
BRANCH  18  19
HETATM   19  C   UNL     1      40.727 -11.529   4.138  1.00  0.00    -0.033 A 
HETATM   20  C   UNL     1      41.994 -11.127   3.706  1.00  0.00     0.011 A 
HETATM   21  C   UNL     1      42.961 -10.716   4.630  1.00  0.00     0.030 A 
HETATM   22  C   UNL     1      42.701 -10.700   6.005  1.00  0.00     0.037 A 
HETATM   23  C   UNL     1      41.405 -11.038   6.421  1.00  0.00     0.030 A 
HETATM   24  C   UNL     1      40.431 -11.455   5.504  1.00  0.00     0.011 A 
BRANCH  22  25
HETATM   25  N   UNL     1      43.711 -10.388   6.955  1.00  0.00    -0.318 N 
HETATM   26  C   UNL     1      44.815 -11.196   7.279  1.00  0.00     0.224 C 
HETATM   27  O   UNL     1      45.151 -12.265   6.793  1.00  0.00    -0.273 OA
HETATM   28  C   UNL     1      45.521 -10.567   8.458  1.00  0.00     0.105 C 
HETATM   29  C   UNL     1      44.996  -9.145   8.460  1.00  0.00     0.029 C 
HETATM   30  C   UNL     1      43.606  -9.283   7.881  1.00  0.00     0.133 C 
ENDBRANCH  22  25
ENDBRANCH  18  19
ENDBRANCH  15  18
ENDBRANCH   1  15
BRANCH   1  31
HETATM   31  C   UNL     1      40.146 -13.627  -0.246  1.00  0.00    -0.019 A 
HETATM   32  C   UNL     1      40.846 -12.484  -0.672  1.00  0.00     0.010 A 
HETATM   33  C   UNL     1      40.988 -12.202  -2.031  1.00  0.00     0.001 A 
HETATM   34  C   UNL     1      40.434 -13.053  -2.981  1.00  0.00     0.000 A 
HETATM   35  C   UNL     1      39.730 -14.184  -2.577  1.00  0.00     0.001 A 
HETATM   36  C   UNL     1      39.581 -14.471  -1.218  1.00  0.00     0.010 A 
ENDBRANCH   1  31
TORSDOF 8
ENDMDL
MODEL 4
REMARK VINA RESULT:      -8.9      1.842      5.562
REMARK  8 active torsions:
REMARK  status: ('A' for Active; 'I' for Inactive)
REMARK    1  A    between atoms: C_4  and  N_5 
REMARK       I    between atoms: N_5  and  C_6 
REMARK    2  A    between atoms: C_6  and  C_7 
REMARK    3  A    between atoms: C_7  and  N_8 
REMARK    4  A    between atoms: C_7  and  C_24 
REMARK    5  A    between atoms: N_8  and  C_11 
REMARK    6  A    between atoms: C_11  and  C_12 
REMARK    7  A    between atoms: C_15  and  N_16 
REMARK    8  A    between atoms: C_31  and  O_32 
ROOT
HETATM    1  C   UNL     1      41.953 -13.397   2.294  1.00  0.00     0.310 C 
ENDROOT
BRANCH   1   2
HETATM    2  C   UNL     1      42.899 -14.603   2.527  1.00  0.00     0.257 C 
HETATM    3  N   UNL     1      42.505 -15.578   3.406  1.00  0.00    -0.323 N 
HETATM    4  H   UNL     1      41.664 -15.459   3.970  1.00  0.00     0.169 HD
HETATM    5  O   UNL     1      43.878 -14.661   1.772  1.00  0.00    -0.270 OA
BRANCH   3   6
HETATM    6  C   UNL     1      43.067 -16.870   3.565  1.00  0.00     0.069 A 
HETATM    7  C   UNL     1      42.981 -17.882   2.604  1.00  0.00     0.039 A 
HETATM    8  C   UNL     1      43.515 -19.153   2.857  1.00  0.00    -0.060 A 
HETATM    9  C   UNL     1      43.447 -20.232   1.815  1.00  0.00     0.048 C 
HETATM   10  C   UNL     1      44.158 -19.393   4.074  1.00  0.00     0.009 A 
HETATM   11  C   UNL     1      44.260 -18.386   5.038  1.00  0.00     0.039 A 
HETATM   12  C   UNL     1      43.720 -17.122   4.789  1.00  0.00     0.095 A 
BRANCH  12  13
HETATM   13  O   UNL     1      43.739 -16.065   5.671  1.00  0.00    -0.354 OA
HETATM   14  C   UNL     1      43.069 -16.256   6.913  1.00  0.00     0.210 C 
ENDBRANCH  12  13
ENDBRANCH   3   6
ENDBRANCH   1   2
BRANCH   1  15
HETATM   15  N   UNL     1      42.808 -12.173   2.502  1.00  0.00    -0.054 N 
HETATM   16  H   UNL     1      43.573 -12.489   3.126  1.00  0.00     0.278 HD
HETATM   17  H   UNL     1      43.298 -11.935   1.633  1.00  0.00     0.278 HD
BRANCH  15  18
HETATM   18  C   UNL     1      42.203 -10.957   3.087  1.00  0.00     0.272 C 
BRANCH  18  19
HETATM   19  C   UNL     1      42.607 -10.901   4.534  1.00  0.00    -0.033 A 
HETATM   20  C   UNL     1      41.912 -10.082   5.429  1.00  0.00     0.011 A 
HETATM   21  C   UNL     1      42.423  -9.838   6.708  1.00  0.00     0.030 A 
HETATM   22  C   UNL     1      43.637 -10.391   7.132  1.00  0.00     0.037 A 
HETATM   23  C   UNL     1      44.289 -11.266   6.252  1.00  0.00     0.030 A 
HETATM   24  C   UNL     1      43.788 -11.514   4.967  1.00  0.00     0.011 A 
BRANCH  22  25
HETATM   25  N   UNL     1      44.213 -10.060   8.388  1.00  0.00    -0.318 N 
HETATM   26  C   UNL     1      45.345  -9.250   8.588  1.00  0.00     0.224 C 
HETATM   27  O   UNL     1      46.008  -8.642   7.761  1.00  0.00    -0.273 OA
HETATM   28  C   UNL     1      45.712  -9.318  10.052  1.00  0.00     0.105 C 
HETATM   29  C   UNL     1      44.450  -9.848  10.704  1.00  0.00     0.029 C 
HETATM   30  C   UNL     1      43.833 -10.708   9.623  1.00  0.00     0.133 C 
ENDBRANCH  22  25
ENDBRANCH  18  19
ENDBRANCH  15  18
ENDBRANCH   1  15
BRANCH   1  31
HETATM   31  C   UNL     1      41.171 -13.386   1.001  1.00  0.00    -0.019 A 
HETATM   32  C   UNL     1      41.143 -12.211   0.229  1.00  0.00     0.010 A 
HETATM   33  C   UNL     1      40.413 -12.156  -0.960  1.00  0.00     0.001 A 
HETATM   34  C   UNL     1      39.701 -13.270  -1.391  1.00  0.00     0.000 A 
HETATM   35  C   UNL     1      39.709 -14.439  -0.634  1.00  0.00     0.001 A 
HETATM   36  C   UNL     1      40.436 -14.499   0.557  1.00  0.00     0.010 A 
ENDBRANCH   1  31
TORSDOF 8
ENDMDL
MODEL 5
REMARK VINA RESULT:      -8.8      3.092      5.878
REMARK  8 active torsions:
REMARK  status: ('A' for Active; 'I' for Inactive)
REMARK    1  A    between atoms: C_4  and  N_5 
REMARK       I    between atoms: N_5  and  C_6 
REMARK    2  A    between atoms: C_6  and  C_7 
REMARK    3  A    between atoms: C_7  and  N_8 
REMARK    4  A    between atoms: C_7  and  C_24 
REMARK    5  A    between atoms: N_8  and  C_11 
REMARK    6  A    between atoms: C_11  and  C_12 
REMARK    7  A    between atoms: C_15  and  N_16 
REMARK    8  A    between atoms: C_31  and  O_32 
ROOT
HETATM    1  C   UNL     1      41.591 -13.817   4.028  1.00  0.00     0.310 C 
ENDROOT
BRANCH   1   2
HETATM    2  C   UNL     1      41.730 -15.346   3.813  1.00  0.00     0.257 C 
HETATM    3  N   UNL     1      42.975 -15.855   3.552  1.00  0.00    -0.323 N 
HETATM    4  H   UNL     1      43.768 -15.233   3.398  1.00  0.00     0.169 HD
HETATM    5  O   UNL     1      40.711 -16.007   4.051  1.00  0.00    -0.270 OA
BRANCH   3   6
HETATM    6  C   UNL     1      43.372 -17.215   3.592  1.00  0.00     0.069 A 
HETATM    7  C   UNL     1      43.201 -18.110   2.531  1.00  0.00     0.039 A 
HETATM    8  C   UNL     1      43.571 -19.455   2.667  1.00  0.00    -0.060 A 
HETATM    9  C   UNL     1      43.414 -20.411   1.519  1.00  0.00     0.048 C 
HETATM   10  C   UNL     1      44.137 -19.891   3.868  1.00  0.00     0.009 A 
HETATM   11  C   UNL     1      44.323 -19.003   4.931  1.00  0.00     0.039 A 
HETATM   12  C   UNL     1      43.946 -17.665   4.800  1.00  0.00     0.095 A 
BRANCH  12  13
HETATM   13  O   UNL     1      44.059 -16.709   5.784  1.00  0.00    -0.354 OA
HETATM   14  C   UNL     1      43.574 -17.063   7.076  1.00  0.00     0.210 C 
ENDBRANCH  12  13
ENDBRANCH   3   6
ENDBRANCH   1   2
BRANCH   1  15
HETATM   15  N   UNL     1      40.162 -13.602   4.457  1.00  0.00    -0.054 N 
HETATM   16  H   UNL     1      39.646 -14.415   4.073  1.00  0.00     0.278 HD
HETATM   17  H   UNL     1      40.076 -13.727   5.471  1.00  0.00     0.278 HD
BRANCH  15  18
HETATM   18  C   UNL     1      39.459 -12.368   4.043  1.00  0.00     0.272 C 
BRANCH  18  19
HETATM   19  C   UNL     1      39.926 -11.258   4.945  1.00  0.00    -0.033 A 
HETATM   20  C   UNL     1      40.667 -10.193   4.425  1.00  0.00     0.011 A 
HETATM   21  C   UNL     1      41.307  -9.291   5.282  1.00  0.00     0.030 A 
HETATM   22  C   UNL     1      41.237  -9.425   6.674  1.00  0.00     0.037 A 
HETATM   23  C   UNL     1      40.433 -10.455   7.183  1.00  0.00     0.030 A 
HETATM   24  C   UNL     1      39.791 -11.366   6.333  1.00  0.00     0.011 A 
BRANCH  22  25
HETATM   25  N   UNL     1      41.971  -8.577   7.546  1.00  0.00    -0.318 N 
HETATM   26  C   UNL     1      41.685  -7.227   7.816  1.00  0.00     0.224 C 
HETATM   27  O   UNL     1      40.753  -6.546   7.417  1.00  0.00    -0.273 OA
HETATM   28  C   UNL     1      42.819  -6.668   8.644  1.00  0.00     0.105 C 
HETATM   29  C   UNL     1      43.504  -7.911   9.180  1.00  0.00     0.029 C 
HETATM   30  C   UNL     1      43.256  -8.941   8.100  1.00  0.00     0.133 C 
ENDBRANCH  22  25
ENDBRANCH  18  19
ENDBRANCH  15  18
ENDBRANCH   1  15
BRANCH   1  31
HETATM   31  C   UNL     1      42.608 -13.162   4.936  1.00  0.00    -0.019 A 
HETATM   32  C   UNL     1      43.482 -12.199   4.402  1.00  0.00     0.010 A 
HETATM   33  C   UNL     1      44.448 -11.590   5.204  1.00  0.00     0.001 A 
HETATM   34  C   UNL     1      44.555 -11.934   6.547  1.00  0.00     0.000 A 
HETATM   35  C   UNL     1      43.703 -12.893   7.091  1.00  0.00     0.001 A 
HETATM   36  C   UNL     1      42.736 -13.508   6.292  1.00  0.00     0.010 A 
ENDBRANCH   1  31
TORSDOF 8
ENDMDL
MODEL 6
REMARK VINA RESULT:      -8.8      2.582      7.844
REMARK  8 active torsions:
REMARK  status: ('A' for Active; 'I' for Inactive)
REMARK    1  A    between atoms: C_4  and  N_5 
REMARK       I    between atoms: N_5  and  C_6 
REMARK    2  A    between atoms: C_6  and  C_7 
REMARK    3  A    between atoms: C_7  and  N_8 
REMARK    4  A    between atoms: C_7  and  C_24 
REMARK    5  A    between atoms: N_8  and  C_11 
REMARK    6  A    between atoms: C_11  and  C_12 
REMARK    7  A    between atoms: C_15  and  N_16 
REMARK    8  A    between atoms: C_31  and  O_32 
ROOT
HETATM    1  C   UNL     1      41.544 -12.196   4.359  1.00  0.00     0.310 C 
ENDROOT
BRANCH   1   2
HETATM    2  C   UNL     1      42.259 -10.961   4.966  1.00  0.00     0.257 C 
HETATM    3  N   UNL     1      41.911 -10.566   6.230  1.00  0.00    -0.323 N 
HETATM    4  H   UNL     1      41.128 -11.006   6.715  1.00  0.00     0.169 HD
HETATM    5  O   UNL     1      43.208 -10.523   4.305  1.00  0.00    -0.270 OA
BRANCH   3   6
HETATM    6  C   UNL     1      42.606  -9.659   7.069  1.00  0.00     0.069 A 
HETATM    7  C   UNL     1      43.758  -9.988   7.790  1.00  0.00     0.039 A 
HETATM    8  C   UNL     1      44.358  -9.051   8.642  1.00  0.00    -0.060 A 
HETATM    9  C   UNL     1      45.611  -9.394   9.396  1.00  0.00     0.048 C 
HETATM   10  C   UNL     1      43.806  -7.771   8.747  1.00  0.00     0.009 A 
HETATM   11  C   UNL     1      42.662  -7.427   8.023  1.00  0.00     0.039 A 
HETATM   12  C   UNL     1      42.058  -8.364   7.181  1.00  0.00     0.095 A 
BRANCH  12  13
HETATM   13  O   UNL     1      40.918  -8.145   6.440  1.00  0.00    -0.354 OA
HETATM   14  C   UNL     1      39.689  -8.097   7.159  1.00  0.00     0.210 C 
ENDBRANCH  12  13
ENDBRANCH   3   6
ENDBRANCH   1   2
BRANCH   1  15
HETATM   15  N   UNL     1      42.116 -12.346   2.971  1.00  0.00    -0.054 N 
HETATM   16  H   UNL     1      42.245 -11.375   2.633  1.00  0.00     0.278 HD
HETATM   17  H   UNL     1      43.075 -12.706   3.024  1.00  0.00     0.278 HD
BRANCH  15  18
HETATM   18  C   UNL     1      41.354 -13.098   1.951  1.00  0.00     0.272 C 
BRANCH  18  19
HETATM   19  C   UNL     1      41.812 -14.529   2.007  1.00  0.00    -0.033 A 
HETATM   20  C   UNL     1      40.931 -15.535   2.413  1.00  0.00     0.011 A 
HETATM   21  C   UNL     1      41.407 -16.820   2.700  1.00  0.00     0.030 A 
HETATM   22  C   UNL     1      42.766 -17.138   2.601  1.00  0.00     0.037 A 
HETATM   23  C   UNL     1      43.630 -16.140   2.126  1.00  0.00     0.030 A 
HETATM   24  C   UNL     1      43.164 -14.850   1.839  1.00  0.00     0.011 A 
BRANCH  22  25
HETATM   25  N   UNL     1      43.269 -18.407   2.994  1.00  0.00    -0.318 N 
HETATM   26  C   UNL     1      43.953 -18.687   4.191  1.00  0.00     0.224 C 
HETATM   27  O   UNL     1      44.198 -17.942   5.126  1.00  0.00    -0.273 OA
HETATM   28  C   UNL     1      44.463 -20.108   4.113  1.00  0.00     0.105 C 
HETATM   29  C   UNL     1      43.629 -20.717   3.002  1.00  0.00     0.029 C 
HETATM   30  C   UNL     1      43.336 -19.539   2.098  1.00  0.00     0.133 C 
ENDBRANCH  22  25
ENDBRANCH  18  19
ENDBRANCH  15  18
ENDBRANCH   1  15
BRANCH   1  31
HETATM   31  C   UNL     1      41.572 -13.468   5.174  1.00  0.00    -0.019 A 
HETATM   32  C   UNL     1      40.363 -13.993   5.666  1.00  0.00     0.010 A 
HETATM   33  C   UNL     1      40.353 -15.154   6.440  1.00  0.00     0.001 A 
HETATM   34  C   UNL     1      41.546 -15.804   6.736  1.00  0.00     0.000 A 
HETATM   35  C   UNL     1      42.753 -15.293   6.265  1.00  0.00     0.001 A 
HETATM   36  C   UNL     1      42.771 -14.131   5.491  1.00  0.00     0.010 A 
ENDBRANCH   1  31
TORSDOF 8
ENDMDL
MODEL 7
REMARK VINA RESULT:      -8.7      1.763      2.540
REMARK  8 active torsions:
REMARK  status: ('A' for Active; 'I' for Inactive)
REMARK    1  A    between atoms: C_4  and  N_5 
REMARK       I    between atoms: N_5  and  C_6 
REMARK    2  A    between atoms: C_6  and  C_7 
REMARK    3  A    between atoms: C_7  and  N_8 
REMARK    4  A    between atoms: C_7  and  C_24 
REMARK    5  A    between atoms: N_8  and  C_11 
REMARK    6  A    between atoms: C_11  and  C_12 
REMARK    7  A    between atoms: C_15  and  N_16 
REMARK    8  A    between atoms: C_31  and  O_32 
ROOT
HETATM    1  C   UNL     1      42.318 -14.419   2.448  1.00  0.00     0.310 C 
ENDROOT
BRANCH   1   2
HETATM    2  C   UNL     1      40.949 -14.317   1.727  1.00  0.00     0.257 C 
HETATM    3  N   UNL     1      40.817 -13.408   0.711  1.00  0.00    -0.323 N 
HETATM    4  H   UNL     1      41.564 -12.744   0.507  1.00  0.00     0.169 HD
HETATM    5  O   UNL     1      40.125 -15.187   2.034  1.00  0.00    -0.270 OA
BRANCH   3   6
HETATM    6  C   UNL     1      39.772 -13.334  -0.245  1.00  0.00     0.069 A 
HETATM    7  C   UNL     1      39.610 -14.242  -1.297  1.00  0.00     0.039 A 
HETATM    8  C   UNL     1      38.583 -14.070  -2.235  1.00  0.00    -0.060 A 
HETATM    9  C   UNL     1      38.392 -15.060  -3.348  1.00  0.00     0.048 C 
HETATM   10  C   UNL     1      37.704 -12.993  -2.096  1.00  0.00     0.009 A 
HETATM   11  C   UNL     1      37.849 -12.086  -1.043  1.00  0.00     0.039 A 
HETATM   12  C   UNL     1      38.878 -12.252  -0.113  1.00  0.00     0.095 A 
BRANCH  12  13
HETATM   13  O   UNL     1      39.132 -11.410   0.947  1.00  0.00    -0.354 OA
HETATM   14  C   UNL     1      38.083 -11.245   1.897  1.00  0.00     0.210 C 
ENDBRANCH  12  13
ENDBRANCH   3   6
ENDBRANCH   1   2
BRANCH   1  15
HETATM   15  N   UNL     1      42.221 -13.478   3.623  1.00  0.00    -0.054 N 
HETATM   16  H   UNL     1      41.221 -13.209   3.663  1.00  0.00     0.278 HD
HETATM   17  H   UNL     1      42.361 -13.993   4.498  1.00  0.00     0.278 HD
BRANCH  15  18
HETATM   18  C   UNL     1      43.036 -12.243   3.631  1.00  0.00     0.272 C 
BRANCH  18  19
HETATM   19  C   UNL     1      43.185 -11.810   5.064  1.00  0.00    -0.033 A 
HETATM   20  C   UNL     1      42.595 -10.623   5.506  1.00  0.00     0.011 A 
HETATM   21  C   UNL     1      42.925 -10.092   6.758  1.00  0.00     0.030 A 
HETATM   22  C   UNL     1      43.852 -10.717   7.599  1.00  0.00     0.037 A 
HETATM   23  C   UNL     1      44.384 -11.943   7.175  1.00  0.00     0.030 A 
HETATM   24  C   UNL     1      44.064 -12.482   5.922  1.00  0.00     0.011 A 
BRANCH  22  25
HETATM   25  N   UNL     1      44.271 -10.127   8.822  1.00  0.00    -0.318 N 
HETATM   26  C   UNL     1      45.372  -9.267   8.987  1.00  0.00     0.224 C 
HETATM   27  O   UNL     1      46.132  -8.823   8.140  1.00  0.00    -0.273 OA
HETATM   28  C   UNL     1      45.558  -9.029  10.468  1.00  0.00     0.105 C 
HETATM   29  C   UNL     1      44.225  -9.447  11.058  1.00  0.00     0.029 C 
HETATM   30  C   UNL     1      43.742 -10.521  10.108  1.00  0.00     0.133 C 
ENDBRANCH  22  25
ENDBRANCH  18  19
ENDBRANCH  15  18
ENDBRANCH   1  15
BRANCH   1  31
HETATM   31  C   UNL     1      42.794 -15.806   2.813  1.00  0.00    -0.019 A 
HETATM   32  C   UNL     1      43.148 -16.080   4.146  1.00  0.00     0.010 A 
HETATM   33  C   UNL     1      43.613 -17.343   4.516  1.00  0.00     0.001 A 
HETATM   34  C   UNL     1      43.733 -18.347   3.561  1.00  0.00     0.000 A 
HETATM   35  C   UNL     1      43.397 -18.091   2.234  1.00  0.00     0.001 A 
HETATM   36  C   UNL     1      42.933 -16.828   1.857  1.00  0.00     0.010 A 
ENDBRANCH   1  31
TORSDOF 8
ENDMDL
MODEL 8
REMARK VINA RESULT:      -8.7      1.386      2.443
REMARK  8 active torsions:
REMARK  status: ('A' for Active; 'I' for Inactive)
REMARK    1  A    between atoms: C_4  and  N_5 
REMARK       I    between atoms: N_5  and  C_6 
REMARK    2  A    between atoms: C_6  and  C_7 
REMARK    3  A    between atoms: C_7  and  N_8 
REMARK    4  A    between atoms: C_7  and  C_24 
REMARK    5  A    between atoms: N_8  and  C_11 
REMARK    6  A    between atoms: C_11  and  C_12 
REMARK    7  A    between atoms: C_15  and  N_16 
REMARK    8  A    between atoms: C_31  and  O_32 
ROOT
HETATM    1  C   UNL     1      42.323 -15.682   3.468  1.00  0.00     0.310 C 
ENDROOT
BRANCH   1   2
HETATM    2  C   UNL     1      42.308 -14.808   2.188  1.00  0.00     0.257 C 
HETATM    3  N   UNL     1      41.145 -14.167   1.852  1.00  0.00    -0.323 N 
HETATM    4  H   UNL     1      40.285 -14.347   2.371  1.00  0.00     0.169 HD
HETATM    5  O   UNL     1      43.410 -14.637   1.652  1.00  0.00    -0.270 OA
BRANCH   3   6
HETATM    6  C   UNL     1      40.979 -13.126   0.905  1.00  0.00     0.069 A 
HETATM    7  C   UNL     1      41.388 -11.805   1.117  1.00  0.00     0.039 A 
HETATM    8  C   UNL     1      41.140 -10.819   0.152  1.00  0.00    -0.060 A 
HETATM    9  C   UNL     1      41.602  -9.406   0.367  1.00  0.00     0.048 C 
HETATM   10  C   UNL     1      40.500 -11.173  -1.039  1.00  0.00     0.009 A 
HETATM   11  C   UNL     1      40.097 -12.492  -1.266  1.00  0.00     0.039 A 
HETATM   12  C   UNL     1      40.336 -13.473  -0.301  1.00  0.00     0.095 A 
BRANCH  12  13
HETATM   13  O   UNL     1      39.963 -14.794  -0.406  1.00  0.00    -0.354 OA
HETATM   14  C   UNL     1      39.288 -15.175  -1.600  1.00  0.00     0.210 C 
ENDBRANCH  12  13
ENDBRANCH   3   6
ENDBRANCH   1   2
BRANCH   1  15
HETATM   15  N   UNL     1      40.901 -15.675   3.972  1.00  0.00    -0.054 N 
HETATM   16  H   UNL     1      40.493 -14.799   3.598  1.00  0.00     0.278 HD
HETATM   17  H   UNL     1      40.358 -16.407   3.501  1.00  0.00     0.278 HD
BRANCH  15  18
HETATM   18  C   UNL     1      40.649 -15.722   5.429  1.00  0.00     0.272 C 
BRANCH  18  19
HETATM   19  C   UNL     1      41.507 -14.667   6.070  1.00  0.00    -0.033 A 
HETATM   20  C   UNL     1      41.384 -13.329   5.684  1.00  0.00     0.011 A 
HETATM   21  C   UNL     1      42.332 -12.384   6.092  1.00  0.00     0.030 A 
HETATM   22  C   UNL     1      43.429 -12.741   6.885  1.00  0.00     0.037 A 
HETATM   23  C   UNL     1      43.503 -14.071   7.325  1.00  0.00     0.030 A 
HETATM   24  C   UNL     1      42.561 -15.025   6.918  1.00  0.00     0.011 A 
BRANCH  22  25
HETATM   25  N   UNL     1      44.451 -11.810   7.212  1.00  0.00    -0.318 N 
HETATM   26  C   UNL     1      44.426 -10.904   8.289  1.00  0.00     0.224 C 
HETATM   27  O   UNL     1      43.582 -10.774   9.161  1.00  0.00    -0.273 OA
HETATM   28  C   UNL     1      45.620  -9.987   8.152  1.00  0.00     0.105 C 
HETATM   29  C   UNL     1      46.528 -10.738   7.198  1.00  0.00     0.029 C 
HETATM   30  C   UNL     1      45.562 -11.519   6.335  1.00  0.00     0.133 C 
ENDBRANCH  22  25
ENDBRANCH  18  19
ENDBRANCH  15  18
ENDBRANCH   1  15
BRANCH   1  31
HETATM   31  C   UNL     1      42.921 -17.064   3.343  1.00  0.00    -0.019 A 
HETATM   32  C   UNL     1      42.535 -17.882   2.265  1.00  0.00     0.010 A 
HETATM   33  C   UNL     1      43.050 -19.172   2.129  1.00  0.00     0.001 A 
HETATM   34  C   UNL     1      43.954 -19.663   3.065  1.00  0.00     0.000 A 
HETATM   35  C   UNL     1      44.340 -18.871   4.144  1.00  0.00     0.001 A 
HETATM   36  C   UNL     1      43.827 -17.580   4.287  1.00  0.00     0.010 A 
ENDBRANCH   1  31
TORSDOF 8
ENDMDL
MODEL 9
REMARK VINA RESULT:      -8.5      1.975      7.735
REMARK  8 active torsions:
REMARK  status: ('A' for Active; 'I' for Inactive)
REMARK    1  A    between atoms: C_4  and  N_5 
REMARK       I    between atoms: N_5  and  C_6 
REMARK    2  A    between atoms: C_6  and  C_7 
REMARK    3  A    between atoms: C_7  and  N_8 
REMARK    4  A    between atoms: C_7  and  C_24 
REMARK    5  A    between atoms: N_8  and  C_11 
REMARK    6  A    between atoms: C_11  and  C_12 
REMARK    7  A    between atoms: C_15  and  N_16 
REMARK    8  A    between atoms: C_31  and  O_32 
ROOT
HETATM    1  C   UNL     1      43.356 -10.873   6.808  1.00  0.00     0.310 C 
ENDROOT
BRANCH   1   2
HETATM    2  C   UNL     1      43.603 -12.348   6.399  1.00  0.00     0.257 C 
HETATM    3  N   UNL     1      42.597 -13.022   5.757  1.00  0.00    -0.323 N 
HETATM    4  H   UNL     1      41.676 -12.598   5.649  1.00  0.00     0.169 HD
HETATM    5  O   UNL     1      44.763 -12.752   6.552  1.00  0.00    -0.270 OA
BRANCH   3   6
HETATM    6  C   UNL     1      42.694 -14.255   5.065  1.00  0.00     0.069 A 
HETATM    7  C   UNL     1      42.999 -14.365   3.705  1.00  0.00     0.039 A 
HETATM    8  C   UNL     1      43.022 -15.619   3.079  1.00  0.00    -0.060 A 
HETATM    9  C   UNL     1      43.376 -15.741   1.625  1.00  0.00     0.048 C 
HETATM   10  C   UNL     1      42.760 -16.765   3.835  1.00  0.00     0.009 A 
HETATM   11  C   UNL     1      42.464 -16.668   5.197  1.00  0.00     0.039 A 
HETATM   12  C   UNL     1      42.432 -15.418   5.819  1.00  0.00     0.095 A 
BRANCH  12  13
HETATM   13  O   UNL     1      42.131 -15.200   7.145  1.00  0.00    -0.354 OA
HETATM   14  C   UNL     1      43.065 -15.689   8.102  1.00  0.00     0.210 C 
ENDBRANCH  12  13
ENDBRANCH   3   6
ENDBRANCH   1   2
BRANCH   1  15
HETATM   15  N   UNL     1      41.858 -10.727   6.887  1.00  0.00    -0.054 N 
HETATM   16  H   UNL     1      41.488 -11.659   6.626  1.00  0.00     0.278 HD
HETATM   17  H   UNL     1      41.565 -10.625   7.864  1.00  0.00     0.278 HD
BRANCH  15  18
HETATM   18  C   UNL     1      41.184  -9.708   6.053  1.00  0.00     0.272 C 
BRANCH  18  19
HETATM   19  C   UNL     1      40.845 -10.353   4.737  1.00  0.00    -0.033 A 
HETATM   20  C   UNL     1      39.683 -11.119   4.607  1.00  0.00     0.011 A 
HETATM   21  C   UNL     1      39.482 -11.915   3.474  1.00  0.00     0.030 A 
HETATM   22  C   UNL     1      40.429 -11.978   2.445  1.00  0.00     0.037 A 
HETATM   23  C   UNL     1      41.557 -11.152   2.553  1.00  0.00     0.030 A 
HETATM   24  C   UNL     1      41.769 -10.354   3.686  1.00  0.00     0.011 A 
BRANCH  22  25
HETATM   25  N   UNL     1      40.281 -12.865   1.344  1.00  0.00    -0.318 N 
HETATM   26  C   UNL     1      39.946 -14.229   1.425  1.00  0.00     0.224 C 
HETATM   27  O   UNL     1      39.669 -14.893   2.412  1.00  0.00    -0.273 OA
HETATM   28  C   UNL     1      40.078 -14.822   0.041  1.00  0.00     0.105 C 
HETATM   29  C   UNL     1      40.067 -13.605  -0.862  1.00  0.00     0.029 C 
HETATM   30  C   UNL     1      40.682 -12.523  -0.001  1.00  0.00     0.133 C 
ENDBRANCH  22  25
ENDBRANCH  18  19
ENDBRANCH  15  18
ENDBRANCH   1  15
BRANCH   1  31
HETATM   31  C   UNL     1      44.086 -10.375   8.035  1.00  0.00    -0.019 A 
HETATM   32  C   UNL     1      43.470 -10.497   9.293  1.00  0.00     0.010 A 
HETATM   33  C   UNL     1      44.104 -10.028  10.445  1.00  0.00     0.001 A 
HETATM   34  C   UNL     1      45.357  -9.431  10.356  1.00  0.00     0.000 A 
HETATM   35  C   UNL     1      45.977  -9.294   9.117  1.00  0.00     0.001 A 
HETATM   36  C   UNL     1      45.347  -9.759   7.960  1.00  0.00     0.010 A 
ENDBRANCH   1  31
TORSDOF 8
ENDMDL
MODEL 10
REMARK VINA RESULT:      -8.4      2.211      5.870
REMARK  8 active torsions:
REMARK  status: ('A' for Active; 'I' for Inactive)
REMARK    1  A    between atoms: C_4  and  N_5 
REMARK       I    between atoms: N_5  and  C_6 
REMARK    2  A    between atoms: C_6  and  C_7 
REMARK    3  A    between atoms: C_7  and  N_8 
REMARK    4  A    between atoms: C_7  and  C_24 
REMARK    5  A    between atoms: N_8  and  C_11 
REMARK    6  A    between atoms: C_11  and  C_12 
REMARK    7  A    between atoms: C_15  and  N_16 
REMARK    8  A    between atoms: C_31  and  O_32 
ROOT
HETATM    1  C   UNL     1      41.417 -14.025   3.746  1.00  0.00     0.310 C 
ENDROOT
BRANCH   1   2
HETATM    2  C   UNL     1      41.589 -15.560   3.611  1.00  0.00     0.257 C 
HETATM    3  N   UNL     1      42.857 -16.064   3.496  1.00  0.00    -0.323 N 
HETATM    4  H   UNL     1      43.657 -15.439   3.395  1.00  0.00     0.169 HD
HETATM    5  O   UNL     1      40.557 -16.223   3.775  1.00  0.00    -0.270 OA
BRANCH   3   6
HETATM    6  C   UNL     1      43.260 -17.417   3.634  1.00  0.00     0.069 A 
HETATM    7  C   UNL     1      43.338 -18.320   2.569  1.00  0.00     0.039 A 
HETATM    8  C   UNL     1      43.693 -19.657   2.793  1.00  0.00    -0.060 A 
HETATM    9  C   UNL     1      43.803 -20.621   1.647  1.00  0.00     0.048 C 
HETATM   10  C   UNL     1      43.992 -20.076   4.092  1.00  0.00     0.009 A 
HETATM   11  C   UNL     1      43.929 -19.180   5.162  1.00  0.00     0.039 A 
HETATM   12  C   UNL     1      43.567 -17.849   4.940  1.00  0.00     0.095 A 
BRANCH  12  13
HETATM   13  O   UNL     1      43.448 -16.887   5.918  1.00  0.00    -0.354 OA
HETATM   14  C   UNL     1      44.657 -16.428   6.514  1.00  0.00     0.210 C 
ENDBRANCH  12  13
ENDBRANCH   3   6
ENDBRANCH   1   2
BRANCH   1  15
HETATM   15  N   UNL     1      42.818 -13.466   3.742  1.00  0.00    -0.054 N 
HETATM   16  H   UNL     1      43.266 -13.872   4.583  1.00  0.00     0.278 HD
HETATM   17  H   UNL     1      43.356 -13.872   2.970  1.00  0.00     0.278 HD
BRANCH  15  18
HETATM   18  C   UNL     1      43.013 -12.000   3.772  1.00  0.00     0.272 C 
BRANCH  18  19
HETATM   19  C   UNL     1      42.990 -11.571   5.214  1.00  0.00    -0.033 A 
HETATM   20  C   UNL     1      41.915 -10.828   5.711  1.00  0.00     0.011 A 
HETATM   21  C   UNL     1      41.994 -10.222   6.969  1.00  0.00     0.030 A 
HETATM   22  C   UNL     1      43.142 -10.329   7.764  1.00  0.00     0.037 A 
HETATM   23  C   UNL     1      44.185 -11.135   7.286  1.00  0.00     0.030 A 
HETATM   24  C   UNL     1      44.117 -11.743   6.025  1.00  0.00     0.011 A 
BRANCH  22  25
HETATM   25  N   UNL     1      43.269  -9.629   8.994  1.00  0.00    -0.318 N 
HETATM   26  C   UNL     1      43.606 -10.198  10.235  1.00  0.00     0.224 C 
HETATM   27  O   UNL     1      43.901 -11.355  10.493  1.00  0.00    -0.273 OA
HETATM   28  C   UNL     1      43.447  -9.131  11.294  1.00  0.00     0.105 C 
HETATM   29  C   UNL     1      43.442  -7.844  10.493  1.00  0.00     0.029 C 
HETATM   30  C   UNL     1      42.843  -8.259   9.167  1.00  0.00     0.133 C 
ENDBRANCH  22  25
ENDBRANCH  18  19
ENDBRANCH  15  18
ENDBRANCH   1  15
BRANCH   1  31
HETATM   31  C   UNL     1      40.487 -13.354   2.762  1.00  0.00    -0.019 A 
HETATM   32  C   UNL     1      39.452 -12.534   3.247  1.00  0.00     0.010 A 
HETATM   33  C   UNL     1      38.561 -11.917   2.369  1.00  0.00     0.001 A 
HETATM   34  C   UNL     1      38.689 -12.109   0.997  1.00  0.00     0.000 A 
HETATM   35  C   UNL     1      39.701 -12.926   0.500  1.00  0.00     0.001 A 
HETATM   36  C   UNL     1      40.595 -13.549   1.373  1.00  0.00     0.010 A 
ENDBRANCH   1  31
TORSDOF 8
ENDMDL
