MODEL 1
REMARK VINA RESULT:      -9.1      0.000      0.000
REMARK  9 active torsions:
REMARK  status: ('A' for Active; 'I' for Inactive)
REMARK    1  A    between atoms: C_2  and  O_3 
REMARK    2  A    between atoms: O_3  and  C_4 
REMARK    3  A    between atoms: C_7  and  N_8 
REMARK    4  A    between atoms: C_9  and  S_10 
REMARK    5  A    between atoms: S_10  and  C_11 
REMARK    6  A    between atoms: C_11  and  C_12 
REMARK       I    between atoms: C_12  and  N_13 
REMARK    7  A    between atoms: N_13  and  C_14 
REMARK    8  A    between atoms: C_17  and  S_18 
REMARK    9  A    between atoms: S_18  and  N_19 
ROOT
HETATM    1  N   UNL     1      40.871 -14.404   1.971  1.00  0.00    -0.256 N 
HETATM    2  C   UNL     1      40.312 -13.807   3.107  1.00  0.00     0.177 A 
HETATM    3  N   UNL     1      40.573 -14.119   4.339  1.00  0.00    -0.216 NA
HETATM    4  C   UNL     1      41.414 -15.162   4.498  1.00  0.00     0.117 A 
HETATM    5  C   UNL     1      41.996 -15.900   3.497  1.00  0.00     0.076 A 
HETATM    6  C   UNL     1      41.732 -15.515   2.120  1.00  0.00     0.268 A 
HETATM    7  O   UNL     1      42.267 -16.126   1.197  1.00  0.00    -0.267 OA
HETATM    8  S   UNL     1      41.815 -15.745   6.049  1.00  0.00    -0.073 SA
HETATM    9  C   UNL     1      42.751 -17.003   5.394  1.00  0.00    -0.008 A 
HETATM   10  C   UNL     1      42.798 -16.972   4.012  1.00  0.00    -0.026 A 
HETATM   11  C   UNL     1      43.567 -17.991   3.221  1.00  0.00     0.041 C 
HETATM   12  C   UNL     1      44.535 -18.796   4.105  1.00  0.00     0.005 C 
HETATM   13  C   UNL     1      43.885 -19.219   5.430  1.00  0.00     0.005 C 
HETATM   14  C   UNL     1      43.455 -18.001   6.261  1.00  0.00     0.047 C 
ENDROOT
BRANCH   2  15
HETATM   15  S   UNL     1      39.042 -12.593   2.958  1.00  0.00    -0.082 SA
BRANCH  15  16
HETATM   16  C   UNL     1      40.025 -11.118   3.362  1.00  0.00     0.185 C 
BRANCH  16  17
HETATM   17  C   UNL     1      40.360 -10.905   4.838  1.00  0.00     0.231 C 
HETATM   18  N   UNL     1      41.654 -10.527   5.121  1.00  0.00    -0.327 N 
HETATM   19  H   UNL     1      42.276 -10.455   4.319  1.00  0.00     0.169 HD
HETATM   20  O   UNL     1      39.486 -11.120   5.679  1.00  0.00    -0.272 OA
BRANCH  18  21
HETATM   21  C   UNL     1      42.270 -10.362   6.376  1.00  0.00     0.034 A 
HETATM   22  C   UNL     1      41.969  -9.334   7.271  1.00  0.00     0.031 A 
HETATM   23  C   UNL     1      42.602  -9.272   8.519  1.00  0.00     0.027 A 
HETATM   24  C   UNL     1      43.540 -10.244   8.870  1.00  0.00     0.074 A 
HETATM   25  C   UNL     1      43.872 -11.261   7.974  1.00  0.00     0.027 A 
HETATM   26  C   UNL     1      43.232 -11.318   6.734  1.00  0.00     0.031 A 
BRANCH  24  27
HETATM   27  S   UNL     1      44.349 -10.171  10.439  1.00  0.00     0.239 S 
HETATM   28  O   UNL     1      45.730 -10.569  10.278  1.00  0.00    -0.206 OA
HETATM   29  O   UNL     1      43.967  -8.959  11.123  1.00  0.00    -0.206 OA
BRANCH  27  30
HETATM   30  N   UNL     1      43.602 -11.423  11.273  1.00  0.00    -0.225 NA
HETATM   31  H   UNL     1      43.725 -12.300  10.766  1.00  0.00     0.136 HD
HETATM   32  H   UNL     1      43.942 -11.448  12.234  1.00  0.00     0.136 HD
ENDBRANCH  27  30
ENDBRANCH  24  27
ENDBRANCH  18  21
ENDBRANCH  16  17
ENDBRANCH  15  16
ENDBRANCH   2  15
BRANCH   1  33
HETATM   33  C   UNL     1      40.681 -13.898   0.639  1.00  0.00     0.045 A 
HETATM   34  C   UNL     1      41.244 -12.676   0.249  1.00  0.00     0.033 A 
HETATM   35  C   UNL     1      41.008 -12.152  -1.025  1.00  0.00     0.039 A 
HETATM   36  C   UNL     1      40.195 -12.827  -1.935  1.00  0.00     0.068 A 
HETATM   37  C   UNL     1      39.631 -14.045  -1.563  1.00  0.00     0.039 A 
HETATM   38  C   UNL     1      39.865 -14.571  -0.284  1.00  0.00     0.033 A 
BRANCH  36  39
HETATM   39  O   UNL     1      40.026 -12.192  -3.133  1.00  0.00    -0.352 OA
BRANCH  39  40
HETATM   40  C   UNL     1      40.187 -10.775  -3.147  1.00  0.00     0.171 C 
HETATM   41  C   UNL     1      38.831 -10.153  -3.432  1.00  0.00     0.034 C 
ENDBRANCH  39  40
ENDBRANCH  36  39
ENDBRANCH   1  33
TORSDOF 9
ENDMDL
MODEL 2
REMARK VINA RESULT:      -9.0      2.634      3.829
REMARK  9 active torsions:
REMARK  status: ('A' for Active; 'I' for Inactive)
REMARK    1  A    between atoms: C_2  and  O_3 
REMARK    2  A    between atoms: O_3  and  C_4 
REMARK    3  A    between atoms: C_7  and  N_8 
REMARK    4  A    between atoms: C_9  and  S_10 
REMARK    5  A    between atoms: S_10  and  C_11 
REMARK    6  A    between atoms: C_11  and  C_12 
REMARK       I    between atoms: C_12  and  N_13 
REMARK    7  A    between atoms: N_13  and  C_14 
REMARK    8  A    between atoms: C_17  and  S_18 
REMARK    9  A    between atoms: S_18  and  N_19 
ROOT
HETATM    1  N   UNL     1      42.243 -13.815   4.081  1.00  0.00    -0.256 N 
HETATM    2  C   UNL     1      42.798 -13.727   5.364  1.00  0.00     0.177 A 
HETATM    3  N   UNL     1      43.471 -14.657   5.968  1.00  0.00    -0.216 NA
HETATM    4  C   UNL     1      43.571 -15.821   5.295  1.00  0.00     0.117 A 
HETATM    5  C   UNL     1      43.031 -16.098   4.062  1.00  0.00     0.076 A 
HETATM    6  C   UNL     1      42.314 -15.037   3.373  1.00  0.00     0.268 A 
HETATM    7  O   UNL     1      41.853 -15.234   2.252  1.00  0.00    -0.267 OA
HETATM    8  S   UNL     1      44.368 -17.168   5.970  1.00  0.00    -0.073 SA
HETATM    9  C   UNL     1      43.979 -18.139   4.630  1.00  0.00    -0.008 A 
HETATM   10  C   UNL     1      43.281 -17.450   3.655  1.00  0.00    -0.026 A 
HETATM   11  C   UNL     1      42.832 -18.113   2.384  1.00  0.00     0.041 C 
HETATM   12  C   UNL     1      43.529 -19.465   2.161  1.00  0.00     0.005 C 
HETATM   13  C   UNL     1      43.593 -20.297   3.450  1.00  0.00     0.005 C 
HETATM   14  C   UNL     1      44.392 -19.576   4.547  1.00  0.00     0.047 C 
ENDROOT
BRANCH   2  15
HETATM   15  S   UNL     1      42.510 -12.315   6.378  1.00  0.00    -0.082 SA
BRANCH  15  16
HETATM   16  C   UNL     1      44.209 -12.049   6.966  1.00  0.00     0.185 C 
BRANCH  16  17
HETATM   17  C   UNL     1      44.374 -11.149   8.192  1.00  0.00     0.231 C 
HETATM   18  N   UNL     1      43.228 -10.559   8.674  1.00  0.00    -0.327 N 
HETATM   19  H   UNL     1      42.378 -10.754   8.148  1.00  0.00     0.169 HD
HETATM   20  O   UNL     1      45.506 -10.972   8.644  1.00  0.00    -0.272 OA
BRANCH  18  21
HETATM   21  C   UNL     1      43.089  -9.615   9.709  1.00  0.00     0.034 A 
HETATM   22  C   UNL     1      42.961  -8.240   9.507  1.00  0.00     0.031 A 
HETATM   23  C   UNL     1      42.782  -7.376  10.596  1.00  0.00     0.027 A 
HETATM   24  C   UNL     1      42.733  -7.895  11.891  1.00  0.00     0.074 A 
HETATM   25  C   UNL     1      42.889  -9.264  12.110  1.00  0.00     0.027 A 
HETATM   26  C   UNL     1      43.061 -10.118  11.018  1.00  0.00     0.031 A 
BRANCH  24  27
HETATM   27  S   UNL     1      42.516  -6.814  13.271  1.00  0.00     0.239 S 
HETATM   28  O   UNL     1      43.538  -7.091  14.255  1.00  0.00    -0.206 OA
HETATM   29  O   UNL     1      42.236  -5.478  12.799  1.00  0.00    -0.206 OA
BRANCH  27  30
HETATM   30  N   UNL     1      41.077  -7.377  13.929  1.00  0.00    -0.225 NA
HETATM   31  H   UNL     1      40.344  -6.678  13.811  1.00  0.00     0.136 HD
HETATM   32  H   UNL     1      40.849  -8.289  13.531  1.00  0.00     0.136 HD
ENDBRANCH  27  30
ENDBRANCH  24  27
ENDBRANCH  18  21
ENDBRANCH  16  17
ENDBRANCH  15  16
ENDBRANCH   2  15
BRANCH   1  33
HETATM   33  C   UNL     1      41.663 -12.694   3.394  1.00  0.00     0.045 A 
HETATM   34  C   UNL     1      40.277 -12.493   3.393  1.00  0.00     0.033 A 
HETATM   35  C   UNL     1      39.706 -11.439   2.673  1.00  0.00     0.039 A 
HETATM   36  C   UNL     1      40.502 -10.570   1.928  1.00  0.00     0.068 A 
HETATM   37  C   UNL     1      41.883 -10.755   1.924  1.00  0.00     0.039 A 
HETATM   38  C   UNL     1      42.456 -11.813   2.643  1.00  0.00     0.033 A 
BRANCH  36  39
HETATM   39  O   UNL     1      39.815  -9.602   1.252  1.00  0.00    -0.352 OA
BRANCH  39  40
HETATM   40  C   UNL     1      38.747 -10.030   0.409  1.00  0.00     0.171 C 
HETATM   41  C   UNL     1      39.337 -10.403  -0.940  1.00  0.00     0.034 C 
ENDBRANCH  39  40
ENDBRANCH  36  39
ENDBRANCH   1  33
TORSDOF 9
ENDMDL
MODEL 3
REMARK VINA RESULT:      -8.8      2.404      3.274
REMARK  9 active torsions:
REMARK  status: ('A' for Active; 'I' for Inactive)
REMARK    1  A    between atoms: C_2  and  O_3 
REMARK    2  A    between atoms: O_3  and  C_4 
REMARK    3  A    between atoms: C_7  and  N_8 
REMARK    4  A    between atoms: C_9  and  S_10 
REMARK    5  A    between atoms: S_10  and  C_11 
REMARK    6  A    between atoms: C_11  and  C_12 
REMARK       I    between atoms: C_12  and  N_13 
REMARK    7  A    between atoms: N_13  and  C_14 
REMARK    8  A    between atoms: C_17  and  S_18 
REMARK    9  A    between atoms: S_18  and  N_19 
ROOT
HETATM    1  N   UNL     1      41.786 -14.317   3.482  1.00  0.00    -0.256 N 
HETATM    2  C   UNL     1      42.379 -14.028   4.718  1.00  0.00     0.177 A 
HETATM    3  N   UNL     1      43.168 -14.811   5.385  1.00  0.00    -0.216 NA
HETATM    4  C   UNL     1      43.362 -16.029   4.838  1.00  0.00     0.117 A 
HETATM    5  C   UNL     1      42.807 -16.497   3.673  1.00  0.00     0.076 A 
HETATM    6  C   UNL     1      41.956 -15.597   2.910  1.00  0.00     0.268 A 
HETATM    7  O   UNL     1      41.474 -15.966   1.841  1.00  0.00    -0.267 OA
HETATM    8  S   UNL     1      44.323 -17.204   5.615  1.00  0.00    -0.073 SA
HETATM    9  C   UNL     1      43.984 -18.355   4.411  1.00  0.00    -0.008 A 
HETATM   10  C   UNL     1      43.181 -17.855   3.403  1.00  0.00    -0.026 A 
HETATM   11  C   UNL     1      42.754 -18.699   2.237  1.00  0.00     0.041 C 
HETATM   12  C   UNL     1      43.580 -19.992   2.128  1.00  0.00     0.005 C 
HETATM   13  C   UNL     1      43.781 -20.661   3.495  1.00  0.00     0.005 C 
HETATM   14  C   UNL     1      44.542 -19.744   4.465  1.00  0.00     0.047 C 
ENDROOT
BRANCH   2  15
HETATM   15  S   UNL     1      41.984 -12.545   5.585  1.00  0.00    -0.082 SA
BRANCH  15  16
HETATM   16  C   UNL     1      43.657 -11.846   5.707  1.00  0.00     0.185 C 
BRANCH  16  17
HETATM   17  C   UNL     1      43.958 -11.009   6.951  1.00  0.00     0.231 C 
HETATM   18  N   UNL     1      42.912 -10.818   7.825  1.00  0.00    -0.327 N 
HETATM   19  H   UNL     1      42.024 -11.229   7.545  1.00  0.00     0.169 HD
HETATM   20  O   UNL     1      45.084 -10.526   7.077  1.00  0.00    -0.272 OA
BRANCH  18  21
HETATM   21  C   UNL     1      42.865 -10.019   8.983  1.00  0.00     0.034 A 
HETATM   22  C   UNL     1      43.819 -10.051  10.001  1.00  0.00     0.031 A 
HETATM   23  C   UNL     1      43.716  -9.187  11.098  1.00  0.00     0.027 A 
HETATM   24  C   UNL     1      42.650  -8.288  11.174  1.00  0.00     0.074 A 
HETATM   25  C   UNL     1      41.673  -8.265  10.179  1.00  0.00     0.027 A 
HETATM   26  C   UNL     1      41.787  -9.127   9.086  1.00  0.00     0.031 A 
BRANCH  24  27
HETATM   27  S   UNL     1      42.506  -7.199  12.558  1.00  0.00     0.239 S 
HETATM   28  O   UNL     1      43.455  -7.595  13.574  1.00  0.00    -0.206 OA
HETATM   29  O   UNL     1      42.393  -5.838  12.092  1.00  0.00    -0.206 OA
BRANCH  27  30
HETATM   30  N   UNL     1      40.991  -7.603  13.160  1.00  0.00    -0.225 NA
HETATM   31  H   UNL     1      40.264  -7.247  12.539  1.00  0.00     0.136 HD
HETATM   32  H   UNL     1      40.942  -8.610  13.323  1.00  0.00     0.136 HD
ENDBRANCH  27  30
ENDBRANCH  24  27
ENDBRANCH  18  21
ENDBRANCH  16  17
ENDBRANCH  15  16
ENDBRANCH   2  15
BRANCH   1  33
HETATM   33  C   UNL     1      41.065 -13.344   2.707  1.00  0.00     0.045 A 
HETATM   34  C   UNL     1      39.677 -13.207   2.841  1.00  0.00     0.033 A 
HETATM   35  C   UNL     1      38.966 -12.305   2.043  1.00  0.00     0.039 A 
HETATM   36  C   UNL     1      39.619 -11.531   1.085  1.00  0.00     0.068 A 
HETATM   37  C   UNL     1      41.000 -11.654   0.944  1.00  0.00     0.039 A 
HETATM   38  C   UNL     1      41.714 -12.559   1.742  1.00  0.00     0.033 A 
BRANCH  36  39
HETATM   39  O   UNL     1      38.803 -10.713   0.357  1.00  0.00    -0.352 OA
BRANCH  39  40
HETATM   40  C   UNL     1      37.622 -11.293  -0.193  1.00  0.00     0.171 C 
HETATM   41  C   UNL     1      38.001 -11.984  -1.491  1.00  0.00     0.034 C 
ENDBRANCH  39  40
ENDBRANCH  36  39
ENDBRANCH   1  33
TORSDOF 9
ENDMDL
MODEL 4
REMARK VINA RESULT:      -8.5      2.215      6.493
REMARK  9 active torsions:
REMARK  status: ('A' for Active; 'I' for Inactive)
REMARK    1  A    between atoms: C_2  and  O_3 
REMARK    2  A    between atoms: O_3  and  C_4 
REMARK    3  A    between atoms: C_7  and  N_8 
REMARK    4  A    between atoms: C_9  and  S_10 
REMARK    5  A    between atoms: S_10  and  C_11 
REMARK    6  A    between atoms: C_11  and  C_12 
REMARK       I    between atoms: C_12  and  N_13 
REMARK    7  A    between atoms: N_13  and  C_14 
REMARK    8  A    between atoms: C_17  and  S_18 
REMARK    9  A    between atoms: S_18  and  N_19 
ROOT
HETATM    1  N   UNL     1      41.678 -13.774   1.916  1.00  0.00    -0.256 N 
HETATM    2  C   UNL     1      42.075 -12.491   2.315  1.00  0.00     0.177 A 
HETATM    3  N   UNL     1      41.589 -11.373   1.874  1.00  0.00    -0.216 NA
HETATM    4  C   UNL     1      40.665 -11.495   0.899  1.00  0.00     0.117 A 
HETATM    5  C   UNL     1      40.212 -12.668   0.347  1.00  0.00     0.076 A 
HETATM    6  C   UNL     1      40.732 -13.919   0.877  1.00  0.00     0.268 A 
HETATM    7  O   UNL     1      40.321 -14.991   0.437  1.00  0.00    -0.267 OA
HETATM    8  S   UNL     1      39.968 -10.123   0.164  1.00  0.00    -0.073 SA
HETATM    9  C   UNL     1      39.074 -11.087  -0.913  1.00  0.00    -0.008 A 
HETATM   10  C   UNL     1      39.264 -12.441  -0.704  1.00  0.00    -0.026 A 
HETATM   11  C   UNL     1      38.574 -13.477  -1.544  1.00  0.00     0.041 C 
HETATM   12  C   UNL     1      37.418 -12.879  -2.363  1.00  0.00     0.005 C 
HETATM   13  C   UNL     1      37.804 -11.539  -3.006  1.00  0.00     0.005 C 
HETATM   14  C   UNL     1      38.168 -10.489  -1.945  1.00  0.00     0.047 C 
ENDROOT
BRANCH   2  15
HETATM   15  S   UNL     1      43.431 -12.268   3.418  1.00  0.00    -0.082 SA
BRANCH  15  16
HETATM   16  C   UNL     1      42.863 -10.751   4.244  1.00  0.00     0.185 C 
BRANCH  16  17
HETATM   17  C   UNL     1      42.390 -10.898   5.691  1.00  0.00     0.231 C 
HETATM   18  N   UNL     1      42.365  -9.746   6.445  1.00  0.00    -0.327 N 
HETATM   19  H   UNL     1      42.694  -8.905   5.974  1.00  0.00     0.169 HD
HETATM   20  O   UNL     1      42.106 -12.022   6.107  1.00  0.00    -0.272 OA
BRANCH  18  21
HETATM   21  C   UNL     1      42.079  -9.593   7.814  1.00  0.00     0.034 A 
HETATM   22  C   UNL     1      40.818  -9.278   8.324  1.00  0.00     0.031 A 
HETATM   23  C   UNL     1      40.614  -9.189   9.707  1.00  0.00     0.027 A 
HETATM   24  C   UNL     1      41.678  -9.417  10.581  1.00  0.00     0.074 A 
HETATM   25  C   UNL     1      42.951  -9.704  10.085  1.00  0.00     0.027 A 
HETATM   26  C   UNL     1      43.143  -9.796   8.705  1.00  0.00     0.031 A 
BRANCH  24  27
HETATM   27  S   UNL     1      41.433  -9.299  12.327  1.00  0.00     0.239 S 
HETATM   28  O   UNL     1      42.665  -9.639  13.002  1.00  0.00    -0.206 OA
HETATM   29  O   UNL     1      40.688  -8.101  12.630  1.00  0.00    -0.206 OA
BRANCH  27  30
HETATM   30  N   UNL     1      40.382 -10.578  12.615  1.00  0.00    -0.225 NA
HETATM   31  H   UNL     1      40.885 -11.349  13.054  1.00  0.00     0.136 HD
HETATM   32  H   UNL     1      39.578 -10.248  13.150  1.00  0.00     0.136 HD
ENDBRANCH  27  30
ENDBRANCH  24  27
ENDBRANCH  18  21
ENDBRANCH  16  17
ENDBRANCH  15  16
ENDBRANCH   2  15
BRANCH   1  33
HETATM   33  C   UNL     1      42.125 -14.976   2.567  1.00  0.00     0.045 A 
HETATM   34  C   UNL     1      41.622 -15.340   3.823  1.00  0.00     0.033 A 
HETATM   35  C   UNL     1      42.102 -16.474   4.485  1.00  0.00     0.039 A 
HETATM   36  C   UNL     1      43.101 -17.263   3.917  1.00  0.00     0.068 A 
HETATM   37  C   UNL     1      43.607 -16.916   2.666  1.00  0.00     0.039 A 
HETATM   38  C   UNL     1      43.129 -15.776   2.002  1.00  0.00     0.033 A 
BRANCH  36  39
HETATM   39  O   UNL     1      43.496 -18.325   4.680  1.00  0.00    -0.352 OA
BRANCH  39  40
HETATM   40  C   UNL     1      44.164 -19.394   4.013  1.00  0.00     0.171 C 
HETATM   41  C   UNL     1      44.237 -20.570   4.972  1.00  0.00     0.034 C 
ENDBRANCH  39  40
ENDBRANCH  36  39
ENDBRANCH   1  33
TORSDOF 9
ENDMDL
MODEL 5
REMARK VINA RESULT:      -8.4      1.397      1.568
REMARK  9 active torsions:
REMARK  status: ('A' for Active; 'I' for Inactive)
REMARK    1  A    between atoms: C_2  and  O_3 
REMARK    2  A    between atoms: O_3  and  C_4 
REMARK    3  A    between atoms: C_7  and  N_8 
REMARK    4  A    between atoms: C_9  and  S_10 
REMARK    5  A    between atoms: S_10  and  C_11 
REMARK    6  A    between atoms: C_11  and  C_12 
REMARK       I    between atoms: C_12  and  N_13 
REMARK    7  A    between atoms: N_13  and  C_14 
REMARK    8  A    between atoms: C_17  and  S_18 
REMARK    9  A    between atoms: S_18  and  N_19 
ROOT
HETATM    1  N   UNL     1      40.855 -12.793   1.535  1.00  0.00    -0.256 N 
HETATM    2  C   UNL     1      41.037 -11.995   2.672  1.00  0.00     0.177 A 
HETATM    3  N   UNL     1      41.705 -12.322   3.734  1.00  0.00    -0.216 NA
HETATM    4  C   UNL     1      42.203 -13.576   3.732  1.00  0.00     0.117 A 
HETATM    5  C   UNL     1      42.060 -14.508   2.734  1.00  0.00     0.076 A 
HETATM    6  C   UNL     1      41.345 -14.118   1.529  1.00  0.00     0.268 A 
HETATM    7  O   UNL     1      41.233 -14.911   0.597  1.00  0.00    -0.267 OA
HETATM    8  S   UNL     1      43.054 -14.191   5.075  1.00  0.00    -0.073 SA
HETATM    9  C   UNL     1      43.220 -15.715   4.342  1.00  0.00    -0.008 A 
HETATM   10  C   UNL     1      42.670 -15.761   3.074  1.00  0.00    -0.026 A 
HETATM   11  C   UNL     1      42.700 -17.011   2.241  1.00  0.00     0.041 C 
HETATM   12  C   UNL     1      43.686 -18.051   2.799  1.00  0.00     0.005 C 
HETATM   13  C   UNL     1      43.585 -18.177   4.325  1.00  0.00     0.005 C 
HETATM   14  C   UNL     1      43.918 -16.851   5.024  1.00  0.00     0.047 C 
ENDROOT
BRANCH   2  15
HETATM   15  S   UNL     1      40.224 -10.438   2.821  1.00  0.00    -0.082 SA
BRANCH  15  16
HETATM   16  C   UNL     1      39.068 -10.860   4.159  1.00  0.00     0.185 C 
BRANCH  16  17
HETATM   17  C   UNL     1      39.645 -10.887   5.576  1.00  0.00     0.231 C 
HETATM   18  N   UNL     1      40.779 -10.136   5.787  1.00  0.00    -0.327 N 
HETATM   19  H   UNL     1      41.147  -9.656   4.968  1.00  0.00     0.169 HD
HETATM   20  O   UNL     1      39.099 -11.597   6.421  1.00  0.00    -0.272 OA
BRANCH  18  21
HETATM   21  C   UNL     1      41.579 -10.051   6.942  1.00  0.00     0.034 A 
HETATM   22  C   UNL     1      41.240  -9.320   8.081  1.00  0.00     0.031 A 
HETATM   23  C   UNL     1      42.076  -9.328   9.205  1.00  0.00     0.027 A 
HETATM   24  C   UNL     1      43.257 -10.071   9.184  1.00  0.00     0.074 A 
HETATM   25  C   UNL     1      43.624 -10.783   8.042  1.00  0.00     0.027 A 
HETATM   26  C   UNL     1      42.781 -10.774   6.929  1.00  0.00     0.031 A 
BRANCH  24  27
HETATM   27  S   UNL     1      44.324 -10.081  10.593  1.00  0.00     0.239 S 
HETATM   28  O   UNL     1      45.642 -10.509  10.186  1.00  0.00    -0.206 OA
HETATM   29  O   UNL     1      44.104  -8.886  11.373  1.00  0.00    -0.206 OA
BRANCH  27  30
HETATM   30  N   UNL     1      43.687 -11.344  11.500  1.00  0.00    -0.225 NA
HETATM   31  H   UNL     1      43.044 -10.978  12.201  1.00  0.00     0.136 HD
HETATM   32  H   UNL     1      43.273 -12.040  10.878  1.00  0.00     0.136 HD
ENDBRANCH  27  30
ENDBRANCH  24  27
ENDBRANCH  18  21
ENDBRANCH  16  17
ENDBRANCH  15  16
ENDBRANCH   2  15
BRANCH   1  33
HETATM   33  C   UNL     1      40.257 -12.311   0.320  1.00  0.00     0.045 A 
HETATM   34  C   UNL     1      41.030 -11.657  -0.648  1.00  0.00     0.033 A 
HETATM   35  C   UNL     1      40.439 -11.132  -1.802  1.00  0.00     0.039 A 
HETATM   36  C   UNL     1      39.064 -11.235  -2.010  1.00  0.00     0.068 A 
HETATM   37  C   UNL     1      38.284 -11.887  -1.057  1.00  0.00     0.039 A 
HETATM   38  C   UNL     1      38.875 -12.412   0.101  1.00  0.00     0.033 A 
BRANCH  36  39
HETATM   39  O   UNL     1      38.615 -10.657  -3.163  1.00  0.00    -0.352 OA
BRANCH  39  40
HETATM   40  C   UNL     1      39.233  -9.436  -3.563  1.00  0.00     0.171 C 
HETATM   41  C   UNL     1      38.589  -8.990  -4.864  1.00  0.00     0.034 C 
ENDBRANCH  39  40
ENDBRANCH  36  39
ENDBRANCH   1  33
TORSDOF 9
ENDMDL
MODEL 6
REMARK VINA RESULT:      -8.2      3.152      3.722
REMARK  9 active torsions:
REMARK  status: ('A' for Active; 'I' for Inactive)
REMARK    1  A    between atoms: C_2  and  O_3 
REMARK    2  A    between atoms: O_3  and  C_4 
REMARK    3  A    between atoms: C_7  and  N_8 
REMARK    4  A    between atoms: C_9  and  S_10 
REMARK    5  A    between atoms: S_10  and  C_11 
REMARK    6  A    between atoms: C_11  and  C_12 
REMARK       I    between atoms: C_12  and  N_13 
REMARK    7  A    between atoms: N_13  and  C_14 
REMARK    8  A    between atoms: C_17  and  S_18 
REMARK    9  A    between atoms: S_18  and  N_19 
ROOT
HETATM    1  N   UNL     1      41.494 -13.614   3.107  1.00  0.00    -0.256 N 
HETATM    2  C   UNL     1      41.996 -13.188   4.343  1.00  0.00     0.177 A 
HETATM    3  N   UNL     1      42.781 -13.867   5.121  1.00  0.00    -0.216 NA
HETATM    4  C   UNL     1      43.066 -15.115   4.698  1.00  0.00     0.117 A 
HETATM    5  C   UNL     1      42.605 -15.712   3.550  1.00  0.00     0.076 A 
HETATM    6  C   UNL     1      41.760 -14.929   2.662  1.00  0.00     0.268 A 
HETATM    7  O   UNL     1      41.361 -15.414   1.606  1.00  0.00    -0.267 OA
HETATM    8  S   UNL     1      44.032 -16.166   5.630  1.00  0.00    -0.073 SA
HETATM    9  C   UNL     1      43.823 -17.434   4.518  1.00  0.00    -0.008 A 
HETATM   10  C   UNL     1      43.059 -17.067   3.425  1.00  0.00    -0.026 A 
HETATM   11  C   UNL     1      42.744 -18.031   2.318  1.00  0.00     0.041 C 
HETATM   12  C   UNL     1      43.636 -19.283   2.373  1.00  0.00     0.005 C 
HETATM   13  C   UNL     1      43.786 -19.818   3.804  1.00  0.00     0.005 C 
HETATM   14  C   UNL     1      44.442 -18.781   4.728  1.00  0.00     0.047 C 
ENDROOT
BRANCH   2  15
HETATM   15  S   UNL     1      41.479 -11.658   5.049  1.00  0.00    -0.082 SA
BRANCH  15  16
HETATM   16  C   UNL     1      40.016 -12.254   5.950  1.00  0.00     0.185 C 
BRANCH  16  17
HETATM   17  C   UNL     1      39.286 -11.229   6.819  1.00  0.00     0.231 C 
HETATM   18  N   UNL     1      40.080 -10.395   7.575  1.00  0.00    -0.327 N 
HETATM   19  H   UNL     1      41.082 -10.560   7.506  1.00  0.00     0.169 HD
HETATM   20  O   UNL     1      38.055 -11.235   6.829  1.00  0.00    -0.272 OA
BRANCH  18  21
HETATM   21  C   UNL     1      39.693  -9.439   8.533  1.00  0.00     0.034 A 
HETATM   22  C   UNL     1      39.700  -9.659   9.911  1.00  0.00     0.031 A 
HETATM   23  C   UNL     1      39.342  -8.633  10.795  1.00  0.00     0.027 A 
HETATM   24  C   UNL     1      38.974  -7.383  10.295  1.00  0.00     0.074 A 
HETATM   25  C   UNL     1      38.934  -7.158   8.918  1.00  0.00     0.027 A 
HETATM   26  C   UNL     1      39.299  -8.184   8.045  1.00  0.00     0.031 A 
BRANCH  24  27
HETATM   27  S   UNL     1      38.513  -6.086  11.401  1.00  0.00     0.239 S 
HETATM   28  O   UNL     1      38.490  -4.834  10.679  1.00  0.00    -0.206 OA
HETATM   29  O   UNL     1      37.413  -6.524  12.227  1.00  0.00    -0.206 OA
BRANCH  27  30
HETATM   30  N   UNL     1      39.847  -6.007  12.419  1.00  0.00    -0.225 NA
HETATM   31  H   UNL     1      39.832  -6.790  13.072  1.00  0.00     0.136 HD
HETATM   32  H   UNL     1      40.701  -5.946  11.863  1.00  0.00     0.136 HD
ENDBRANCH  27  30
ENDBRANCH  24  27
ENDBRANCH  18  21
ENDBRANCH  16  17
ENDBRANCH  15  16
ENDBRANCH   2  15
BRANCH   1  33
HETATM   33  C   UNL     1      40.776 -12.753   2.208  1.00  0.00     0.045 A 
HETATM   34  C   UNL     1      39.375 -12.733   2.200  1.00  0.00     0.033 A 
HETATM   35  C   UNL     1      38.674 -11.942   1.283  1.00  0.00     0.039 A 
HETATM   36  C   UNL     1      39.353 -11.164   0.347  1.00  0.00     0.068 A 
HETATM   37  C   UNL     1      40.746 -11.171   0.346  1.00  0.00     0.039 A 
HETATM   38  C   UNL     1      41.450 -11.965   1.263  1.00  0.00     0.033 A 
BRANCH  36  39
HETATM   39  O   UNL     1      38.548 -10.463  -0.505  1.00  0.00    -0.352 OA
BRANCH  39  40
HETATM   40  C   UNL     1      37.723 -11.216  -1.391  1.00  0.00     0.171 C 
HETATM   41  C   UNL     1      38.521 -11.492  -2.653  1.00  0.00     0.034 C 
ENDBRANCH  39  40
ENDBRANCH  36  39
ENDBRANCH   1  33
TORSDOF 9
ENDMDL
MODEL 7
REMARK VINA RESULT:      -8.1      3.448      8.222
REMARK  9 active torsions:
REMARK  status: ('A' for Active; 'I' for Inactive)
REMARK    1  A    between atoms: C_2  and  O_3 
REMARK    2  A    between atoms: O_3  and  C_4 
REMARK    3  A    between atoms: C_7  and  N_8 
REMARK    4  A    between atoms: C_9  and  S_10 
REMARK    5  A    between atoms: S_10  and  C_11 
REMARK    6  A    between atoms: C_11  and  C_12 
REMARK       I    between atoms: C_12  and  N_13 
REMARK    7  A    between atoms: N_13  and  C_14 
REMARK    8  A    between atoms: C_17  and  S_18 
REMARK    9  A    between atoms: S_18  and  N_19 
ROOT
HETATM    1  N   UNL     1      42.236 -13.140   4.942  1.00  0.00    -0.256 N 
HETATM    2  C   UNL     1      41.162 -12.294   4.637  1.00  0.00     0.177 A 
HETATM    3  N   UNL     1      41.007 -11.077   5.058  1.00  0.00    -0.216 NA
HETATM    4  C   UNL     1      41.953 -10.644   5.916  1.00  0.00     0.117 A 
HETATM    5  C   UNL     1      43.031 -11.363   6.372  1.00  0.00     0.076 A 
HETATM    6  C   UNL     1      43.220 -12.712   5.861  1.00  0.00     0.268 A 
HETATM    7  O   UNL     1      44.195 -13.372   6.214  1.00  0.00    -0.267 OA
HETATM    8  S   UNL     1      41.870  -9.091   6.614  1.00  0.00    -0.073 SA
HETATM    9  C   UNL     1      43.261  -9.376   7.548  1.00  0.00    -0.008 A 
HETATM   10  C   UNL     1      43.816 -10.621   7.316  1.00  0.00    -0.026 A 
HETATM   11  C   UNL     1      45.050 -11.087   8.034  1.00  0.00     0.041 C 
HETATM   12  C   UNL     1      45.778  -9.929   8.737  1.00  0.00     0.005 C 
HETATM   13  C   UNL     1      44.802  -8.995   9.465  1.00  0.00     0.005 C 
HETATM   14  C   UNL     1      43.807  -8.348   8.490  1.00  0.00     0.047 C 
ENDROOT
BRANCH   2  15
HETATM   15  S   UNL     1      39.787 -12.881   3.703  1.00  0.00    -0.082 SA
BRANCH  15  16
HETATM   16  C   UNL     1      38.971 -11.287   3.388  1.00  0.00     0.185 C 
BRANCH  16  17
HETATM   17  C   UNL     1      39.235 -10.642   2.027  1.00  0.00     0.231 C 
HETATM   18  N   UNL     1      40.528 -10.233   1.787  1.00  0.00    -0.327 N 
HETATM   19  H   UNL     1      41.183 -10.372   2.555  1.00  0.00     0.169 HD
HETATM   20  O   UNL     1      38.289 -10.487   1.254  1.00  0.00    -0.272 OA
BRANCH  18  21
HETATM   21  C   UNL     1      41.039  -9.525   0.683  1.00  0.00     0.034 A 
HETATM   22  C   UNL     1      41.625 -10.125  -0.433  1.00  0.00     0.031 A 
HETATM   23  C   UNL     1      42.067  -9.343  -1.508  1.00  0.00     0.027 A 
HETATM   24  C   UNL     1      41.922  -7.956  -1.462  1.00  0.00     0.074 A 
HETATM   25  C   UNL     1      41.365  -7.340  -0.341  1.00  0.00     0.027 A 
HETATM   26  C   UNL     1      40.922  -8.128   0.724  1.00  0.00     0.031 A 
BRANCH  24  27
HETATM   27  S   UNL     1      42.483  -6.961  -2.810  1.00  0.00     0.239 S 
HETATM   28  O   UNL     1      43.574  -6.126  -2.359  1.00  0.00    -0.206 OA
HETATM   29  O   UNL     1      42.567  -7.767  -4.004  1.00  0.00    -0.206 OA
BRANCH  27  30
HETATM   30  N   UNL     1      41.179  -5.928  -3.045  1.00  0.00    -0.225 NA
HETATM   31  H   UNL     1      41.452  -5.157  -3.653  1.00  0.00     0.136 HD
HETATM   32  H   UNL     1      40.376  -6.459  -3.382  1.00  0.00     0.136 HD
ENDBRANCH  27  30
ENDBRANCH  24  27
ENDBRANCH  18  21
ENDBRANCH  16  17
ENDBRANCH  15  16
ENDBRANCH   2  15
BRANCH   1  33
HETATM   33  C   UNL     1      42.443 -14.412   4.306  1.00  0.00     0.045 A 
HETATM   34  C   UNL     1      43.052 -14.492   3.046  1.00  0.00     0.033 A 
HETATM   35  C   UNL     1      43.198 -15.722   2.398  1.00  0.00     0.039 A 
HETATM   36  C   UNL     1      42.730 -16.898   2.984  1.00  0.00     0.068 A 
HETATM   37  C   UNL     1      42.127 -16.834   4.238  1.00  0.00     0.039 A 
HETATM   38  C   UNL     1      41.978 -15.600   4.888  1.00  0.00     0.033 A 
BRANCH  36  39
HETATM   39  O   UNL     1      42.912 -18.024   2.233  1.00  0.00    -0.352 OA
BRANCH  39  40
HETATM   40  C   UNL     1      43.689 -19.072   2.808  1.00  0.00     0.171 C 
HETATM   41  C   UNL     1      43.586 -20.284   1.898  1.00  0.00     0.034 C 
ENDBRANCH  39  40
ENDBRANCH  36  39
ENDBRANCH   1  33
TORSDOF 9
ENDMDL
MODEL 8
REMARK VINA RESULT:      -8.1      3.540      6.178
REMARK  9 active torsions:
REMARK  status: ('A' for Active; 'I' for Inactive)
REMARK    1  A    between atoms: C_2  and  O_3 
REMARK    2  A    between atoms: O_3  and  C_4 
REMARK    3  A    between atoms: C_7  and  N_8 
REMARK    4  A    between atoms: C_9  and  S_10 
REMARK    5  A    between atoms: S_10  and  C_11 
REMARK    6  A    between atoms: C_11  and  C_12 
REMARK       I    between atoms: C_12  and  N_13 
REMARK    7  A    between atoms: N_13  and  C_14 
REMARK    8  A    between atoms: C_17  and  S_18 
REMARK    9  A    between atoms: S_18  and  N_19 
ROOT
HETATM    1  N   UNL     1      40.802 -14.474   1.983  1.00  0.00    -0.256 N 
HETATM    2  C   UNL     1      40.212 -13.869   3.100  1.00  0.00     0.177 A 
HETATM    3  N   UNL     1      40.461 -14.155   4.341  1.00  0.00    -0.216 NA
HETATM    4  C   UNL     1      41.323 -15.174   4.531  1.00  0.00     0.117 A 
HETATM    5  C   UNL     1      41.938 -15.916   3.552  1.00  0.00     0.076 A 
HETATM    6  C   UNL     1      41.686 -15.561   2.164  1.00  0.00     0.268 A 
HETATM    7  O   UNL     1      42.249 -16.175   1.261  1.00  0.00    -0.267 OA
HETATM    8  S   UNL     1      41.714 -15.721   6.098  1.00  0.00    -0.073 SA
HETATM    9  C   UNL     1      42.689 -16.968   5.480  1.00  0.00    -0.008 A 
HETATM   10  C   UNL     1      42.757 -16.959   4.098  1.00  0.00    -0.026 A 
HETATM   11  C   UNL     1      43.561 -17.974   3.337  1.00  0.00     0.041 C 
HETATM   12  C   UNL     1      44.533 -18.740   4.249  1.00  0.00     0.005 C 
HETATM   13  C   UNL     1      43.873 -19.156   5.571  1.00  0.00     0.005 C 
HETATM   14  C   UNL     1      43.402 -17.934   6.375  1.00  0.00     0.047 C 
ENDROOT
BRANCH   2  15
HETATM   15  S   UNL     1      38.917 -12.689   2.910  1.00  0.00    -0.082 SA
BRANCH  15  16
HETATM   16  C   UNL     1      39.770 -11.236   3.591  1.00  0.00     0.185 C 
BRANCH  16  17
HETATM   17  C   UNL     1      40.561 -10.382   2.599  1.00  0.00     0.231 C 
HETATM   18  N   UNL     1      39.832  -9.771   1.603  1.00  0.00    -0.327 N 
HETATM   19  H   UNL     1      38.834  -9.972   1.603  1.00  0.00     0.169 HD
HETATM   20  O   UNL     1      41.785 -10.323   2.717  1.00  0.00    -0.272 OA
BRANCH  18  21
HETATM   21  C   UNL     1      40.293  -9.021   0.505  1.00  0.00     0.034 A 
HETATM   22  C   UNL     1      41.604  -9.054   0.025  1.00  0.00     0.031 A 
HETATM   23  C   UNL     1      41.964  -8.307  -1.103  1.00  0.00     0.027 A 
HETATM   24  C   UNL     1      41.008  -7.525  -1.752  1.00  0.00     0.074 A 
HETATM   25  C   UNL     1      39.701  -7.460  -1.267  1.00  0.00     0.027 A 
HETATM   26  C   UNL     1      39.349  -8.213  -0.144  1.00  0.00     0.031 A 
BRANCH  24  27
HETATM   27  S   UNL     1      41.454  -6.573  -3.172  1.00  0.00     0.239 S 
HETATM   28  O   UNL     1      40.446  -6.742  -4.193  1.00  0.00    -0.206 OA
HETATM   29  O   UNL     1      41.923  -5.273  -2.753  1.00  0.00    -0.206 OA
BRANCH  27  30
HETATM   30  N   UNL     1      42.813  -7.392  -3.725  1.00  0.00    -0.225 NA
HETATM   31  H   UNL     1      43.328  -7.782  -2.935  1.00  0.00     0.136 HD
HETATM   32  H   UNL     1      42.537  -8.084  -4.423  1.00  0.00     0.136 HD
ENDBRANCH  27  30
ENDBRANCH  24  27
ENDBRANCH  18  21
ENDBRANCH  16  17
ENDBRANCH  15  16
ENDBRANCH   2  15
BRANCH   1  33
HETATM   33  C   UNL     1      40.621 -13.995   0.640  1.00  0.00     0.045 A 
HETATM   34  C   UNL     1      41.232 -12.809   0.213  1.00  0.00     0.033 A 
HETATM   35  C   UNL     1      41.006 -12.309  -1.073  1.00  0.00     0.039 A 
HETATM   36  C   UNL     1      40.157 -12.972  -1.958  1.00  0.00     0.068 A 
HETATM   37  C   UNL     1      39.546 -14.156  -1.548  1.00  0.00     0.039 A 
HETATM   38  C   UNL     1      39.769 -14.656  -0.258  1.00  0.00     0.033 A 
BRANCH  36  39
HETATM   39  O   UNL     1      40.003 -12.362  -3.170  1.00  0.00    -0.352 OA
BRANCH  39  40
HETATM   40  C   UNL     1      40.037 -10.937  -3.191  1.00  0.00     0.171 C 
HETATM   41  C   UNL     1      38.604 -10.435  -3.167  1.00  0.00     0.034 C 
ENDBRANCH  39  40
ENDBRANCH  36  39
ENDBRANCH   1  33
TORSDOF 9
ENDMDL
MODEL 9
REMARK VINA RESULT:      -8.0      3.774      8.547
REMARK  9 active torsions:
REMARK  status: ('A' for Active; 'I' for Inactive)
REMARK    1  A    between atoms: C_2  and  O_3 
REMARK    2  A    between atoms: O_3  and  C_4 
REMARK    3  A    between atoms: C_7  and  N_8 
REMARK    4  A    between atoms: C_9  and  S_10 
REMARK    5  A    between atoms: S_10  and  C_11 
REMARK    6  A    between atoms: C_11  and  C_12 
REMARK       I    between atoms: C_12  and  N_13 
REMARK    7  A    between atoms: N_13  and  C_14 
REMARK    8  A    between atoms: C_17  and  S_18 
REMARK    9  A    between atoms: S_18  and  N_19 
ROOT
HETATM    1  N   UNL     1      41.627 -13.178   4.576  1.00  0.00    -0.256 N 
HETATM    2  C   UNL     1      41.774 -12.978   3.198  1.00  0.00     0.177 A 
HETATM    3  N   UNL     1      42.185 -13.859   2.339  1.00  0.00    -0.216 NA
HETATM    4  C   UNL     1      42.557 -15.042   2.868  1.00  0.00     0.117 A 
HETATM    5  C   UNL     1      42.541 -15.382   4.199  1.00  0.00     0.076 A 
HETATM    6  C   UNL     1      42.038 -14.402   5.150  1.00  0.00     0.268 A 
HETATM    7  O   UNL     1      41.970 -14.684   6.344  1.00  0.00    -0.267 OA
HETATM    8  S   UNL     1      43.180 -16.291   1.890  1.00  0.00    -0.073 SA
HETATM    9  C   UNL     1      43.456 -17.286   3.240  1.00  0.00    -0.008 A 
HETATM   10  C   UNL     1      43.049 -16.704   4.426  1.00  0.00    -0.026 A 
HETATM   11  C   UNL     1      43.199 -17.403   5.746  1.00  0.00     0.041 C 
HETATM   12  C   UNL     1      43.499 -18.902   5.573  1.00  0.00     0.005 C 
HETATM   13  C   UNL     1      44.542 -19.155   4.475  1.00  0.00     0.005 C 
HETATM   14  C   UNL     1      44.053 -18.653   3.108  1.00  0.00     0.047 C 
ENDROOT
BRANCH   2  15
HETATM   15  S   UNL     1      41.517 -11.386   2.484  1.00  0.00    -0.082 SA
BRANCH  15  16
HETATM   16  C   UNL     1      40.575 -11.895   1.015  1.00  0.00     0.185 C 
BRANCH  16  17
HETATM   17  C   UNL     1      40.389 -10.839  -0.076  1.00  0.00     0.231 C 
HETATM   18  N   UNL     1      41.516 -10.490  -0.786  1.00  0.00    -0.327 N 
HETATM   19  H   UNL     1      42.377 -10.949  -0.496  1.00  0.00     0.169 HD
HETATM   20  O   UNL     1      39.274 -10.337  -0.226  1.00  0.00    -0.272 OA
BRANCH  18  21
HETATM   21  C   UNL     1      41.668  -9.489  -1.763  1.00  0.00     0.034 A 
HETATM   22  C   UNL     1      42.493  -8.371  -1.622  1.00  0.00     0.031 A 
HETATM   23  C   UNL     1      42.619  -7.446  -2.666  1.00  0.00     0.027 A 
HETATM   24  C   UNL     1      41.915  -7.643  -3.855  1.00  0.00     0.074 A 
HETATM   25  C   UNL     1      41.064  -8.739  -4.000  1.00  0.00     0.027 A 
HETATM   26  C   UNL     1      40.950  -9.660  -2.955  1.00  0.00     0.031 A 
BRANCH  24  27
HETATM   27  S   UNL     1      42.060  -6.477  -5.175  1.00  0.00     0.239 S 
HETATM   28  O   UNL     1      41.261  -6.925  -6.293  1.00  0.00    -0.206 OA
HETATM   29  O   UNL     1      41.972  -5.136  -4.647  1.00  0.00    -0.206 OA
BRANCH  27  30
HETATM   30  N   UNL     1      43.661  -6.681  -5.642  1.00  0.00    -0.225 NA
HETATM   31  H   UNL     1      43.710  -7.288  -6.460  1.00  0.00     0.136 HD
HETATM   32  H   UNL     1      44.100  -5.769  -5.774  1.00  0.00     0.136 HD
ENDBRANCH  27  30
ENDBRANCH  24  27
ENDBRANCH  18  21
ENDBRANCH  16  17
ENDBRANCH  15  16
ENDBRANCH   2  15
BRANCH   1  33
HETATM   33  C   UNL     1      40.999 -12.225   5.449  1.00  0.00     0.045 A 
HETATM   34  C   UNL     1      39.610 -12.229   5.635  1.00  0.00     0.033 A 
HETATM   35  C   UNL     1      38.991 -11.263   6.434  1.00  0.00     0.039 A 
HETATM   36  C   UNL     1      39.740 -10.264   7.056  1.00  0.00     0.068 A 
HETATM   37  C   UNL     1      41.122 -10.250   6.883  1.00  0.00     0.039 A 
HETATM   38  C   UNL     1      41.744 -11.217   6.080  1.00  0.00     0.033 A 
BRANCH  36  39
HETATM   39  O   UNL     1      39.008  -9.370   7.784  1.00  0.00    -0.352 OA
BRANCH  39  40
HETATM   40  C   UNL     1      39.312  -7.987   7.613  1.00  0.00     0.171 C 
HETATM   41  C   UNL     1      38.646  -7.518   6.332  1.00  0.00     0.034 C 
ENDBRANCH  39  40
ENDBRANCH  36  39
ENDBRANCH   1  33
TORSDOF 9
ENDMDL
MODEL 10
REMARK VINA RESULT:      -7.9      3.803      8.848
REMARK  9 active torsions:
REMARK  status: ('A' for Active; 'I' for Inactive)
REMARK    1  A    between atoms: C_2  and  O_3 
REMARK    2  A    between atoms: O_3  and  C_4 
REMARK    3  A    between atoms: C_7  and  N_8 
REMARK    4  A    between atoms: C_9  and  S_10 
REMARK    5  A    between atoms: S_10  and  C_11 
REMARK    6  A    between atoms: C_11  and  C_12 
REMARK       I    between atoms: C_12  and  N_13 
REMARK    7  A    between atoms: N_13  and  C_14 
REMARK    8  A    between atoms: C_17  and  S_18 
REMARK    9  A    between atoms: S_18  and  N_19 
ROOT
HETATM    1  N   UNL     1      42.995 -13.046   4.736  1.00  0.00    -0.256 N 
HETATM    2  C   UNL     1      42.627 -12.846   3.399  1.00  0.00     0.177 A 
HETATM    3  N   UNL     1      42.477 -13.772   2.503  1.00  0.00    -0.216 NA
HETATM    4  C   UNL     1      42.770 -15.021   2.917  1.00  0.00     0.117 A 
HETATM    5  C   UNL     1      43.208 -15.384   4.167  1.00  0.00     0.076 A 
HETATM    6  C   UNL     1      43.333 -14.345   5.178  1.00  0.00     0.268 A 
HETATM    7  O   UNL     1      43.681 -14.637   6.319  1.00  0.00    -0.267 OA
HETATM    8  S   UNL     1      42.686 -16.349   1.851  1.00  0.00    -0.073 SA
HETATM    9  C   UNL     1      43.255 -17.415   3.046  1.00  0.00    -0.008 A 
HETATM   10  C   UNL     1      43.477 -16.790   4.259  1.00  0.00    -0.026 A 
HETATM   11  C   UNL     1      43.984 -17.541   5.457  1.00  0.00     0.041 C 
HETATM   12  C   UNL     1      43.873 -19.063   5.272  1.00  0.00     0.005 C 
HETATM   13  C   UNL     1      44.324 -19.505   3.873  1.00  0.00     0.005 C 
HETATM   14  C   UNL     1      43.455 -18.874   2.775  1.00  0.00     0.047 C 
ENDROOT
BRANCH   2  15
HETATM   15  S   UNL     1      42.449 -11.219   2.746  1.00  0.00    -0.082 SA
BRANCH  15  16
HETATM   16  C   UNL     1      41.121 -11.549   1.549  1.00  0.00     0.185 C 
BRANCH  16  17
HETATM   17  C   UNL     1      41.318 -10.990   0.139  1.00  0.00     0.231 C 
HETATM   18  N   UNL     1      41.540  -9.634   0.046  1.00  0.00    -0.327 N 
HETATM   19  H   UNL     1      41.521  -9.124   0.927  1.00  0.00     0.169 HD
HETATM   20  O   UNL     1      41.227 -11.759  -0.818  1.00  0.00    -0.272 OA
BRANCH  18  21
HETATM   21  C   UNL     1      41.651  -8.835  -1.107  1.00  0.00     0.034 A 
HETATM   22  C   UNL     1      42.826  -8.199  -1.514  1.00  0.00     0.031 A 
HETATM   23  C   UNL     1      42.857  -7.458  -2.702  1.00  0.00     0.027 A 
HETATM   24  C   UNL     1      41.706  -7.355  -3.485  1.00  0.00     0.074 A 
HETATM   25  C   UNL     1      40.517  -7.960  -3.076  1.00  0.00     0.027 A 
HETATM   26  C   UNL     1      40.497  -8.702  -1.893  1.00  0.00     0.031 A 
BRANCH  24  27
HETATM   27  S   UNL     1      41.733  -6.416  -4.981  1.00  0.00     0.239 S 
HETATM   28  O   UNL     1      40.719  -6.924  -5.877  1.00  0.00    -0.206 OA
HETATM   29  O   UNL     1      41.858  -5.012  -4.668  1.00  0.00    -0.206 OA
BRANCH  27  30
HETATM   30  N   UNL     1      43.207  -6.869  -5.648  1.00  0.00    -0.225 NA
HETATM   31  H   UNL     1      43.073  -7.658  -6.281  1.00  0.00     0.136 HD
HETATM   32  H   UNL     1      43.652  -6.060  -6.081  1.00  0.00     0.136 HD
ENDBRANCH  27  30
ENDBRANCH  24  27
ENDBRANCH  18  21
ENDBRANCH  16  17
ENDBRANCH  15  16
ENDBRANCH   2  15
BRANCH   1  33
HETATM   33  C   UNL     1      42.972 -12.004   5.724  1.00  0.00     0.045 A 
HETATM   34  C   UNL     1      44.154 -11.583   6.349  1.00  0.00     0.033 A 
HETATM   35  C   UNL     1      44.125 -10.613   7.356  1.00  0.00     0.039 A 
HETATM   36  C   UNL     1      42.920 -10.051   7.772  1.00  0.00     0.068 A 
HETATM   37  C   UNL     1      41.737 -10.456   7.156  1.00  0.00     0.039 A 
HETATM   38  C   UNL     1      41.764 -11.431   6.148  1.00  0.00     0.033 A 
BRANCH  36  39
HETATM   39  O   UNL     1      43.032  -9.137   8.781  1.00  0.00    -0.352 OA
BRANCH  39  40
HETATM   40  C   UNL     1      44.094  -8.190   8.687  1.00  0.00     0.171 C 
HETATM   41  C   UNL     1      43.573  -6.852   9.183  1.00  0.00     0.034 C 
ENDBRANCH  39  40
ENDBRANCH  36  39
ENDBRANCH   1  33
TORSDOF 9
ENDMDL
