MODEL 1
REMARK VINA RESULT:      -8.6      0.000      0.000
REMARK  7 active torsions:
REMARK  status: ('A' for Active; 'I' for Inactive)
REMARK    1  A    between atoms: O_2  and  C_3 
REMARK    2  A    between atoms: C_5  and  C_6 
REMARK    3  A    between atoms: C_6  and  N_7 
REMARK    4  A    between atoms: C_6  and  C_13 
REMARK    5  A    between atoms: C_13  and  N_14 
REMARK       I    between atoms: N_14  and  C_15 
REMARK       I    between atoms: C_15  and  N_16 
REMARK    6  A    between atoms: N_16  and  C_17 
REMARK    7  A    between atoms: C_18  and  O_19 
ROOT
HETATM    1  N   UNL     1      43.247 -12.981   7.051  1.00  0.00    -0.341 N 
HETATM    2  C   UNL     1      44.023 -11.933   7.479  1.00  0.00     0.316 C 
HETATM    3  N   UNL     1      43.390 -11.165   8.404  1.00  0.00    -0.332 N 
HETATM    4  O   UNL     1      45.191 -11.797   7.146  1.00  0.00    -0.247 OA
HETATM    5  H   UNL     1      42.250 -12.809   7.096  1.00  0.00     0.164 HD
HETATM    6  H   UNL     1      42.400 -11.005   8.271  1.00  0.00     0.165 HD
ENDROOT
BRANCH   1   7
HETATM    7  C   UNL     1      43.728 -13.859   5.993  1.00  0.00     0.162 C 
BRANCH   7   8
HETATM    8  C   UNL     1      42.695 -14.252   4.882  1.00  0.00     0.238 C 
BRANCH   8   9
HETATM    9  C   UNL     1      43.020 -15.585   4.219  1.00  0.00    -0.023 A 
HETATM   10  C   UNL     1      43.339 -16.686   5.035  1.00  0.00     0.046 A 
HETATM   11  C   UNL     1      43.652 -17.935   4.490  1.00  0.00     0.068 A 
HETATM   12  C   UNL     1      43.621 -18.105   3.109  1.00  0.00     0.037 A 
HETATM   13  C   UNL     1      43.293 -17.027   2.283  1.00  0.00     0.003 A 
HETATM   14  C   UNL     1      42.996 -15.777   2.830  1.00  0.00     0.009 A 
BRANCH  11  15
HETATM   15  O   UNL     1      43.958 -18.895   5.412  1.00  0.00    -0.356 OA
HETATM   16  C   UNL     1      44.303 -20.181   4.905  1.00  0.00     0.210 C 
ENDBRANCH  11  15
ENDBRANCH   8   9
BRANCH   8  17
HETATM   17  N   UNL     1      42.469 -13.173   3.815  1.00  0.00    -0.061 N 
HETATM   18  H   UNL     1      42.450 -13.708   2.937  1.00  0.00     0.280 HD
HETATM   19  C   UNL     1      43.525 -12.116   3.637  1.00  0.00     0.236 C 
HETATM   20  C   UNL     1      42.874 -10.846   4.142  1.00  0.00     0.029 C 
HETATM   21  C   UNL     1      41.436 -10.997   3.694  1.00  0.00     0.029 C 
HETATM   22  C   UNL     1      41.126 -12.470   3.891  1.00  0.00     0.236 C 
ENDBRANCH   8  17
ENDBRANCH   7   8
ENDBRANCH   1   7
BRANCH   3  23
HETATM   23  C   UNL     1      44.075 -10.016   8.972  1.00  0.00     0.149 C 
HETATM   24  C   UNL     1      43.784  -8.690   8.208  1.00  0.00     0.149 C 
HETATM   25  C   UNL     1      43.764  -7.570   9.266  1.00  0.00     0.073 C 
HETATM   26  C   UNL     1      43.409  -8.319  10.516  1.00  0.00    -0.047 A 
HETATM   27  C   UNL     1      43.585  -9.698  10.356  1.00  0.00    -0.026 A 
HETATM   28  C   UNL     1      43.009  -7.785  11.730  1.00  0.00     0.008 A 
HETATM   29  C   UNL     1      43.370 -10.568  11.416  1.00  0.00     0.010 A 
HETATM   30  C   UNL     1      42.954 -10.039  12.640  1.00  0.00     0.001 A 
HETATM   31  C   UNL     1      42.776  -8.657  12.795  1.00  0.00     0.001 A 
BRANCH  24  32
HETATM   32  O   UNL     1      42.501  -8.747   7.554  1.00  0.00    -0.393 OA
HETATM   33  H   UNL     1      41.861  -9.032   8.230  1.00  0.00     0.210 HD
ENDBRANCH  24  32
ENDBRANCH   3  23
TORSDOF 7
ENDMDL
MODEL 2
REMARK VINA RESULT:      -8.4      5.189      9.164
REMARK  7 active torsions:
REMARK  status: ('A' for Active; 'I' for Inactive)
REMARK    1  A    between atoms: O_2  and  C_3 
REMARK    2  A    between atoms: C_5  and  C_6 
REMARK    3  A    between atoms: C_6  and  N_7 
REMARK    4  A    between atoms: C_6  and  C_13 
REMARK    5  A    between atoms: C_13  and  N_14 
REMARK       I    between atoms: N_14  and  C_15 
REMARK       I    between atoms: C_15  and  N_16 
REMARK    6  A    between atoms: N_16  and  C_17 
REMARK    7  A    between atoms: C_18  and  O_19 
ROOT
HETATM    1  N   UNL     1      41.017 -14.899   1.270  1.00  0.00    -0.341 N 
HETATM    2  C   UNL     1      42.222 -15.173   1.867  1.00  0.00     0.316 C 
HETATM    3  N   UNL     1      42.177 -16.296   2.631  1.00  0.00    -0.332 N 
HETATM    4  O   UNL     1      43.238 -14.537   1.626  1.00  0.00    -0.247 OA
HETATM    5  H   UNL     1      40.210 -15.235   1.782  1.00  0.00     0.164 HD
HETATM    6  H   UNL     1      41.331 -16.459   3.161  1.00  0.00     0.165 HD
ENDROOT
BRANCH   1   7
HETATM    7  C   UNL     1      40.853 -13.682   0.484  1.00  0.00     0.162 C 
BRANCH   7   8
HETATM    8  C   UNL     1      39.723 -12.699   0.942  1.00  0.00     0.238 C 
BRANCH   8   9
HETATM    9  C   UNL     1      38.828 -12.251  -0.209  1.00  0.00    -0.023 A 
HETATM   10  C   UNL     1      38.500 -13.183  -1.211  1.00  0.00     0.046 A 
HETATM   11  C   UNL     1      37.690 -12.835  -2.296  1.00  0.00     0.068 A 
HETATM   12  C   UNL     1      37.170 -11.546  -2.376  1.00  0.00     0.037 A 
HETATM   13  C   UNL     1      37.473 -10.612  -1.383  1.00  0.00     0.003 A 
HETATM   14  C   UNL     1      38.296 -10.958  -0.309  1.00  0.00     0.009 A 
BRANCH  11  15
HETATM   15  O   UNL     1      37.480 -13.844  -3.194  1.00  0.00    -0.356 OA
HETATM   16  C   UNL     1      38.426 -14.909  -3.192  1.00  0.00     0.210 C 
ENDBRANCH  11  15
ENDBRANCH   8   9
BRANCH   8  17
HETATM   17  N   UNL     1      40.222 -11.479   1.726  1.00  0.00    -0.061 N 
HETATM   18  H   UNL     1      39.571 -10.733   1.447  1.00  0.00     0.280 HD
HETATM   19  C   UNL     1      41.603 -10.959   1.432  1.00  0.00     0.236 C 
HETATM   20  C   UNL     1      42.400 -11.285   2.677  1.00  0.00     0.029 C 
HETATM   21  C   UNL     1      41.399 -11.067   3.791  1.00  0.00     0.029 C 
HETATM   22  C   UNL     1      40.087 -11.590   3.235  1.00  0.00     0.236 C 
ENDBRANCH   8  17
ENDBRANCH   7   8
ENDBRANCH   1   7
BRANCH   3  23
HETATM   23  C   UNL     1      43.373 -16.737   3.327  1.00  0.00     0.149 C 
HETATM   24  C   UNL     1      43.349 -16.415   4.851  1.00  0.00     0.149 C 
HETATM   25  C   UNL     1      44.075 -17.576   5.557  1.00  0.00     0.073 C 
HETATM   26  C   UNL     1      43.899 -18.702   4.581  1.00  0.00    -0.047 A 
HETATM   27  C   UNL     1      43.506 -18.234   3.323  1.00  0.00    -0.026 A 
HETATM   28  C   UNL     1      44.134 -20.049   4.802  1.00  0.00     0.008 A 
HETATM   29  C   UNL     1      43.347 -19.110   2.258  1.00  0.00     0.010 A 
HETATM   30  C   UNL     1      43.569 -20.472   2.475  1.00  0.00     0.001 A 
HETATM   31  C   UNL     1      43.959 -20.937   3.739  1.00  0.00     0.001 A 
BRANCH  24  32
HETATM   32  O   UNL     1      41.994 -16.340   5.337  1.00  0.00    -0.393 OA
HETATM   33  H   UNL     1      42.028 -15.835   6.168  1.00  0.00     0.210 HD
ENDBRANCH  24  32
ENDBRANCH   3  23
TORSDOF 7
ENDMDL
MODEL 3
REMARK VINA RESULT:      -8.4      6.228      9.775
REMARK  7 active torsions:
REMARK  status: ('A' for Active; 'I' for Inactive)
REMARK    1  A    between atoms: O_2  and  C_3 
REMARK    2  A    between atoms: C_5  and  C_6 
REMARK    3  A    between atoms: C_6  and  N_7 
REMARK    4  A    between atoms: C_6  and  C_13 
REMARK    5  A    between atoms: C_13  and  N_14 
REMARK       I    between atoms: N_14  and  C_15 
REMARK       I    between atoms: C_15  and  N_16 
REMARK    6  A    between atoms: N_16  and  C_17 
REMARK    7  A    between atoms: C_18  and  O_19 
ROOT
HETATM    1  N   UNL     1      40.718 -14.577   1.550  1.00  0.00    -0.341 N 
HETATM    2  C   UNL     1      41.981 -14.894   1.983  1.00  0.00     0.316 C 
HETATM    3  N   UNL     1      42.011 -16.057   2.684  1.00  0.00    -0.332 N 
HETATM    4  O   UNL     1      42.971 -14.254   1.658  1.00  0.00    -0.247 OA
HETATM    5  H   UNL     1      39.974 -14.934   2.135  1.00  0.00     0.164 HD
HETATM    6  H   UNL     1      41.232 -16.243   3.302  1.00  0.00     0.165 HD
ENDROOT
BRANCH   1   7
HETATM    7  C   UNL     1      40.481 -13.317   0.857  1.00  0.00     0.162 C 
BRANCH   7   8
HETATM    8  C   UNL     1      40.272 -13.397  -0.694  1.00  0.00     0.238 C 
BRANCH   8   9
HETATM    9  C   UNL     1      40.506 -12.061  -1.390  1.00  0.00    -0.023 A 
HETATM   10  C   UNL     1      40.402 -10.878  -0.635  1.00  0.00     0.046 A 
HETATM   11  C   UNL     1      40.598  -9.621  -1.214  1.00  0.00     0.068 A 
HETATM   12  C   UNL     1      40.933  -9.534  -2.562  1.00  0.00     0.037 A 
HETATM   13  C   UNL     1      41.055 -10.698  -3.324  1.00  0.00     0.003 A 
HETATM   14  C   UNL     1      40.842 -11.952  -2.747  1.00  0.00     0.009 A 
BRANCH  11  15
HETATM   15  O   UNL     1      40.443  -8.570  -0.355  1.00  0.00    -0.356 OA
HETATM   16  C   UNL     1      39.118  -8.303   0.096  1.00  0.00     0.210 C 
ENDBRANCH  11  15
ENDBRANCH   8   9
BRANCH   8  17
HETATM   17  N   UNL     1      38.923 -13.986  -1.123  1.00  0.00    -0.061 N 
HETATM   18  H   UNL     1      38.555 -14.396  -0.255  1.00  0.00     0.280 HD
HETATM   19  C   UNL     1      38.922 -15.094  -2.141  1.00  0.00     0.236 C 
HETATM   20  C   UNL     1      38.317 -14.467  -3.379  1.00  0.00     0.029 C 
HETATM   21  C   UNL     1      37.259 -13.543  -2.813  1.00  0.00     0.029 C 
HETATM   22  C   UNL     1      37.888 -12.964  -1.559  1.00  0.00     0.236 C 
ENDBRANCH   8  17
ENDBRANCH   7   8
ENDBRANCH   1   7
BRANCH   3  23
HETATM   23  C   UNL     1      43.274 -16.547   3.208  1.00  0.00     0.149 C 
HETATM   24  C   UNL     1      43.443 -16.294   4.736  1.00  0.00     0.149 C 
HETATM   25  C   UNL     1      44.228 -17.496   5.295  1.00  0.00     0.073 C 
HETATM   26  C   UNL     1      43.911 -18.574   4.300  1.00  0.00    -0.047 A 
HETATM   27  C   UNL     1      43.376 -18.044   3.122  1.00  0.00    -0.026 A 
HETATM   28  C   UNL     1      44.144 -19.933   4.433  1.00  0.00     0.008 A 
HETATM   29  C   UNL     1      43.070 -18.868   2.048  1.00  0.00     0.010 A 
HETATM   30  C   UNL     1      43.290 -20.241   2.177  1.00  0.00     0.001 A 
HETATM   31  C   UNL     1      43.824 -20.769   3.362  1.00  0.00     0.001 A 
BRANCH  24  32
HETATM   32  O   UNL     1      42.160 -16.222   5.388  1.00  0.00    -0.393 OA
HETATM   33  H   UNL     1      41.606 -16.911   4.981  1.00  0.00     0.210 HD
ENDBRANCH  24  32
ENDBRANCH   3  23
TORSDOF 7
ENDMDL
MODEL 4
REMARK VINA RESULT:      -8.2      5.985      9.039
REMARK  7 active torsions:
REMARK  status: ('A' for Active; 'I' for Inactive)
REMARK    1  A    between atoms: O_2  and  C_3 
REMARK    2  A    between atoms: C_5  and  C_6 
REMARK    3  A    between atoms: C_6  and  N_7 
REMARK    4  A    between atoms: C_6  and  C_13 
REMARK    5  A    between atoms: C_13  and  N_14 
REMARK       I    between atoms: N_14  and  C_15 
REMARK       I    between atoms: C_15  and  N_16 
REMARK    6  A    between atoms: N_16  and  C_17 
REMARK    7  A    between atoms: C_18  and  O_19 
ROOT
HETATM    1  N   UNL     1      40.554 -14.315   2.561  1.00  0.00    -0.341 N 
HETATM    2  C   UNL     1      41.847 -14.675   2.846  1.00  0.00     0.316 C 
HETATM    3  N   UNL     1      41.934 -15.932   3.355  1.00  0.00    -0.332 N 
HETATM    4  O   UNL     1      42.807 -13.977   2.552  1.00  0.00    -0.247 OA
HETATM    5  H   UNL     1      39.857 -14.770   3.137  1.00  0.00     0.164 HD
HETATM    6  H   UNL     1      41.204 -16.222   3.992  1.00  0.00     0.165 HD
ENDROOT
BRANCH   1   7
HETATM    7  C   UNL     1      40.260 -12.967   2.091  1.00  0.00     0.162 C 
BRANCH   7   8
HETATM    8  C   UNL     1      39.176 -12.837   0.967  1.00  0.00     0.238 C 
BRANCH   8   9
HETATM    9  C   UNL     1      39.782 -12.599  -0.412  1.00  0.00    -0.023 A 
HETATM   10  C   UNL     1      39.271 -13.318  -1.507  1.00  0.00     0.046 A 
HETATM   11  C   UNL     1      39.786 -13.151  -2.796  1.00  0.00     0.068 A 
HETATM   12  C   UNL     1      40.809 -12.232  -3.010  1.00  0.00     0.037 A 
HETATM   13  C   UNL     1      41.319 -11.498  -1.937  1.00  0.00     0.003 A 
HETATM   14  C   UNL     1      40.814 -11.679  -0.648  1.00  0.00     0.009 A 
BRANCH  11  15
HETATM   15  O   UNL     1      39.197 -13.935  -3.748  1.00  0.00    -0.356 OA
HETATM   16  C   UNL     1      38.318 -14.955  -3.283  1.00  0.00     0.210 C 
ENDBRANCH  11  15
ENDBRANCH   8   9
BRANCH   8  17
HETATM   17  N   UNL     1      38.088 -11.793   1.252  1.00  0.00    -0.061 N 
HETATM   18  H   UNL     1      37.379 -12.326   1.773  1.00  0.00     0.280 HD
HETATM   19  C   UNL     1      37.371 -11.176   0.082  1.00  0.00     0.236 C 
HETATM   20  C   UNL     1      37.846  -9.739   0.066  1.00  0.00     0.029 C 
HETATM   21  C   UNL     1      37.966  -9.401   1.537  1.00  0.00     0.029 C 
HETATM   22  C   UNL     1      38.510 -10.666   2.177  1.00  0.00     0.236 C 
ENDBRANCH   8  17
ENDBRANCH   7   8
ENDBRANCH   1   7
BRANCH   3  23
HETATM   23  C   UNL     1      43.236 -16.476   3.701  1.00  0.00     0.149 C 
HETATM   24  C   UNL     1      43.517 -16.462   5.234  1.00  0.00     0.149 C 
HETATM   25  C   UNL     1      44.346 -17.723   5.540  1.00  0.00     0.073 C 
HETATM   26  C   UNL     1      43.962 -18.638   4.415  1.00  0.00    -0.047 A 
HETATM   27  C   UNL     1      43.338 -17.940   3.376  1.00  0.00    -0.026 A 
HETATM   28  C   UNL     1      44.211 -19.997   4.316  1.00  0.00     0.008 A 
HETATM   29  C   UNL     1      42.956 -18.592   2.211  1.00  0.00     0.010 A 
HETATM   30  C   UNL     1      43.192 -19.965   2.108  1.00  0.00     0.001 A 
HETATM   31  C   UNL     1      43.815 -20.661   3.154  1.00  0.00     0.001 A 
BRANCH  24  32
HETATM   32  O   UNL     1      42.285 -16.512   5.981  1.00  0.00    -0.393 OA
HETATM   33  H   UNL     1      42.477 -16.123   6.853  1.00  0.00     0.210 HD
ENDBRANCH  24  32
ENDBRANCH   3  23
TORSDOF 7
ENDMDL
MODEL 5
REMARK VINA RESULT:      -8.0      4.750      8.839
REMARK  7 active torsions:
REMARK  status: ('A' for Active; 'I' for Inactive)
REMARK    1  A    between atoms: O_2  and  C_3 
REMARK    2  A    between atoms: C_5  and  C_6 
REMARK    3  A    between atoms: C_6  and  N_7 
REMARK    4  A    between atoms: C_6  and  C_13 
REMARK    5  A    between atoms: C_13  and  N_14 
REMARK       I    between atoms: N_14  and  C_15 
REMARK       I    between atoms: C_15  and  N_16 
REMARK    6  A    between atoms: N_16  and  C_17 
REMARK    7  A    between atoms: C_18  and  O_19 
ROOT
HETATM    1  N   UNL     1      40.230 -15.003   1.007  1.00  0.00    -0.341 N 
HETATM    2  C   UNL     1      40.495 -13.709   0.637  1.00  0.00     0.316 C 
HETATM    3  N   UNL     1      40.373 -13.519  -0.703  1.00  0.00    -0.332 N 
HETATM    4  O   UNL     1      40.695 -12.817   1.449  1.00  0.00    -0.247 OA
HETATM    5  H   UNL     1      40.427 -15.692   0.291  1.00  0.00     0.164 HD
HETATM    6  H   UNL     1      40.694 -14.265  -1.305  1.00  0.00     0.165 HD
ENDROOT
BRANCH   1   7
HETATM    7  C   UNL     1      40.399 -15.413   2.395  1.00  0.00     0.162 C 
BRANCH   7   8
HETATM    8  C   UNL     1      41.822 -15.209   3.019  1.00  0.00     0.238 C 
BRANCH   8   9
HETATM    9  C   UNL     1      42.574 -16.521   3.215  1.00  0.00    -0.023 A 
HETATM   10  C   UNL     1      42.856 -16.948   4.526  1.00  0.00     0.046 A 
HETATM   11  C   UNL     1      43.548 -18.137   4.775  1.00  0.00     0.068 A 
HETATM   12  C   UNL     1      43.942 -18.935   3.705  1.00  0.00     0.037 A 
HETATM   13  C   UNL     1      43.658 -18.535   2.398  1.00  0.00     0.003 A 
HETATM   14  C   UNL     1      42.982 -17.338   2.151  1.00  0.00     0.009 A 
BRANCH  11  15
HETATM   15  O   UNL     1      43.761 -18.403   6.098  1.00  0.00    -0.356 OA
HETATM   16  C   UNL     1      43.512 -17.340   7.012  1.00  0.00     0.210 C 
ENDBRANCH  11  15
ENDBRANCH   8   9
BRANCH   8  17
HETATM   17  N   UNL     1      41.835 -14.395   4.319  1.00  0.00    -0.061 N 
HETATM   18  H   UNL     1      42.279 -15.031   4.994  1.00  0.00     0.280 HD
HETATM   19  C   UNL     1      40.515 -14.000   4.924  1.00  0.00     0.236 C 
HETATM   20  C   UNL     1      40.450 -12.499   4.737  1.00  0.00     0.029 C 
HETATM   21  C   UNL     1      41.886 -12.066   4.944  1.00  0.00     0.029 C 
HETATM   22  C   UNL     1      42.713 -13.157   4.289  1.00  0.00     0.236 C 
ENDBRANCH   8  17
ENDBRANCH   7   8
ENDBRANCH   1   7
BRANCH   3  23
HETATM   23  C   UNL     1      40.608 -12.199  -1.264  1.00  0.00     0.149 C 
HETATM   24  C   UNL     1      41.459 -12.232  -2.569  1.00  0.00     0.149 C 
HETATM   25  C   UNL     1      40.927 -11.100  -3.468  1.00  0.00     0.073 C 
HETATM   26  C   UNL     1      39.519 -10.937  -2.976  1.00  0.00    -0.047 A 
HETATM   27  C   UNL     1      39.336 -11.553  -1.733  1.00  0.00    -0.026 A 
HETATM   28  C   UNL     1      38.493 -10.233  -3.585  1.00  0.00     0.008 A 
HETATM   29  C   UNL     1      38.118 -11.468  -1.072  1.00  0.00     0.010 A 
HETATM   30  C   UNL     1      37.074 -10.770  -1.685  1.00  0.00     0.001 A 
HETATM   31  C   UNL     1      37.262 -10.158  -2.932  1.00  0.00     0.001 A 
BRANCH  24  32
HETATM   32  O   UNL     1      41.303 -13.492  -3.251  1.00  0.00    -0.393 OA
HETATM   33  H   UNL     1      41.124 -14.157  -2.562  1.00  0.00     0.210 HD
ENDBRANCH  24  32
ENDBRANCH   3  23
TORSDOF 7
ENDMDL
MODEL 6
REMARK VINA RESULT:      -7.8      2.076      8.987
REMARK  7 active torsions:
REMARK  status: ('A' for Active; 'I' for Inactive)
REMARK    1  A    between atoms: O_2  and  C_3 
REMARK    2  A    between atoms: C_5  and  C_6 
REMARK    3  A    between atoms: C_6  and  N_7 
REMARK    4  A    between atoms: C_6  and  C_13 
REMARK    5  A    between atoms: C_13  and  N_14 
REMARK       I    between atoms: N_14  and  C_15 
REMARK       I    between atoms: C_15  and  N_16 
REMARK    6  A    between atoms: N_16  and  C_17 
REMARK    7  A    between atoms: C_18  and  O_19 
ROOT
HETATM    1  N   UNL     1      43.960 -14.405   6.396  1.00  0.00    -0.341 N 
HETATM    2  C   UNL     1      43.031 -15.226   5.808  1.00  0.00     0.316 C 
HETATM    3  N   UNL     1      43.586 -16.056   4.886  1.00  0.00    -0.332 N 
HETATM    4  O   UNL     1      41.866 -15.275   6.175  1.00  0.00    -0.247 OA
HETATM    5  H   UNL     1      44.759 -14.192   5.813  1.00  0.00     0.164 HD
HETATM    6  H   UNL     1      44.324 -15.676   4.308  1.00  0.00     0.165 HD
ENDROOT
BRANCH   1   7
HETATM    7  C   UNL     1      43.533 -13.385   7.346  1.00  0.00     0.162 C 
BRANCH   7   8
HETATM    8  C   UNL     1      43.551 -11.903   6.840  1.00  0.00     0.238 C 
BRANCH   8   9
HETATM    9  C   UNL     1      44.380 -10.985   7.731  1.00  0.00    -0.023 A 
HETATM   10  C   UNL     1      43.980 -10.799   9.067  1.00  0.00     0.046 A 
HETATM   11  C   UNL     1      44.692  -9.965   9.935  1.00  0.00     0.068 A 
HETATM   12  C   UNL     1      45.842  -9.326   9.478  1.00  0.00     0.037 A 
HETATM   13  C   UNL     1      46.262  -9.510   8.160  1.00  0.00     0.003 A 
HETATM   14  C   UNL     1      45.539 -10.330   7.290  1.00  0.00     0.009 A 
BRANCH  11  15
HETATM   15  O   UNL     1      44.166  -9.873  11.192  1.00  0.00    -0.356 OA
HETATM   16  C   UNL     1      43.593  -8.621  11.555  1.00  0.00     0.210 C 
ENDBRANCH  11  15
ENDBRANCH   8   9
BRANCH   8  17
HETATM   17  N   UNL     1      42.162 -11.295   6.605  1.00  0.00    -0.061 N 
HETATM   18  H   UNL     1      41.701 -11.395   7.519  1.00  0.00     0.280 HD
HETATM   19  C   UNL     1      41.254 -11.959   5.605  1.00  0.00     0.236 C 
HETATM   20  C   UNL     1      41.175 -10.975   4.458  1.00  0.00     0.029 C 
HETATM   21  C   UNL     1      41.183  -9.632   5.158  1.00  0.00     0.029 C 
HETATM   22  C   UNL     1      42.157  -9.806   6.309  1.00  0.00     0.236 C 
ENDBRANCH   8  17
ENDBRANCH   7   8
ENDBRANCH   1   7
BRANCH   3  23
HETATM   23  C   UNL     1      42.743 -17.002   4.174  1.00  0.00     0.149 C 
HETATM   24  C   UNL     1      42.597 -16.672   2.658  1.00  0.00     0.149 C 
HETATM   25  C   UNL     1      42.512 -18.021   1.922  1.00  0.00     0.073 C 
HETATM   26  C   UNL     1      43.216 -18.947   2.870  1.00  0.00    -0.047 A 
HETATM   27  C   UNL     1      43.346 -18.378   4.141  1.00  0.00    -0.026 A 
HETATM   28  C   UNL     1      43.656 -20.235   2.614  1.00  0.00     0.008 A 
HETATM   29  C   UNL     1      43.916 -19.094   5.184  1.00  0.00     0.010 A 
HETATM   30  C   UNL     1      44.374 -20.389   4.932  1.00  0.00     0.001 A 
HETATM   31  C   UNL     1      44.244 -20.955   3.655  1.00  0.00     0.001 A 
BRANCH  24  32
HETATM   32  O   UNL     1      43.745 -15.942   2.180  1.00  0.00    -0.393 OA
HETATM   33  H   UNL     1      44.491 -16.203   2.748  1.00  0.00     0.210 HD
ENDBRANCH  24  32
ENDBRANCH   3  23
TORSDOF 7
ENDMDL
MODEL 7
REMARK VINA RESULT:      -7.8      1.657      1.984
REMARK  7 active torsions:
REMARK  status: ('A' for Active; 'I' for Inactive)
REMARK    1  A    between atoms: O_2  and  C_3 
REMARK    2  A    between atoms: C_5  and  C_6 
REMARK    3  A    between atoms: C_6  and  N_7 
REMARK    4  A    between atoms: C_6  and  C_13 
REMARK    5  A    between atoms: C_13  and  N_14 
REMARK       I    between atoms: N_14  and  C_15 
REMARK       I    between atoms: C_15  and  N_16 
REMARK    6  A    between atoms: N_16  and  C_17 
REMARK    7  A    between atoms: C_18  and  O_19 
ROOT
HETATM    1  N   UNL     1      42.507 -12.989   5.760  1.00  0.00    -0.341 N 
HETATM    2  C   UNL     1      42.757 -11.660   5.994  1.00  0.00     0.316 C 
HETATM    3  N   UNL     1      42.189 -11.222   7.148  1.00  0.00    -0.332 N 
HETATM    4  O   UNL     1      43.510 -10.997   5.295  1.00  0.00    -0.247 OA
HETATM    5  H   UNL     1      41.640 -13.328   6.159  1.00  0.00     0.164 HD
HETATM    6  H   UNL     1      41.273 -11.585   7.377  1.00  0.00     0.165 HD
ENDROOT
BRANCH   1   7
HETATM    7  C   UNL     1      42.962 -13.610   4.523  1.00  0.00     0.162 C 
BRANCH   7   8
HETATM    8  C   UNL     1      41.974 -14.612   3.835  1.00  0.00     0.238 C 
BRANCH   8   9
HETATM    9  C   UNL     1      42.599 -15.980   3.585  1.00  0.00    -0.023 A 
HETATM   10  C   UNL     1      43.040 -16.733   4.689  1.00  0.00     0.046 A 
HETATM   11  C   UNL     1      43.627 -17.991   4.529  1.00  0.00     0.068 A 
HETATM   12  C   UNL     1      43.755 -18.528   3.251  1.00  0.00     0.037 A 
HETATM   13  C   UNL     1      43.310 -17.801   2.144  1.00  0.00     0.003 A 
HETATM   14  C   UNL     1      42.739 -16.538   2.306  1.00  0.00     0.009 A 
BRANCH  11  15
HETATM   15  O   UNL     1      44.020 -18.586   5.694  1.00  0.00    -0.356 OA
HETATM   16  C   UNL     1      43.678 -19.959   5.858  1.00  0.00     0.210 C 
ENDBRANCH  11  15
ENDBRANCH   8   9
BRANCH   8  17
HETATM   17  N   UNL     1      41.329 -14.084   2.547  1.00  0.00    -0.061 N 
HETATM   18  H   UNL     1      41.643 -14.754   1.832  1.00  0.00     0.280 HD
HETATM   19  C   UNL     1      41.738 -12.723   2.052  1.00  0.00     0.236 C 
HETATM   20  C   UNL     1      40.510 -11.864   2.260  1.00  0.00     0.029 C 
HETATM   21  C   UNL     1      39.371 -12.810   1.945  1.00  0.00     0.029 C 
HETATM   22  C   UNL     1      39.812 -14.144   2.521  1.00  0.00     0.236 C 
ENDBRANCH   8  17
ENDBRANCH   7   8
ENDBRANCH   1   7
BRANCH   3  23
HETATM   23  C   UNL     1      42.365  -9.838   7.553  1.00  0.00     0.149 C 
HETATM   24  C   UNL     1      41.025  -9.132   7.919  1.00  0.00     0.149 C 
HETATM   25  C   UNL     1      41.343  -8.156   9.067  1.00  0.00     0.073 C 
HETATM   26  C   UNL     1      42.562  -8.775   9.683  1.00  0.00    -0.047 A 
HETATM   27  C   UNL     1      43.143  -9.722   8.833  1.00  0.00    -0.026 A 
HETATM   28  C   UNL     1      43.137  -8.462  10.905  1.00  0.00     0.008 A 
HETATM   29  C   UNL     1      44.318 -10.369   9.189  1.00  0.00     0.010 A 
HETATM   30  C   UNL     1      44.897 -10.069  10.424  1.00  0.00     0.001 A 
HETATM   31  C   UNL     1      44.310  -9.121  11.275  1.00  0.00     0.001 A 
BRANCH  24  32
HETATM   32  O   UNL     1      40.047 -10.091   8.369  1.00  0.00    -0.393 OA
HETATM   33  H   UNL     1      40.495 -10.955   8.380  1.00  0.00     0.210 HD
ENDBRANCH  24  32
ENDBRANCH   3  23
TORSDOF 7
ENDMDL
MODEL 8
REMARK VINA RESULT:      -7.7      5.249      8.544
REMARK  7 active torsions:
REMARK  status: ('A' for Active; 'I' for Inactive)
REMARK    1  A    between atoms: O_2  and  C_3 
REMARK    2  A    between atoms: C_5  and  C_6 
REMARK    3  A    between atoms: C_6  and  N_7 
REMARK    4  A    between atoms: C_6  and  C_13 
REMARK    5  A    between atoms: C_13  and  N_14 
REMARK       I    between atoms: N_14  and  C_15 
REMARK       I    between atoms: C_15  and  N_16 
REMARK    6  A    between atoms: N_16  and  C_17 
REMARK    7  A    between atoms: C_18  and  O_19 
ROOT
HETATM    1  N   UNL     1      40.581 -14.387   1.209  1.00  0.00    -0.341 N 
HETATM    2  C   UNL     1      40.452 -13.348   0.322  1.00  0.00     0.316 C 
HETATM    3  N   UNL     1      39.156 -13.106  -0.006  1.00  0.00    -0.332 N 
HETATM    4  O   UNL     1      41.397 -12.653  -0.025  1.00  0.00    -0.247 OA
HETATM    5  H   UNL     1      39.846 -15.081   1.150  1.00  0.00     0.164 HD
HETATM    6  H   UNL     1      38.551 -13.909  -0.117  1.00  0.00     0.165 HD
ENDROOT
BRANCH   1   7
HETATM    7  C   UNL     1      41.906 -14.847   1.604  1.00  0.00     0.162 C 
BRANCH   7   8
HETATM    8  C   UNL     1      42.162 -15.013   3.141  1.00  0.00     0.238 C 
BRANCH   8   9
HETATM    9  C   UNL     1      42.898 -16.304   3.480  1.00  0.00    -0.023 A 
HETATM   10  C   UNL     1      42.807 -17.388   2.588  1.00  0.00     0.046 A 
HETATM   11  C   UNL     1      43.452 -18.602   2.843  1.00  0.00     0.068 A 
HETATM   12  C   UNL     1      44.228 -18.735   3.991  1.00  0.00     0.037 A 
HETATM   13  C   UNL     1      44.342 -17.665   4.881  1.00  0.00     0.003 A 
HETATM   14  C   UNL     1      43.683 -16.460   4.632  1.00  0.00     0.009 A 
BRANCH  11  15
HETATM   15  O   UNL     1      43.251 -19.562   1.893  1.00  0.00    -0.356 OA
HETATM   16  C   UNL     1      43.975 -20.779   2.048  1.00  0.00     0.210 C 
ENDBRANCH  11  15
ENDBRANCH   8   9
BRANCH   8  17
HETATM   17  N   UNL     1      40.907 -14.877   4.012  1.00  0.00    -0.061 N 
HETATM   18  H   UNL     1      40.156 -14.724   3.325  1.00  0.00     0.280 HD
HETATM   19  C   UNL     1      40.830 -13.725   4.977  1.00  0.00     0.236 C 
HETATM   20  C   UNL     1      40.929 -14.372   6.341  1.00  0.00     0.029 C 
HETATM   21  C   UNL     1      40.157 -15.663   6.166  1.00  0.00     0.029 C 
HETATM   22  C   UNL     1      40.514 -16.134   4.767  1.00  0.00     0.236 C 
ENDBRANCH   8  17
ENDBRANCH   7   8
ENDBRANCH   1   7
BRANCH   3  23
HETATM   23  C   UNL     1      38.838 -12.029  -0.928  1.00  0.00     0.149 C 
HETATM   24  C   UNL     1      38.098 -12.518  -2.210  1.00  0.00     0.149 C 
HETATM   25  C   UNL     1      37.110 -11.403  -2.598  1.00  0.00     0.073 C 
HETATM   26  C   UNL     1      36.877 -10.713  -1.286  1.00  0.00    -0.047 A 
HETATM   27  C   UNL     1      37.849 -11.061  -0.343  1.00  0.00    -0.026 A 
HETATM   28  C   UNL     1      35.886  -9.792  -0.986  1.00  0.00     0.008 A 
HETATM   29  C   UNL     1      37.852 -10.485   0.920  1.00  0.00     0.010 A 
HETATM   30  C   UNL     1      36.849  -9.565   1.235  1.00  0.00     0.001 A 
HETATM   31  C   UNL     1      35.874  -9.222   0.288  1.00  0.00     0.001 A 
BRANCH  24  32
HETATM   32  O   UNL     1      37.365 -13.731  -1.946  1.00  0.00    -0.393 OA
HETATM   33  H   UNL     1      36.528 -13.461  -1.530  1.00  0.00     0.210 HD
ENDBRANCH  24  32
ENDBRANCH   3  23
TORSDOF 7
ENDMDL
MODEL 9
REMARK VINA RESULT:      -7.6      6.218      9.755
REMARK  7 active torsions:
REMARK  status: ('A' for Active; 'I' for Inactive)
REMARK    1  A    between atoms: O_2  and  C_3 
REMARK    2  A    between atoms: C_5  and  C_6 
REMARK    3  A    between atoms: C_6  and  N_7 
REMARK    4  A    between atoms: C_6  and  C_13 
REMARK    5  A    between atoms: C_13  and  N_14 
REMARK       I    between atoms: N_14  and  C_15 
REMARK       I    between atoms: C_15  and  N_16 
REMARK    6  A    between atoms: N_16  and  C_17 
REMARK    7  A    between atoms: C_18  and  O_19 
ROOT
HETATM    1  N   UNL     1      40.207 -13.111   1.281  1.00  0.00    -0.341 N 
HETATM    2  C   UNL     1      40.453 -14.461   1.289  1.00  0.00     0.316 C 
HETATM    3  N   UNL     1      41.248 -14.837   2.325  1.00  0.00    -0.332 N 
HETATM    4  O   UNL     1      39.908 -15.236   0.515  1.00  0.00    -0.247 OA
HETATM    5  H   UNL     1      40.940 -12.551   1.699  1.00  0.00     0.164 HD
HETATM    6  H   UNL     1      42.001 -14.211   2.578  1.00  0.00     0.165 HD
ENDROOT
BRANCH   1   7
HETATM    7  C   UNL     1      39.447 -12.515   0.191  1.00  0.00     0.162 C 
BRANCH   7   8
HETATM    8  C   UNL     1      40.260 -12.076  -1.074  1.00  0.00     0.238 C 
BRANCH   8   9
HETATM    9  C   UNL     1      40.517 -10.574  -1.120  1.00  0.00    -0.023 A 
HETATM   10  C   UNL     1      41.063 -10.018  -2.291  1.00  0.00     0.046 A 
HETATM   11  C   UNL     1      41.328  -8.649  -2.396  1.00  0.00     0.068 A 
HETATM   12  C   UNL     1      41.019  -7.809  -1.329  1.00  0.00     0.037 A 
HETATM   13  C   UNL     1      40.464  -8.342  -0.164  1.00  0.00     0.003 A 
HETATM   14  C   UNL     1      40.215  -9.712  -0.056  1.00  0.00     0.009 A 
BRANCH  11  15
HETATM   15  O   UNL     1      41.876  -8.267  -3.587  1.00  0.00    -0.356 OA
HETATM   16  C   UNL     1      41.120  -7.352  -4.375  1.00  0.00     0.210 C 
ENDBRANCH  11  15
ENDBRANCH   8   9
BRANCH   8  17
HETATM   17  N   UNL     1      39.665 -12.550  -2.407  1.00  0.00    -0.061 N 
HETATM   18  H   UNL     1      40.201 -12.021  -3.108  1.00  0.00     0.280 HD
HETATM   19  C   UNL     1      38.215 -12.258  -2.683  1.00  0.00     0.236 C 
HETATM   20  C   UNL     1      37.544 -13.614  -2.635  1.00  0.00     0.029 C 
HETATM   21  C   UNL     1      38.579 -14.531  -3.252  1.00  0.00     0.029 C 
HETATM   22  C   UNL     1      39.908 -14.013  -2.731  1.00  0.00     0.236 C 
ENDBRANCH   8  17
ENDBRANCH   7   8
ENDBRANCH   1   7
BRANCH   3  23
HETATM   23  C   UNL     1      41.598 -16.237   2.488  1.00  0.00     0.149 C 
HETATM   24  C   UNL     1      42.839 -16.660   1.646  1.00  0.00     0.149 C 
HETATM   25  C   UNL     1      43.598 -17.710   2.480  1.00  0.00     0.073 C 
HETATM   26  C   UNL     1      43.175 -17.372   3.879  1.00  0.00    -0.047 A 
HETATM   27  C   UNL     1      42.048 -16.545   3.889  1.00  0.00    -0.026 A 
HETATM   28  C   UNL     1      43.738 -17.829   5.060  1.00  0.00     0.008 A 
HETATM   29  C   UNL     1      41.457 -16.163   5.086  1.00  0.00     0.010 A 
HETATM   30  C   UNL     1      42.026 -16.608   6.281  1.00  0.00     0.001 A 
HETATM   31  C   UNL     1      43.159 -17.435   6.267  1.00  0.00     0.001 A 
BRANCH  24  32
HETATM   32  O   UNL     1      43.704 -15.532   1.406  1.00  0.00    -0.393 OA
HETATM   33  H   UNL     1      43.381 -14.813   1.976  1.00  0.00     0.210 HD
ENDBRANCH  24  32
ENDBRANCH   3  23
TORSDOF 7
ENDMDL
MODEL 10
REMARK VINA RESULT:      -7.5      2.501      8.591
REMARK  7 active torsions:
REMARK  status: ('A' for Active; 'I' for Inactive)
REMARK    1  A    between atoms: O_2  and  C_3 
REMARK    2  A    between atoms: C_5  and  C_6 
REMARK    3  A    between atoms: C_6  and  N_7 
REMARK    4  A    between atoms: C_6  and  C_13 
REMARK    5  A    between atoms: C_13  and  N_14 
REMARK       I    between atoms: N_14  and  C_15 
REMARK       I    between atoms: C_15  and  N_16 
REMARK    6  A    between atoms: N_16  and  C_17 
REMARK    7  A    between atoms: C_18  and  O_19 
ROOT
HETATM    1  N   UNL     1      42.566 -12.370   5.455  1.00  0.00    -0.341 N 
HETATM    2  C   UNL     1      41.977 -13.506   4.958  1.00  0.00     0.316 C 
HETATM    3  N   UNL     1      42.768 -14.147   4.057  1.00  0.00    -0.332 N 
HETATM    4  O   UNL     1      40.916 -13.940   5.383  1.00  0.00    -0.247 OA
HETATM    5  H   UNL     1      43.222 -11.928   4.822  1.00  0.00     0.164 HD
HETATM    6  H   UNL     1      43.306 -13.570   3.424  1.00  0.00     0.165 HD
ENDROOT
BRANCH   1   7
HETATM    7  C   UNL     1      41.828 -11.506   6.366  1.00  0.00     0.162 C 
BRANCH   7   8
HETATM    8  C   UNL     1      42.425 -10.080   6.620  1.00  0.00     0.238 C 
BRANCH   8   9
HETATM    9  C   UNL     1      43.464 -10.065   7.735  1.00  0.00    -0.023 A 
HETATM   10  C   UNL     1      43.069  -9.653   9.021  1.00  0.00     0.046 A 
HETATM   11  C   UNL     1      43.974  -9.610  10.086  1.00  0.00     0.068 A 
HETATM   12  C   UNL     1      45.291 -10.012   9.880  1.00  0.00     0.037 A 
HETATM   13  C   UNL     1      45.698 -10.437   8.614  1.00  0.00     0.003 A 
HETATM   14  C   UNL     1      44.795 -10.463   7.548  1.00  0.00     0.009 A 
BRANCH  11  15
HETATM   15  O   UNL     1      43.442  -9.169  11.265  1.00  0.00    -0.356 OA
HETATM   16  C   UNL     1      42.212  -9.759  11.672  1.00  0.00     0.210 C 
ENDBRANCH  11  15
ENDBRANCH   8   9
BRANCH   8  17
HETATM   17  N   UNL     1      41.376  -8.986   6.862  1.00  0.00    -0.061 N 
HETATM   18  H   UNL     1      41.637  -8.607   7.782  1.00  0.00     0.280 HD
HETATM   19  C   UNL     1      39.933  -9.396   6.972  1.00  0.00     0.236 C 
HETATM   20  C   UNL     1      39.289  -8.843   5.719  1.00  0.00     0.029 C 
HETATM   21  C   UNL     1      40.006  -7.525   5.519  1.00  0.00     0.029 C 
HETATM   22  C   UNL     1      41.447  -7.811   5.904  1.00  0.00     0.236 C 
ENDBRANCH   8  17
ENDBRANCH   7   8
ENDBRANCH   1   7
BRANCH   3  23
HETATM   23  C   UNL     1      42.301 -15.376   3.440  1.00  0.00     0.149 C 
HETATM   24  C   UNL     1      42.592 -15.443   1.911  1.00  0.00     0.149 C 
HETATM   25  C   UNL     1      42.895 -16.919   1.587  1.00  0.00     0.073 C 
HETATM   26  C   UNL     1      43.373 -17.444   2.909  1.00  0.00    -0.047 A 
HETATM   27  C   UNL     1      43.038 -16.579   3.956  1.00  0.00    -0.026 A 
HETATM   28  C   UNL     1      44.015 -18.647   3.151  1.00  0.00     0.008 A 
HETATM   29  C   UNL     1      43.336 -16.909   5.271  1.00  0.00     0.010 A 
HETATM   30  C   UNL     1      43.996 -18.114   5.523  1.00  0.00     0.001 A 
HETATM   31  C   UNL     1      44.332 -18.976   4.470  1.00  0.00     0.001 A 
BRANCH  24  32
HETATM   32  O   UNL     1      43.740 -14.640   1.573  1.00  0.00    -0.393 OA
HETATM   33  H   UNL     1      43.821 -14.672   0.604  1.00  0.00     0.210 HD
ENDBRANCH  24  32
ENDBRANCH   3  23
TORSDOF 7
ENDMDL
