MODEL 1
REMARK VINA RESULT:      -8.9      0.000      0.000
REMARK  6 active torsions:
REMARK  status: ('A' for Active; 'I' for Inactive)
REMARK    1  A    between atoms: C_2  and  C_3 
REMARK    2  A    between atoms: C_7  and  C_8 
REMARK       I    between atoms: C_8  and  N_9 
REMARK    3  A    between atoms: N_9  and  C_10 
REMARK    4  A    between atoms: C_13  and  C_14 
REMARK       I    between atoms: C_14  and  N_15 
REMARK    5  A    between atoms: N_15  and  C_16 
REMARK    6  A    between atoms: C_16  and  C_17 
ROOT
HETATM    1  C   UNL     1      43.096 -11.808   6.580  1.00  0.00     0.035 A 
HETATM    2  C   UNL     1      43.125 -11.220   5.313  1.00  0.00     0.030 A 
HETATM    3  C   UNL     1      43.164 -12.012   4.157  1.00  0.00     0.019 A 
HETATM    4  C   UNL     1      43.170 -13.407   4.260  1.00  0.00     0.032 A 
HETATM    5  C   UNL     1      43.180 -13.999   5.526  1.00  0.00     0.019 A 
HETATM    6  C   UNL     1      43.141 -13.205   6.676  1.00  0.00     0.030 A 
ENDROOT
BRANCH   1   7
HETATM    7  N   UNL     1      43.015 -11.087   7.787  1.00  0.00    -0.322 N 
HETATM    8  C   UNL     1      44.033 -10.802   8.678  1.00  0.00     0.274 C 
HETATM    9  O   UNL     1      45.197 -11.172   8.566  1.00  0.00    -0.266 OA
HETATM   10  H   UNL     1      42.107 -10.704   8.007  1.00  0.00     0.169 HD
BRANCH   8  11
HETATM   11  C   UNL     1      43.632  -9.987   9.801  1.00  0.00     0.120 A 
HETATM   12  N   UNL     1      42.310  -9.746  10.061  1.00  0.00    -0.273 N 
HETATM   13  N   UNL     1      42.092  -8.980  11.142  1.00  0.00    -0.179 NA
HETATM   14  H   UNL     1      41.514 -10.086   9.530  1.00  0.00     0.189 HD
HETATM   15  C   UNL     1      43.319  -8.711  11.599  1.00  0.00     0.056 A 
HETATM   16  C   UNL     1      44.316  -9.315  10.797  1.00  0.00     0.065 A 
BRANCH  15  17
HETATM   17  C   UNL     1      43.505  -7.868  12.816  1.00  0.00     0.056 C 
HETATM   18  C   UNL     1      42.541  -8.245  13.931  1.00  0.00     0.011 C 
ENDBRANCH  15  17
ENDBRANCH   8  11
ENDBRANCH   1   7
BRANCH   4  19
HETATM   19  C   UNL     1      43.149 -14.300   3.069  1.00  0.00     0.251 C 
HETATM   20  N   UNL     1      42.902 -15.633   3.308  1.00  0.00    -0.353 N 
HETATM   21  H   UNL     1      42.720 -15.967   4.243  1.00  0.00     0.163 HD
HETATM   22  O   UNL     1      43.400 -13.849   1.958  1.00  0.00    -0.268 OA
BRANCH  20  23
HETATM   23  C   UNL     1      42.965 -16.610   2.243  1.00  0.00     0.161 C 
BRANCH  23  24
HETATM   24  C   UNL     1      43.324 -17.979   2.768  1.00  0.00    -0.040 A 
HETATM   25  C   UNL     1      43.787 -18.136   4.084  1.00  0.00     0.012 A 
HETATM   26  C   UNL     1      44.093 -19.404   4.580  1.00  0.00     0.043 A 
HETATM   27  C   UNL     1      43.932 -20.518   3.765  1.00  0.00     0.116 A 
HETATM   28  F   UNL     1      44.228 -21.734   4.243  1.00  0.00    -0.206 F 
HETATM   29  C   UNL     1      43.462 -20.390   2.465  1.00  0.00     0.043 A 
HETATM   30  C   UNL     1      43.149 -19.124   1.969  1.00  0.00     0.012 A 
ENDBRANCH  23  24
ENDBRANCH  20  23
ENDBRANCH   4  19
TORSDOF 6
ENDMDL
MODEL 2
REMARK VINA RESULT:      -8.4      2.014      3.178
REMARK  6 active torsions:
REMARK  status: ('A' for Active; 'I' for Inactive)
REMARK    1  A    between atoms: C_2  and  C_3 
REMARK    2  A    between atoms: C_7  and  C_8 
REMARK       I    between atoms: C_8  and  N_9 
REMARK    3  A    between atoms: N_9  and  C_10 
REMARK    4  A    between atoms: C_13  and  C_14 
REMARK       I    between atoms: C_14  and  N_15 
REMARK    5  A    between atoms: N_15  and  C_16 
REMARK    6  A    between atoms: C_16  and  C_17 
ROOT
HETATM    1  C   UNL     1      43.450 -10.256   8.556  1.00  0.00     0.035 A 
HETATM    2  C   UNL     1      44.657 -10.856   8.192  1.00  0.00     0.030 A 
HETATM    3  C   UNL     1      44.848 -11.346   6.892  1.00  0.00     0.019 A 
HETATM    4  C   UNL     1      43.830 -11.234   5.941  1.00  0.00     0.032 A 
HETATM    5  C   UNL     1      42.607 -10.669   6.312  1.00  0.00     0.019 A 
HETATM    6  C   UNL     1      42.420 -10.182   7.609  1.00  0.00     0.030 A 
ENDROOT
BRANCH   1   7
HETATM    7  N   UNL     1      43.191  -9.703   9.826  1.00  0.00    -0.322 N 
HETATM    8  C   UNL     1      43.422 -10.270  11.064  1.00  0.00     0.274 C 
HETATM    9  O   UNL     1      43.875 -11.393  11.256  1.00  0.00    -0.266 OA
HETATM   10  H   UNL     1      42.823  -8.762   9.825  1.00  0.00     0.169 HD
BRANCH   8  11
HETATM   11  C   UNL     1      43.098  -9.415  12.182  1.00  0.00     0.120 A 
HETATM   12  N   UNL     1      42.244  -9.834  13.168  1.00  0.00    -0.273 N 
HETATM   13  N   UNL     1      42.046  -8.934  14.145  1.00  0.00    -0.179 NA
HETATM   14  H   UNL     1      41.772 -10.731  13.221  1.00  0.00     0.189 HD
HETATM   15  C   UNL     1      42.797  -7.891  13.779  1.00  0.00     0.056 A 
HETATM   16  C   UNL     1      43.473  -8.139  12.560  1.00  0.00     0.065 A 
BRANCH  15  17
HETATM   17  C   UNL     1      42.848  -6.662  14.624  1.00  0.00     0.056 C 
HETATM   18  C   UNL     1      42.268  -6.893  16.011  1.00  0.00     0.011 C 
ENDBRANCH  15  17
ENDBRANCH   8  11
ENDBRANCH   1   7
BRANCH   4  19
HETATM   19  C   UNL     1      43.997 -11.679   4.530  1.00  0.00     0.251 C 
HETATM   20  N   UNL     1      43.020 -12.511   4.031  1.00  0.00    -0.353 N 
HETATM   21  H   UNL     1      42.225 -12.774   4.595  1.00  0.00     0.163 HD
HETATM   22  O   UNL     1      44.992 -11.351   3.895  1.00  0.00    -0.268 OA
BRANCH  20  23
HETATM   23  C   UNL     1      43.133 -13.093   2.711  1.00  0.00     0.161 C 
BRANCH  23  24
HETATM   24  C   UNL     1      43.119 -14.601   2.768  1.00  0.00    -0.040 A 
HETATM   25  C   UNL     1      43.305 -15.356   1.599  1.00  0.00     0.012 A 
HETATM   26  C   UNL     1      43.320 -16.752   1.653  1.00  0.00     0.043 A 
HETATM   27  C   UNL     1      43.154 -17.394   2.873  1.00  0.00     0.116 A 
HETATM   28  F   UNL     1      43.167 -18.733   2.922  1.00  0.00    -0.206 F 
HETATM   29  C   UNL     1      42.982 -16.669   4.045  1.00  0.00     0.043 A 
HETATM   30  C   UNL     1      42.973 -15.274   3.995  1.00  0.00     0.012 A 
ENDBRANCH  23  24
ENDBRANCH  20  23
ENDBRANCH   4  19
TORSDOF 6
ENDMDL
MODEL 3
REMARK VINA RESULT:      -8.1      4.147     10.993
REMARK  6 active torsions:
REMARK  status: ('A' for Active; 'I' for Inactive)
REMARK    1  A    between atoms: C_2  and  C_3 
REMARK    2  A    between atoms: C_7  and  C_8 
REMARK       I    between atoms: C_8  and  N_9 
REMARK    3  A    between atoms: N_9  and  C_10 
REMARK    4  A    between atoms: C_13  and  C_14 
REMARK       I    between atoms: C_14  and  N_15 
REMARK    5  A    between atoms: N_15  and  C_16 
REMARK    6  A    between atoms: C_16  and  C_17 
ROOT
HETATM    1  C   UNL     1      44.067 -12.073   6.570  1.00  0.00     0.035 A 
HETATM    2  C   UNL     1      45.213 -11.553   7.176  1.00  0.00     0.030 A 
HETATM    3  C   UNL     1      45.184 -10.300   7.804  1.00  0.00     0.019 A 
HETATM    4  C   UNL     1      44.001  -9.555   7.835  1.00  0.00     0.032 A 
HETATM    5  C   UNL     1      42.863 -10.054   7.196  1.00  0.00     0.019 A 
HETATM    6  C   UNL     1      42.896 -11.305   6.571  1.00  0.00     0.030 A 
ENDROOT
BRANCH   1   7
HETATM    7  N   UNL     1      44.000 -13.338   5.955  1.00  0.00    -0.322 N 
HETATM    8  C   UNL     1      43.529 -14.521   6.492  1.00  0.00     0.274 C 
HETATM    9  O   UNL     1      43.113 -14.664   7.636  1.00  0.00    -0.266 OA
HETATM   10  H   UNL     1      44.302 -13.372   4.991  1.00  0.00     0.169 HD
BRANCH   8  11
HETATM   11  C   UNL     1      43.542 -15.639   5.576  1.00  0.00     0.120 A 
HETATM   12  N   UNL     1      44.160 -16.815   5.906  1.00  0.00    -0.273 N 
HETATM   13  N   UNL     1      44.081 -17.764   4.959  1.00  0.00    -0.179 NA
HETATM   14  H   UNL     1      44.650 -17.022   6.771  1.00  0.00     0.189 HD
HETATM   15  C   UNL     1      43.387 -17.181   3.977  1.00  0.00     0.056 A 
HETATM   16  C   UNL     1      43.028 -15.853   4.311  1.00  0.00     0.065 A 
BRANCH  15  17
HETATM   17  C   UNL     1      43.080 -17.927   2.722  1.00  0.00     0.056 C 
HETATM   18  C   UNL     1      43.775 -19.280   2.671  1.00  0.00     0.011 C 
ENDBRANCH  15  17
ENDBRANCH   8  11
ENDBRANCH   1   7
BRANCH   4  19
HETATM   19  C   UNL     1      43.893  -8.248   8.539  1.00  0.00     0.251 C 
HETATM   20  N   UNL     1      42.708  -8.002   9.194  1.00  0.00    -0.353 N 
HETATM   21  H   UNL     1      41.971  -8.692   9.210  1.00  0.00     0.163 HD
HETATM   22  O   UNL     1      44.806  -7.434   8.468  1.00  0.00    -0.268 OA
BRANCH  20  23
HETATM   23  C   UNL     1      42.447  -6.724   9.819  1.00  0.00     0.161 C 
BRANCH  23  24
HETATM   24  C   UNL     1      42.568  -6.807  11.321  1.00  0.00    -0.040 A 
HETATM   25  C   UNL     1      43.096  -7.957  11.928  1.00  0.00     0.012 A 
HETATM   26  C   UNL     1      43.234  -8.025  13.316  1.00  0.00     0.043 A 
HETATM   27  C   UNL     1      42.850  -6.943  14.099  1.00  0.00     0.116 A 
HETATM   28  F   UNL     1      42.982  -7.012  15.430  1.00  0.00    -0.206 F 
HETATM   29  C   UNL     1      42.338  -5.789  13.521  1.00  0.00     0.043 A 
HETATM   30  C   UNL     1      42.206  -5.716  12.134  1.00  0.00     0.012 A 
ENDBRANCH  23  24
ENDBRANCH  20  23
ENDBRANCH   4  19
TORSDOF 6
ENDMDL
MODEL 4
REMARK VINA RESULT:      -8.0      6.348     10.048
REMARK  6 active torsions:
REMARK  status: ('A' for Active; 'I' for Inactive)
REMARK    1  A    between atoms: C_2  and  C_3 
REMARK    2  A    between atoms: C_7  and  C_8 
REMARK       I    between atoms: C_8  and  N_9 
REMARK    3  A    between atoms: N_9  and  C_10 
REMARK    4  A    between atoms: C_13  and  C_14 
REMARK       I    between atoms: C_14  and  N_15 
REMARK    5  A    between atoms: N_15  and  C_16 
REMARK    6  A    between atoms: C_16  and  C_17 
ROOT
HETATM    1  C   UNL     1      39.237 -13.111  -0.095  1.00  0.00     0.035 A 
HETATM    2  C   UNL     1      39.842 -12.314   0.880  1.00  0.00     0.030 A 
HETATM    3  C   UNL     1      40.913 -12.805   1.641  1.00  0.00     0.019 A 
HETATM    4  C   UNL     1      41.392 -14.100   1.428  1.00  0.00     0.032 A 
HETATM    5  C   UNL     1      40.765 -14.914   0.480  1.00  0.00     0.019 A 
HETATM    6  C   UNL     1      39.697 -14.421  -0.276  1.00  0.00     0.030 A 
ENDROOT
BRANCH   1   7
HETATM    7  N   UNL     1      38.186 -12.682  -0.929  1.00  0.00    -0.322 N 
HETATM    8  C   UNL     1      38.265 -11.887  -2.056  1.00  0.00     0.274 C 
HETATM    9  O   UNL     1      39.293 -11.389  -2.502  1.00  0.00    -0.266 OA
HETATM   10  H   UNL     1      37.269 -13.030  -0.689  1.00  0.00     0.169 HD
BRANCH   8  11
HETATM   11  C   UNL     1      37.003 -11.676  -2.727  1.00  0.00     0.120 A 
HETATM   12  N   UNL     1      36.324 -12.720  -3.297  1.00  0.00    -0.273 N 
HETATM   13  N   UNL     1      35.163 -12.371  -3.875  1.00  0.00    -0.179 NA
HETATM   14  H   UNL     1      36.610 -13.693  -3.316  1.00  0.00     0.189 HD
HETATM   15  C   UNL     1      35.087 -11.052  -3.675  1.00  0.00     0.056 A 
HETATM   16  C   UNL     1      36.211 -10.568  -2.965  1.00  0.00     0.065 A 
BRANCH  15  17
HETATM   17  C   UNL     1      33.915 -10.276  -4.179  1.00  0.00     0.056 C 
HETATM   18  C   UNL     1      32.597 -10.807  -3.636  1.00  0.00     0.011 C 
ENDBRANCH  15  17
ENDBRANCH   8  11
ENDBRANCH   1   7
BRANCH   4  19
HETATM   19  C   UNL     1      42.564 -14.654   2.161  1.00  0.00     0.251 C 
HETATM   20  N   UNL     1      42.290 -15.562   3.158  1.00  0.00    -0.353 N 
HETATM   21  H   UNL     1      41.341 -15.848   3.352  1.00  0.00     0.163 HD
HETATM   22  O   UNL     1      43.694 -14.256   1.904  1.00  0.00    -0.268 OA
BRANCH  20  23
HETATM   23  C   UNL     1      43.338 -16.083   4.008  1.00  0.00     0.161 C 
BRANCH  23  24
HETATM   24  C   UNL     1      43.522 -17.569   3.814  1.00  0.00    -0.040 A 
HETATM   25  C   UNL     1      43.232 -18.164   2.576  1.00  0.00     0.012 A 
HETATM   26  C   UNL     1      43.427 -19.533   2.386  1.00  0.00     0.043 A 
HETATM   27  C   UNL     1      43.916 -20.309   3.430  1.00  0.00     0.116 A 
HETATM   28  F   UNL     1      44.101 -21.623   3.246  1.00  0.00    -0.206 F 
HETATM   29  C   UNL     1      44.224 -19.740   4.660  1.00  0.00     0.043 A 
HETATM   30  C   UNL     1      44.036 -18.371   4.849  1.00  0.00     0.012 A 
ENDBRANCH  23  24
ENDBRANCH  20  23
ENDBRANCH   4  19
TORSDOF 6
ENDMDL
MODEL 5
REMARK VINA RESULT:      -8.0      3.746     10.654
REMARK  6 active torsions:
REMARK  status: ('A' for Active; 'I' for Inactive)
REMARK    1  A    between atoms: C_2  and  C_3 
REMARK    2  A    between atoms: C_7  and  C_8 
REMARK       I    between atoms: C_8  and  N_9 
REMARK    3  A    between atoms: N_9  and  C_10 
REMARK    4  A    between atoms: C_13  and  C_14 
REMARK       I    between atoms: C_14  and  N_15 
REMARK    5  A    between atoms: N_15  and  C_16 
REMARK    6  A    between atoms: C_16  and  C_17 
ROOT
HETATM    1  C   UNL     1      43.011 -13.843   5.896  1.00  0.00     0.035 A 
HETATM    2  C   UNL     1      41.869 -13.087   5.623  1.00  0.00     0.030 A 
HETATM    3  C   UNL     1      41.778 -11.752   6.042  1.00  0.00     0.019 A 
HETATM    4  C   UNL     1      42.836 -11.158   6.736  1.00  0.00     0.032 A 
HETATM    5  C   UNL     1      43.965 -11.922   7.044  1.00  0.00     0.019 A 
HETATM    6  C   UNL     1      44.052 -13.254   6.625  1.00  0.00     0.030 A 
ENDROOT
BRANCH   1   7
HETATM    7  N   UNL     1      43.200 -15.174   5.477  1.00  0.00    -0.322 N 
HETATM    8  C   UNL     1      43.297 -15.653   4.184  1.00  0.00     0.274 C 
HETATM    9  O   UNL     1      43.200 -14.975   3.168  1.00  0.00    -0.266 OA
HETATM   10  H   UNL     1      43.312 -15.853   6.216  1.00  0.00     0.169 HD
BRANCH   8  11
HETATM   11  C   UNL     1      43.550 -17.073   4.091  1.00  0.00     0.120 A 
HETATM   12  N   UNL     1      44.099 -17.761   5.140  1.00  0.00    -0.273 N 
HETATM   13  N   UNL     1      44.266 -19.074   4.910  1.00  0.00    -0.179 NA
HETATM   14  H   UNL     1      44.377 -17.380   6.039  1.00  0.00     0.189 HD
HETATM   15  C   UNL     1      43.810 -19.243   3.665  1.00  0.00     0.056 A 
HETATM   16  C   UNL     1      43.353 -18.025   3.109  1.00  0.00     0.065 A 
BRANCH  15  17
HETATM   17  C   UNL     1      43.824 -20.594   3.031  1.00  0.00     0.056 C 
HETATM   18  C   UNL     1      43.524 -20.535   1.541  1.00  0.00     0.011 C 
ENDBRANCH  15  17
ENDBRANCH   8  11
ENDBRANCH   1   7
BRANCH   4  19
HETATM   19  C   UNL     1      42.823  -9.729   7.152  1.00  0.00     0.251 C 
HETATM   20  N   UNL     1      43.851  -9.320   7.971  1.00  0.00    -0.353 N 
HETATM   21  H   UNL     1      44.583  -9.960   8.244  1.00  0.00     0.163 HD
HETATM   22  O   UNL     1      41.900  -8.999   6.813  1.00  0.00    -0.268 OA
BRANCH  20  23
HETATM   23  C   UNL     1      43.883  -7.984   8.525  1.00  0.00     0.161 C 
BRANCH  23  24
HETATM   24  C   UNL     1      43.502  -7.981   9.986  1.00  0.00    -0.040 A 
HETATM   25  C   UNL     1      42.763  -6.916  10.524  1.00  0.00     0.012 A 
HETATM   26  C   UNL     1      42.386  -6.924  11.869  1.00  0.00     0.043 A 
HETATM   27  C   UNL     1      42.744  -7.997  12.676  1.00  0.00     0.116 A 
HETATM   28  F   UNL     1      42.383  -8.002  13.966  1.00  0.00    -0.206 F 
HETATM   29  C   UNL     1      43.463  -9.069  12.163  1.00  0.00     0.043 A 
HETATM   30  C   UNL     1      43.834  -9.066  10.818  1.00  0.00     0.012 A 
ENDBRANCH  23  24
ENDBRANCH  20  23
ENDBRANCH   4  19
TORSDOF 6
ENDMDL
MODEL 6
REMARK VINA RESULT:      -7.9      3.613     10.694
REMARK  6 active torsions:
REMARK  status: ('A' for Active; 'I' for Inactive)
REMARK    1  A    between atoms: C_2  and  C_3 
REMARK    2  A    between atoms: C_7  and  C_8 
REMARK       I    between atoms: C_8  and  N_9 
REMARK    3  A    between atoms: N_9  and  C_10 
REMARK    4  A    between atoms: C_13  and  C_14 
REMARK       I    between atoms: C_14  and  N_15 
REMARK    5  A    between atoms: N_15  and  C_16 
REMARK    6  A    between atoms: C_16  and  C_17 
ROOT
HETATM    1  C   UNL     1      43.327 -12.539   5.909  1.00  0.00     0.035 A 
HETATM    2  C   UNL     1      42.359 -11.552   6.102  1.00  0.00     0.030 A 
HETATM    3  C   UNL     1      42.584 -10.494   6.993  1.00  0.00     0.019 A 
HETATM    4  C   UNL     1      43.788 -10.411   7.698  1.00  0.00     0.032 A 
HETATM    5  C   UNL     1      44.745 -11.417   7.536  1.00  0.00     0.019 A 
HETATM    6  C   UNL     1      44.516 -12.472   6.646  1.00  0.00     0.030 A 
ENDROOT
BRANCH   1   7
HETATM    7  N   UNL     1      43.198 -13.612   5.004  1.00  0.00    -0.322 N 
HETATM    8  C   UNL     1      43.204 -13.564   3.623  1.00  0.00     0.274 C 
HETATM    9  O   UNL     1      43.294 -12.545   2.949  1.00  0.00    -0.266 OA
HETATM   10  H   UNL     1      43.127 -14.529   5.421  1.00  0.00     0.169 HD
BRANCH   8  11
HETATM   11  C   UNL     1      43.108 -14.856   2.982  1.00  0.00     0.120 A 
HETATM   12  N   UNL     1      43.072 -14.965   1.617  1.00  0.00    -0.273 N 
HETATM   13  N   UNL     1      42.991 -16.228   1.168  1.00  0.00    -0.179 NA
HETATM   14  H   UNL     1      43.104 -14.205   0.946  1.00  0.00     0.189 HD
HETATM   15  C   UNL     1      42.971 -16.966   2.283  1.00  0.00     0.056 A 
HETATM   16  C   UNL     1      43.039 -16.157   3.442  1.00  0.00     0.065 A 
BRANCH  15  17
HETATM   17  C   UNL     1      42.885 -18.454   2.204  1.00  0.00     0.056 C 
HETATM   18  C   UNL     1      43.925 -19.138   3.078  1.00  0.00     0.011 C 
ENDBRANCH  15  17
ENDBRANCH   8  11
ENDBRANCH   1   7
BRANCH   4  19
HETATM   19  C   UNL     1      44.110  -9.280   8.610  1.00  0.00     0.251 C 
HETATM   20  N   UNL     1      44.196  -9.578   9.950  1.00  0.00    -0.353 N 
HETATM   21  H   UNL     1      44.073 -10.525  10.280  1.00  0.00     0.163 HD
HETATM   22  O   UNL     1      44.226  -8.144   8.163  1.00  0.00    -0.268 OA
BRANCH  20  23
HETATM   23  C   UNL     1      44.395  -8.542  10.939  1.00  0.00     0.161 C 
BRANCH  23  24
HETATM   24  C   UNL     1      43.436  -8.687  12.096  1.00  0.00    -0.040 A 
HETATM   25  C   UNL     1      43.449  -7.759  13.149  1.00  0.00     0.012 A 
HETATM   26  C   UNL     1      42.544  -7.876  14.206  1.00  0.00     0.043 A 
HETATM   27  C   UNL     1      41.622  -8.916  14.210  1.00  0.00     0.116 A 
HETATM   28  F   UNL     1      40.756  -9.026  15.226  1.00  0.00    -0.206 F 
HETATM   29  C   UNL     1      41.580  -9.838  13.172  1.00  0.00     0.043 A 
HETATM   30  C   UNL     1      42.479  -9.719  12.112  1.00  0.00     0.012 A 
ENDBRANCH  23  24
ENDBRANCH  20  23
ENDBRANCH   4  19
TORSDOF 6
ENDMDL
MODEL 7
REMARK VINA RESULT:      -7.9      6.564     13.446
REMARK  6 active torsions:
REMARK  status: ('A' for Active; 'I' for Inactive)
REMARK    1  A    between atoms: C_2  and  C_3 
REMARK    2  A    between atoms: C_7  and  C_8 
REMARK       I    between atoms: C_8  and  N_9 
REMARK    3  A    between atoms: N_9  and  C_10 
REMARK    4  A    between atoms: C_13  and  C_14 
REMARK       I    between atoms: C_14  and  N_15 
REMARK    5  A    between atoms: N_15  and  C_16 
REMARK    6  A    between atoms: C_16  and  C_17 
ROOT
HETATM    1  C   UNL     1      43.054  -8.730  12.506  1.00  0.00     0.035 A 
HETATM    2  C   UNL     1      41.947  -9.387  13.047  1.00  0.00     0.030 A 
HETATM    3  C   UNL     1      41.367  -8.945  14.245  1.00  0.00     0.019 A 
HETATM    4  C   UNL     1      41.891  -7.833  14.911  1.00  0.00     0.032 A 
HETATM    5  C   UNL     1      43.022  -7.196  14.394  1.00  0.00     0.019 A 
HETATM    6  C   UNL     1      43.597  -7.640  13.199  1.00  0.00     0.030 A 
ENDROOT
BRANCH   1   7
HETATM    7  N   UNL     1      43.670  -9.083  11.289  1.00  0.00    -0.322 N 
HETATM    8  C   UNL     1      44.145 -10.323  10.905  1.00  0.00     0.274 C 
HETATM    9  O   UNL     1      44.130 -11.334  11.599  1.00  0.00    -0.266 OA
HETATM   10  H   UNL     1      43.739  -8.345  10.604  1.00  0.00     0.169 HD
BRANCH   8  11
HETATM   11  C   UNL     1      44.673 -10.369   9.561  1.00  0.00     0.120 A 
HETATM   12  N   UNL     1      45.625  -9.477   9.147  1.00  0.00    -0.273 N 
HETATM   13  N   UNL     1      46.025  -9.648   7.876  1.00  0.00    -0.179 NA
HETATM   14  H   UNL     1      46.039  -8.730   9.696  1.00  0.00     0.189 HD
HETATM   15  C   UNL     1      45.304 -10.689   7.449  1.00  0.00     0.056 A 
HETATM   16  C   UNL     1      44.443 -11.175   8.462  1.00  0.00     0.065 A 
BRANCH  15  17
HETATM   17  C   UNL     1      45.464 -11.200   6.057  1.00  0.00     0.056 C 
HETATM   18  C   UNL     1      44.126 -11.483   5.389  1.00  0.00     0.011 C 
ENDBRANCH  15  17
ENDBRANCH   8  11
ENDBRANCH   1   7
BRANCH   4  19
HETATM   19  C   UNL     1      41.282  -7.280  16.152  1.00  0.00     0.251 C 
HETATM   20  N   UNL     1      40.809  -8.196  17.064  1.00  0.00    -0.353 N 
HETATM   21  H   UNL     1      40.903  -9.188  16.899  1.00  0.00     0.163 HD
HETATM   22  O   UNL     1      41.169  -6.068  16.294  1.00  0.00    -0.268 OA
BRANCH  20  23
HETATM   23  C   UNL     1      40.101  -7.776  18.253  1.00  0.00     0.161 C 
BRANCH  23  24
HETATM   24  C   UNL     1      40.688  -8.397  19.497  1.00  0.00    -0.040 A 
HETATM   25  C   UNL     1      39.852  -9.000  20.450  1.00  0.00     0.012 A 
HETATM   26  C   UNL     1      40.395  -9.600  21.589  1.00  0.00     0.043 A 
HETATM   27  C   UNL     1      41.772  -9.603  21.774  1.00  0.00     0.116 A 
HETATM   28  F   UNL     1      42.290 -10.178  22.867  1.00  0.00    -0.206 F 
HETATM   29  C   UNL     1      42.620  -9.026  20.837  1.00  0.00     0.043 A 
HETATM   30  C   UNL     1      42.080  -8.432  19.696  1.00  0.00     0.012 A 
ENDBRANCH  23  24
ENDBRANCH  20  23
ENDBRANCH   4  19
TORSDOF 6
ENDMDL
MODEL 8
REMARK VINA RESULT:      -7.5      2.991      3.234
REMARK  6 active torsions:
REMARK  status: ('A' for Active; 'I' for Inactive)
REMARK    1  A    between atoms: C_2  and  C_3 
REMARK    2  A    between atoms: C_7  and  C_8 
REMARK       I    between atoms: C_8  and  N_9 
REMARK    3  A    between atoms: N_9  and  C_10 
REMARK    4  A    between atoms: C_13  and  C_14 
REMARK       I    between atoms: C_14  and  N_15 
REMARK    5  A    between atoms: N_15  and  C_16 
REMARK    6  A    between atoms: C_16  and  C_17 
ROOT
HETATM    1  C   UNL     1      40.572 -12.190   5.999  1.00  0.00     0.035 A 
HETATM    2  C   UNL     1      40.288 -13.542   6.204  1.00  0.00     0.030 A 
HETATM    3  C   UNL     1      40.611 -14.497   5.229  1.00  0.00     0.019 A 
HETATM    4  C   UNL     1      41.227 -14.105   4.037  1.00  0.00     0.032 A 
HETATM    5  C   UNL     1      41.479 -12.749   3.812  1.00  0.00     0.019 A 
HETATM    6  C   UNL     1      41.155 -11.800   4.787  1.00  0.00     0.030 A 
ENDROOT
BRANCH   1   7
HETATM    7  N   UNL     1      40.319 -11.175   6.941  1.00  0.00    -0.322 N 
HETATM    8  C   UNL     1      39.110 -10.576   7.242  1.00  0.00     0.274 C 
HETATM    9  O   UNL     1      38.041 -10.822   6.693  1.00  0.00    -0.266 OA
HETATM   10  H   UNL     1      41.115 -10.876   7.487  1.00  0.00     0.169 HD
BRANCH   8  11
HETATM   11  C   UNL     1      39.176  -9.601   8.306  1.00  0.00     0.120 A 
HETATM   12  N   UNL     1      39.214  -8.259   8.033  1.00  0.00    -0.273 N 
HETATM   13  N   UNL     1      39.265  -7.477   9.123  1.00  0.00    -0.179 NA
HETATM   14  H   UNL     1      39.205  -7.826   7.116  1.00  0.00     0.189 HD
HETATM   15  C   UNL     1      39.262  -8.343  10.142  1.00  0.00     0.056 A 
HETATM   16  C   UNL     1      39.209  -9.681   9.686  1.00  0.00     0.065 A 
BRANCH  15  17
HETATM   17  C   UNL     1      39.310  -7.853  11.551  1.00  0.00     0.056 C 
HETATM   18  C   UNL     1      40.110  -8.779  12.455  1.00  0.00     0.011 C 
ENDBRANCH  15  17
ENDBRANCH   8  11
ENDBRANCH   1   7
BRANCH   4  19
HETATM   19  C   UNL     1      41.649 -15.078   2.993  1.00  0.00     0.251 C 
HETATM   20  N   UNL     1      42.799 -15.791   3.248  1.00  0.00    -0.353 N 
HETATM   21  H   UNL     1      43.303 -15.669   4.114  1.00  0.00     0.163 HD
HETATM   22  O   UNL     1      41.017 -15.171   1.947  1.00  0.00    -0.268 OA
BRANCH  20  23
HETATM   23  C   UNL     1      43.364 -16.683   2.260  1.00  0.00     0.161 C 
BRANCH  23  24
HETATM   24  C   UNL     1      43.557 -18.074   2.815  1.00  0.00    -0.040 A 
HETATM   25  C   UNL     1      43.972 -18.256   4.144  1.00  0.00     0.012 A 
HETATM   26  C   UNL     1      44.124 -19.541   4.667  1.00  0.00     0.043 A 
HETATM   27  C   UNL     1      43.859 -20.646   3.867  1.00  0.00     0.116 A 
HETATM   28  F   UNL     1      44.008 -21.878   4.371  1.00  0.00    -0.206 F 
HETATM   29  C   UNL     1      43.434 -20.491   2.553  1.00  0.00     0.043 A 
HETATM   30  C   UNL     1      43.274 -19.207   2.030  1.00  0.00     0.012 A 
ENDBRANCH  23  24
ENDBRANCH  20  23
ENDBRANCH   4  19
TORSDOF 6
ENDMDL
MODEL 9
REMARK VINA RESULT:      -7.5      5.766      8.992
REMARK  6 active torsions:
REMARK  status: ('A' for Active; 'I' for Inactive)
REMARK    1  A    between atoms: C_2  and  C_3 
REMARK    2  A    between atoms: C_7  and  C_8 
REMARK       I    between atoms: C_8  and  N_9 
REMARK    3  A    between atoms: N_9  and  C_10 
REMARK    4  A    between atoms: C_13  and  C_14 
REMARK       I    between atoms: C_14  and  N_15 
REMARK    5  A    between atoms: N_15  and  C_16 
REMARK    6  A    between atoms: C_16  and  C_17 
ROOT
HETATM    1  C   UNL     1      39.520 -13.383   1.545  1.00  0.00     0.035 A 
HETATM    2  C   UNL     1      39.683 -12.853   2.827  1.00  0.00     0.030 A 
HETATM    3  C   UNL     1      40.293 -13.606   3.840  1.00  0.00     0.019 A 
HETATM    4  C   UNL     1      40.751 -14.900   3.577  1.00  0.00     0.032 A 
HETATM    5  C   UNL     1      40.556 -15.448   2.306  1.00  0.00     0.019 A 
HETATM    6  C   UNL     1      39.947 -14.694   1.298  1.00  0.00     0.030 A 
ENDROOT
BRANCH   1   7
HETATM    7  N   UNL     1      38.956 -12.681   0.463  1.00  0.00    -0.322 N 
HETATM    8  C   UNL     1      39.612 -12.069  -0.589  1.00  0.00     0.274 C 
HETATM    9  O   UNL     1      40.829 -12.015  -0.730  1.00  0.00    -0.266 OA
HETATM   10  H   UNL     1      37.946 -12.653   0.438  1.00  0.00     0.169 HD
BRANCH   8  11
HETATM   11  C   UNL     1      38.737 -11.479  -1.575  1.00  0.00     0.120 A 
HETATM   12  N   UNL     1      39.236 -10.699  -2.585  1.00  0.00    -0.273 N 
HETATM   13  N   UNL     1      38.304 -10.228  -3.429  1.00  0.00    -0.179 NA
HETATM   14  H   UNL     1      40.210 -10.461  -2.744  1.00  0.00     0.189 HD
HETATM   15  C   UNL     1      37.157 -10.718  -2.948  1.00  0.00     0.056 A 
HETATM   16  C   UNL     1      37.372 -11.503  -1.791  1.00  0.00     0.065 A 
BRANCH  15  17
HETATM   17  C   UNL     1      35.862 -10.414  -3.624  1.00  0.00     0.056 C 
HETATM   18  C   UNL     1      35.188  -9.177  -3.049  1.00  0.00     0.011 C 
ENDBRANCH  15  17
ENDBRANCH   8  11
ENDBRANCH   1   7
BRANCH   4  19
HETATM   19  C   UNL     1      41.461 -15.724   4.593  1.00  0.00     0.251 C 
HETATM   20  N   UNL     1      42.832 -15.778   4.489  1.00  0.00    -0.353 N 
HETATM   21  H   UNL     1      43.319 -15.259   3.772  1.00  0.00     0.163 HD
HETATM   22  O   UNL     1      40.823 -16.355   5.427  1.00  0.00    -0.268 OA
BRANCH  20  23
HETATM   23  C   UNL     1      43.618 -16.632   5.352  1.00  0.00     0.161 C 
BRANCH  23  24
HETATM   24  C   UNL     1      43.770 -18.018   4.771  1.00  0.00    -0.040 A 
HETATM   25  C   UNL     1      43.873 -19.134   5.617  1.00  0.00     0.012 A 
HETATM   26  C   UNL     1      43.986 -20.419   5.082  1.00  0.00     0.043 A 
HETATM   27  C   UNL     1      43.992 -20.591   3.703  1.00  0.00     0.116 A 
HETATM   28  F   UNL     1      44.102 -21.825   3.193  1.00  0.00    -0.206 F 
HETATM   29  C   UNL     1      43.877 -19.504   2.847  1.00  0.00     0.043 A 
HETATM   30  C   UNL     1      43.757 -18.220   3.379  1.00  0.00     0.012 A 
ENDBRANCH  23  24
ENDBRANCH  20  23
ENDBRANCH   4  19
TORSDOF 6
ENDMDL
MODEL 10
REMARK VINA RESULT:      -7.4      4.879     10.745
REMARK  6 active torsions:
REMARK  status: ('A' for Active; 'I' for Inactive)
REMARK    1  A    between atoms: C_2  and  C_3 
REMARK    2  A    between atoms: C_7  and  C_8 
REMARK       I    between atoms: C_8  and  N_9 
REMARK    3  A    between atoms: N_9  and  C_10 
REMARK    4  A    between atoms: C_13  and  C_14 
REMARK       I    between atoms: C_14  and  N_15 
REMARK    5  A    between atoms: N_15  and  C_16 
REMARK    6  A    between atoms: C_16  and  C_17 
ROOT
HETATM    1  C   UNL     1      41.930 -11.934   4.227  1.00  0.00     0.035 A 
HETATM    2  C   UNL     1      41.385 -10.991   5.101  1.00  0.00     0.030 A 
HETATM    3  C   UNL     1      42.071 -10.612   6.264  1.00  0.00     0.019 A 
HETATM    4  C   UNL     1      43.316 -11.173   6.561  1.00  0.00     0.032 A 
HETATM    5  C   UNL     1      43.848 -12.145   5.709  1.00  0.00     0.019 A 
HETATM    6  C   UNL     1      43.161 -12.521   4.551  1.00  0.00     0.030 A 
ENDROOT
BRANCH   1   7
HETATM    7  N   UNL     1      41.328 -12.339   3.020  1.00  0.00    -0.322 N 
HETATM    8  C   UNL     1      41.470 -11.774   1.767  1.00  0.00     0.274 C 
HETATM    9  O   UNL     1      42.140 -10.780   1.510  1.00  0.00    -0.266 OA
HETATM   10  H   UNL     1      40.750 -13.166   3.077  1.00  0.00     0.169 HD
BRANCH   8  11
HETATM   11  C   UNL     1      40.759 -12.466   0.717  1.00  0.00     0.120 A 
HETATM   12  N   UNL     1      41.138 -13.719   0.314  1.00  0.00    -0.273 N 
HETATM   13  N   UNL     1      40.378 -14.237  -0.663  1.00  0.00    -0.179 NA
HETATM   14  H   UNL     1      41.912 -14.266   0.679  1.00  0.00     0.189 HD
HETATM   15  C   UNL     1      39.472 -13.285  -0.906  1.00  0.00     0.056 A 
HETATM   16  C   UNL     1      39.667 -12.157  -0.073  1.00  0.00     0.065 A 
BRANCH  15  17
HETATM   17  C   UNL     1      38.424 -13.485  -1.950  1.00  0.00     0.056 C 
HETATM   18  C   UNL     1      38.727 -14.675  -2.849  1.00  0.00     0.011 C 
ENDBRANCH  15  17
ENDBRANCH   8  11
ENDBRANCH   1   7
BRANCH   4  19
HETATM   19  C   UNL     1      44.118 -10.765   7.746  1.00  0.00     0.251 C 
HETATM   20  N   UNL     1      43.757  -9.585   8.354  1.00  0.00    -0.353 N 
HETATM   21  H   UNL     1      42.970  -9.048   8.019  1.00  0.00     0.163 HD
HETATM   22  O   UNL     1      45.080 -11.439   8.099  1.00  0.00    -0.268 OA
BRANCH  20  23
HETATM   23  C   UNL     1      44.532  -9.035   9.445  1.00  0.00     0.161 C 
BRANCH  23  24
HETATM   24  C   UNL     1      43.786  -9.124  10.755  1.00  0.00    -0.040 A 
HETATM   25  C   UNL     1      43.538 -10.373  11.346  1.00  0.00     0.012 A 
HETATM   26  C   UNL     1      42.872 -10.456  12.571  1.00  0.00     0.043 A 
HETATM   27  C   UNL     1      42.458  -9.293  13.208  1.00  0.00     0.116 A 
HETATM   28  F   UNL     1      41.819  -9.375  14.382  1.00  0.00    -0.206 F 
HETATM   29  C   UNL     1      42.705  -8.045  12.650  1.00  0.00     0.043 A 
HETATM   30  C   UNL     1      43.376  -7.959  11.430  1.00  0.00     0.012 A 
ENDBRANCH  23  24
ENDBRANCH  20  23
ENDBRANCH   4  19
TORSDOF 6
ENDMDL
