MODEL 1
REMARK VINA RESULT:      -7.9      0.000      0.000
REMARK  6 active torsions:
REMARK  status: ('A' for Active; 'I' for Inactive)
REMARK    1  A    between atoms: C_8  and  N_9 
REMARK       I    between atoms: N_9  and  C_10 
REMARK    2  A    between atoms: C_10  and  C_11 
REMARK    3  A    between atoms: C_11  and  N_12 
REMARK    4  A    between atoms: N_12  and  C_13 
REMARK    5  A    between atoms: C_13  and  C_14 
REMARK    6  A    between atoms: C_15  and  C_16 
ROOT
HETATM    1  N   UNL     1      42.224 -16.812   6.188  1.00  0.00     0.100 N 
HETATM    2  H   UNL     1      42.000 -17.787   6.403  1.00  0.00     0.317 HD
ENDROOT
BRANCH   1   3
HETATM    3  C   UNL     1      41.051 -16.227   5.494  1.00  0.00     0.372 C 
BRANCH   3   4
HETATM    4  C   UNL     1      40.772 -14.805   6.002  1.00  0.00     0.250 C 
HETATM    5  N   UNL     1      41.679 -13.887   5.518  1.00  0.00    -0.322 N 
HETATM    6  H   UNL     1      42.362 -14.267   4.867  1.00  0.00     0.169 HD
HETATM    7  O   UNL     1      39.813 -14.584   6.734  1.00  0.00    -0.271 OA
BRANCH   5   8
HETATM    8  C   UNL     1      41.777 -12.542   5.826  1.00  0.00     0.085 A 
HETATM    9  C   UNL     1      42.926 -12.010   6.381  1.00  0.00     0.052 A 
HETATM   10  C   UNL     1      44.224 -12.616   6.761  1.00  0.00     0.072 C 
HETATM   11  N   UNL     1      42.675 -10.681   6.562  1.00  0.00    -0.280 N 
HETATM   12  H   UNL     1      43.291  -9.974   6.948  1.00  0.00     0.189 HD
HETATM   13  N   UNL     1      41.452 -10.305   6.178  1.00  0.00    -0.177 NA
HETATM   14  C   UNL     1      40.885 -11.432   5.720  1.00  0.00     0.079 A 
HETATM   15  C   UNL     1      39.492 -11.354   5.215  1.00  0.00     0.075 C 
ENDBRANCH   5   8
ENDBRANCH   3   4
ENDBRANCH   1   3
BRANCH   1  16
HETATM   16  C   UNL     1      43.457 -16.804   5.379  1.00  0.00     0.250 C 
HETATM   17  C   UNL     1      44.685 -16.463   6.241  1.00  0.00     0.048 C 
BRANCH  16  18
HETATM   18  C   UNL     1      43.582 -18.036   4.482  1.00  0.00    -0.011 A 
HETATM   19  C   UNL     1      43.338 -17.954   3.084  1.00  0.00     0.056 A 
HETATM   20  C   UNL     1      43.448 -19.123   2.299  1.00  0.00     0.017 A 
HETATM   21  C   UNL     1      43.789 -20.348   2.867  1.00  0.00     0.001 A 
HETATM   22  C   UNL     1      44.018 -20.432   4.233  1.00  0.00     0.001 A 
HETATM   23  C   UNL     1      43.913 -19.291   5.030  1.00  0.00     0.010 A 
BRANCH  19  24
HETATM   24  C   UNL     1      42.934 -16.664   2.393  1.00  0.00     0.418 C 
HETATM   25  F   UNL     1      43.442 -15.547   2.985  1.00  0.00    -0.166 F 
HETATM   26  F   UNL     1      43.367 -16.598   1.098  1.00  0.00    -0.166 F 
HETATM   27  F   UNL     1      41.585 -16.483   2.325  1.00  0.00    -0.166 F 
ENDBRANCH  19  24
ENDBRANCH  16  18
ENDBRANCH   1  16
TORSDOF 6
ENDMDL
MODEL 2
REMARK VINA RESULT:      -7.9      1.750      2.154
REMARK  6 active torsions:
REMARK  status: ('A' for Active; 'I' for Inactive)
REMARK    1  A    between atoms: C_8  and  N_9 
REMARK       I    between atoms: N_9  and  C_10 
REMARK    2  A    between atoms: C_10  and  C_11 
REMARK    3  A    between atoms: C_11  and  N_12 
REMARK    4  A    between atoms: N_12  and  C_13 
REMARK    5  A    between atoms: C_13  and  C_14 
REMARK    6  A    between atoms: C_15  and  C_16 
ROOT
HETATM    1  N   UNL     1      42.112 -16.547   5.876  1.00  0.00     0.100 N 
HETATM    2  H   UNL     1      41.517 -16.692   5.057  1.00  0.00     0.317 HD
ENDROOT
BRANCH   1   3
HETATM    3  C   UNL     1      41.890 -15.160   6.351  1.00  0.00     0.372 C 
BRANCH   3   4
HETATM    4  C   UNL     1      41.478 -14.246   5.187  1.00  0.00     0.250 C 
HETATM    5  N   UNL     1      42.447 -13.314   4.883  1.00  0.00    -0.322 N 
HETATM    6  H   UNL     1      43.300 -13.394   5.432  1.00  0.00     0.169 HD
HETATM    7  O   UNL     1      40.402 -14.407   4.622  1.00  0.00    -0.271 OA
BRANCH   5   8
HETATM    8  C   UNL     1      42.385 -12.292   3.954  1.00  0.00     0.085 A 
HETATM    9  C   UNL     1      42.466 -10.965   4.333  1.00  0.00     0.052 A 
HETATM   10  C   UNL     1      42.627 -10.312   5.654  1.00  0.00     0.072 C 
HETATM   11  N   UNL     1      42.359 -10.239   3.183  1.00  0.00    -0.280 N 
HETATM   12  H   UNL     1      42.377  -9.231   3.074  1.00  0.00     0.189 HD
HETATM   13  N   UNL     1      42.207 -10.984   2.086  1.00  0.00    -0.177 NA
HETATM   14  C   UNL     1      42.222 -12.249   2.536  1.00  0.00     0.079 A 
HETATM   15  C   UNL     1      42.065 -13.342   1.546  1.00  0.00     0.075 C 
ENDBRANCH   5   8
ENDBRANCH   3   4
ENDBRANCH   1   3
BRANCH   1  16
HETATM   16  C   UNL     1      43.504 -16.820   5.472  1.00  0.00     0.250 C 
HETATM   17  C   UNL     1      44.464 -16.699   6.668  1.00  0.00     0.048 C 
BRANCH  16  18
HETATM   18  C   UNL     1      43.635 -18.085   4.625  1.00  0.00    -0.011 A 
HETATM   19  C   UNL     1      43.416 -18.056   3.221  1.00  0.00     0.056 A 
HETATM   20  C   UNL     1      43.530 -19.255   2.484  1.00  0.00     0.017 A 
HETATM   21  C   UNL     1      43.852 -20.459   3.104  1.00  0.00     0.001 A 
HETATM   22  C   UNL     1      44.057 -20.492   4.476  1.00  0.00     0.001 A 
HETATM   23  C   UNL     1      43.948 -19.321   5.226  1.00  0.00     0.010 A 
BRANCH  19  24
HETATM   24  C   UNL     1      43.033 -16.791   2.475  1.00  0.00     0.418 C 
HETATM   25  F   UNL     1      43.239 -16.868   1.130  1.00  0.00    -0.166 F 
HETATM   26  F   UNL     1      41.709 -16.478   2.606  1.00  0.00    -0.166 F 
HETATM   27  F   UNL     1      43.703 -15.683   2.903  1.00  0.00    -0.166 F 
ENDBRANCH  19  24
ENDBRANCH  16  18
ENDBRANCH   1  16
TORSDOF 6
ENDMDL
MODEL 3
REMARK VINA RESULT:      -7.9      1.745      2.292
REMARK  6 active torsions:
REMARK  status: ('A' for Active; 'I' for Inactive)
REMARK    1  A    between atoms: C_8  and  N_9 
REMARK       I    between atoms: N_9  and  C_10 
REMARK    2  A    between atoms: C_10  and  C_11 
REMARK    3  A    between atoms: C_11  and  N_12 
REMARK    4  A    between atoms: N_12  and  C_13 
REMARK    5  A    between atoms: C_13  and  C_14 
REMARK    6  A    between atoms: C_15  and  C_16 
ROOT
HETATM    1  N   UNL     1      42.273 -16.837   6.223  1.00  0.00     0.100 N 
HETATM    2  H   UNL     1      42.128 -17.806   6.513  1.00  0.00     0.317 HD
ENDROOT
BRANCH   1   3
HETATM    3  C   UNL     1      41.033 -16.378   5.552  1.00  0.00     0.372 C 
BRANCH   3   4
HETATM    4  C   UNL     1      41.005 -14.845   5.452  1.00  0.00     0.250 C 
HETATM    5  N   UNL     1      40.200 -14.402   4.425  1.00  0.00    -0.322 N 
HETATM    6  H   UNL     1      39.712 -15.138   3.919  1.00  0.00     0.169 HD
HETATM    7  O   UNL     1      41.632 -14.158   6.251  1.00  0.00    -0.271 OA
BRANCH   5   8
HETATM    8  C   UNL     1      40.002 -13.101   3.998  1.00  0.00     0.085 A 
HETATM    9  C   UNL     1      40.295 -12.713   2.704  1.00  0.00     0.052 A 
HETATM   10  C   UNL     1      40.827 -13.453   1.536  1.00  0.00     0.072 C 
HETATM   11  N   UNL     1      39.995 -11.383   2.634  1.00  0.00    -0.280 N 
HETATM   12  H   UNL     1      40.083 -10.762   1.837  1.00  0.00     0.189 HD
HETATM   13  N   UNL     1      39.538 -10.872   3.780  1.00  0.00    -0.177 NA
HETATM   14  C   UNL     1      39.532 -11.910   4.630  1.00  0.00     0.079 A 
HETATM   15  C   UNL     1      39.075 -11.667   6.020  1.00  0.00     0.075 C 
ENDBRANCH   5   8
ENDBRANCH   3   4
ENDBRANCH   1   3
BRANCH   1  16
HETATM   16  C   UNL     1      43.465 -16.804   5.353  1.00  0.00     0.250 C 
HETATM   17  C   UNL     1      44.727 -16.442   6.154  1.00  0.00     0.048 C 
BRANCH  16  18
HETATM   18  C   UNL     1      43.567 -18.031   4.448  1.00  0.00    -0.011 A 
HETATM   19  C   UNL     1      43.254 -17.950   3.063  1.00  0.00     0.056 A 
HETATM   20  C   UNL     1      43.346 -19.115   2.270  1.00  0.00     0.017 A 
HETATM   21  C   UNL     1      43.735 -20.335   2.817  1.00  0.00     0.001 A 
HETATM   22  C   UNL     1      44.032 -20.418   4.170  1.00  0.00     0.001 A 
HETATM   23  C   UNL     1      43.947 -19.282   4.974  1.00  0.00     0.010 A 
BRANCH  19  24
HETATM   24  C   UNL     1      42.795 -16.666   2.397  1.00  0.00     0.418 C 
HETATM   25  F   UNL     1      43.200 -16.548   1.101  1.00  0.00    -0.166 F 
HETATM   26  F   UNL     1      41.433 -16.553   2.347  1.00  0.00    -0.166 F 
HETATM   27  F   UNL     1      43.220 -15.540   3.037  1.00  0.00    -0.166 F 
ENDBRANCH  19  24
ENDBRANCH  16  18
ENDBRANCH   1  16
TORSDOF 6
ENDMDL
MODEL 4
REMARK VINA RESULT:      -7.8      4.876      6.039
REMARK  6 active torsions:
REMARK  status: ('A' for Active; 'I' for Inactive)
REMARK    1  A    between atoms: C_8  and  N_9 
REMARK       I    between atoms: N_9  and  C_10 
REMARK    2  A    between atoms: C_10  and  C_11 
REMARK    3  A    between atoms: C_11  and  N_12 
REMARK    4  A    between atoms: N_12  and  C_13 
REMARK    5  A    between atoms: C_13  and  C_14 
REMARK    6  A    between atoms: C_15  and  C_16 
ROOT
HETATM    1  N   UNL     1      41.894 -15.356   1.855  1.00  0.00     0.100 N 
HETATM    2  H   UNL     1      42.258 -14.401   1.895  1.00  0.00     0.317 HD
ENDROOT
BRANCH   1   3
HETATM    3  C   UNL     1      40.539 -15.294   1.259  1.00  0.00     0.372 C 
BRANCH   3   4
HETATM    4  C   UNL     1      40.386 -14.041   0.384  1.00  0.00     0.250 C 
HETATM    5  N   UNL     1      39.210 -14.043  -0.336  1.00  0.00    -0.322 N 
HETATM    6  H   UNL     1      38.602 -14.838  -0.153  1.00  0.00     0.169 HD
HETATM    7  O   UNL     1      41.243 -13.164   0.399  1.00  0.00    -0.271 OA
BRANCH   5   8
HETATM    8  C   UNL     1      38.784 -13.121  -1.275  1.00  0.00     0.085 A 
HETATM    9  C   UNL     1      38.481 -13.497  -2.570  1.00  0.00     0.052 A 
HETATM   10  C   UNL     1      38.506 -14.807  -3.262  1.00  0.00     0.072 C 
HETATM   11  N   UNL     1      38.112 -12.353  -3.216  1.00  0.00    -0.280 N 
HETATM   12  H   UNL     1      37.822 -12.244  -4.182  1.00  0.00     0.189 HD
HETATM   13  N   UNL     1      38.158 -11.261  -2.449  1.00  0.00    -0.177 NA
HETATM   14  C   UNL     1      38.566 -11.711  -1.252  1.00  0.00     0.079 A 
HETATM   15  C   UNL     1      38.728 -10.723  -0.157  1.00  0.00     0.075 C 
ENDBRANCH   5   8
ENDBRANCH   3   4
ENDBRANCH   1   3
BRANCH   1  16
HETATM   16  C   UNL     1      41.914 -15.899   3.227  1.00  0.00     0.250 C 
HETATM   17  C   UNL     1      40.501 -15.931   3.832  1.00  0.00     0.048 C 
BRANCH  16  18
HETATM   18  C   UNL     1      42.726 -17.190   3.338  1.00  0.00    -0.011 A 
HETATM   19  C   UNL     1      43.533 -17.455   4.477  1.00  0.00     0.056 A 
HETATM   20  C   UNL     1      44.279 -18.652   4.526  1.00  0.00     0.017 A 
HETATM   21  C   UNL     1      44.241 -19.574   3.483  1.00  0.00     0.001 A 
HETATM   22  C   UNL     1      43.461 -19.313   2.365  1.00  0.00     0.001 A 
HETATM   23  C   UNL     1      42.716 -18.135   2.293  1.00  0.00     0.010 A 
BRANCH  19  24
HETATM   24  C   UNL     1      43.653 -16.489   5.642  1.00  0.00     0.418 C 
HETATM   25  F   UNL     1      42.602 -16.546   6.508  1.00  0.00    -0.166 F 
HETATM   26  F   UNL     1      44.754 -16.727   6.417  1.00  0.00    -0.166 F 
HETATM   27  F   UNL     1      43.765 -15.185   5.259  1.00  0.00    -0.166 F 
ENDBRANCH  19  24
ENDBRANCH  16  18
ENDBRANCH   1  16
TORSDOF 6
ENDMDL
MODEL 5
REMARK VINA RESULT:      -7.7      4.553      5.780
REMARK  6 active torsions:
REMARK  status: ('A' for Active; 'I' for Inactive)
REMARK    1  A    between atoms: C_8  and  N_9 
REMARK       I    between atoms: N_9  and  C_10 
REMARK    2  A    between atoms: C_10  and  C_11 
REMARK    3  A    between atoms: C_11  and  N_12 
REMARK    4  A    between atoms: N_12  and  C_13 
REMARK    5  A    between atoms: C_13  and  C_14 
REMARK    6  A    between atoms: C_15  and  C_16 
ROOT
HETATM    1  N   UNL     1      40.311 -15.510   3.300  1.00  0.00     0.100 N 
HETATM    2  H   UNL     1      40.432 -16.366   2.754  1.00  0.00     0.317 HD
ENDROOT
BRANCH   1   3
HETATM    3  C   UNL     1      39.608 -14.527   2.442  1.00  0.00     0.372 C 
BRANCH   3   4
HETATM    4  C   UNL     1      40.170 -14.552   1.012  1.00  0.00     0.250 C 
HETATM    5  N   UNL     1      39.591 -13.599   0.203  1.00  0.00    -0.322 N 
HETATM    6  H   UNL     1      38.920 -12.994   0.673  1.00  0.00     0.169 HD
HETATM    7  O   UNL     1      41.055 -15.344   0.707  1.00  0.00    -0.271 OA
BRANCH   5   8
HETATM    8  C   UNL     1      39.796 -13.389  -1.149  1.00  0.00     0.085 A 
HETATM    9  C   UNL     1      40.451 -12.264  -1.614  1.00  0.00     0.052 A 
HETATM   10  C   UNL     1      41.057 -11.103  -0.920  1.00  0.00     0.072 C 
HETATM   11  N   UNL     1      40.466 -12.374  -2.974  1.00  0.00    -0.280 N 
HETATM   12  H   UNL     1      40.863 -11.732  -3.650  1.00  0.00     0.189 HD
HETATM   13  N   UNL     1      39.865 -13.475  -3.433  1.00  0.00    -0.177 NA
HETATM   14  C   UNL     1      39.449 -14.114  -2.328  1.00  0.00     0.079 A 
HETATM   15  C   UNL     1      38.723 -15.396  -2.499  1.00  0.00     0.075 C 
ENDBRANCH   5   8
ENDBRANCH   3   4
ENDBRANCH   1   3
BRANCH   1  16
HETATM   16  C   UNL     1      41.648 -15.065   3.737  1.00  0.00     0.250 C 
HETATM   17  C   UNL     1      41.638 -13.579   4.134  1.00  0.00     0.048 C 
BRANCH  16  18
HETATM   18  C   UNL     1      42.292 -16.027   4.736  1.00  0.00    -0.011 A 
HETATM   19  C   UNL     1      43.048 -17.147   4.296  1.00  0.00     0.056 A 
HETATM   20  C   UNL     1      43.608 -18.017   5.256  1.00  0.00     0.017 A 
HETATM   21  C   UNL     1      43.433 -17.800   6.621  1.00  0.00     0.001 A 
HETATM   22  C   UNL     1      42.688 -16.712   7.053  1.00  0.00     0.001 A 
HETATM   23  C   UNL     1      42.123 -15.839   6.123  1.00  0.00     0.010 A 
BRANCH  19  24
HETATM   24  C   UNL     1      43.260 -17.470   2.828  1.00  0.00     0.418 C 
HETATM   25  F   UNL     1      44.179 -18.453   2.613  1.00  0.00    -0.166 F 
HETATM   26  F   UNL     1      42.123 -17.917   2.214  1.00  0.00    -0.166 F 
HETATM   27  F   UNL     1      43.663 -16.399   2.088  1.00  0.00    -0.166 F 
ENDBRANCH  19  24
ENDBRANCH  16  18
ENDBRANCH   1  16
TORSDOF 6
ENDMDL
MODEL 6
REMARK VINA RESULT:      -7.6      4.802      6.071
REMARK  6 active torsions:
REMARK  status: ('A' for Active; 'I' for Inactive)
REMARK    1  A    between atoms: C_8  and  N_9 
REMARK       I    between atoms: N_9  and  C_10 
REMARK    2  A    between atoms: C_10  and  C_11 
REMARK    3  A    between atoms: C_11  and  N_12 
REMARK    4  A    between atoms: N_12  and  C_13 
REMARK    5  A    between atoms: C_13  and  C_14 
REMARK    6  A    between atoms: C_15  and  C_16 
ROOT
HETATM    1  N   UNL     1      41.318 -15.326   2.495  1.00  0.00     0.100 N 
HETATM    2  H   UNL     1      40.779 -15.535   3.339  1.00  0.00     0.317 HD
ENDROOT
BRANCH   1   3
HETATM    3  C   UNL     1      40.417 -15.512   1.332  1.00  0.00     0.372 C 
BRANCH   3   4
HETATM    4  C   UNL     1      40.360 -14.236   0.479  1.00  0.00     0.250 C 
HETATM    5  N   UNL     1      39.229 -14.180  -0.306  1.00  0.00    -0.322 N 
HETATM    6  H   UNL     1      38.582 -14.955  -0.175  1.00  0.00     0.169 HD
HETATM    7  O   UNL     1      41.247 -13.393   0.562  1.00  0.00    -0.271 OA
BRANCH   5   8
HETATM    8  C   UNL     1      38.890 -13.223  -1.246  1.00  0.00     0.085 A 
HETATM    9  C   UNL     1      38.595 -13.567  -2.552  1.00  0.00     0.052 A 
HETATM   10  C   UNL     1      38.547 -14.871  -3.255  1.00  0.00     0.072 C 
HETATM   11  N   UNL     1      38.321 -12.396  -3.196  1.00  0.00    -0.280 N 
HETATM   12  H   UNL     1      38.064 -12.259  -4.167  1.00  0.00     0.189 HD
HETATM   13  N   UNL     1      38.423 -11.315  -2.418  1.00  0.00    -0.177 NA
HETATM   14  C   UNL     1      38.769 -11.802  -1.215  1.00  0.00     0.079 A 
HETATM   15  C   UNL     1      38.971 -10.836  -0.107  1.00  0.00     0.075 C 
ENDBRANCH   5   8
ENDBRANCH   3   4
ENDBRANCH   1   3
BRANCH   1  16
HETATM   16  C   UNL     1      42.494 -16.216   2.483  1.00  0.00     0.250 C 
HETATM   17  C   UNL     1      43.585 -15.681   1.540  1.00  0.00     0.048 C 
BRANCH  16  18
HETATM   18  C   UNL     1      42.949 -16.611   3.888  1.00  0.00    -0.011 A 
HETATM   19  C   UNL     1      43.482 -17.902   4.151  1.00  0.00     0.056 A 
HETATM   20  C   UNL     1      43.872 -18.228   5.469  1.00  0.00     0.017 A 
HETATM   21  C   UNL     1      43.744 -17.312   6.510  1.00  0.00     0.001 A 
HETATM   22  C   UNL     1      43.215 -16.054   6.256  1.00  0.00     0.001 A 
HETATM   23  C   UNL     1      42.821 -15.710   4.963  1.00  0.00     0.010 A 
BRANCH  19  24
HETATM   24  C   UNL     1      43.627 -18.967   3.079  1.00  0.00     0.418 C 
HETATM   25  F   UNL     1      42.577 -19.013   2.211  1.00  0.00    -0.166 F 
HETATM   26  F   UNL     1      44.724 -18.774   2.286  1.00  0.00    -0.166 F 
HETATM   27  F   UNL     1      43.769 -20.227   3.578  1.00  0.00    -0.166 F 
ENDBRANCH  19  24
ENDBRANCH  16  18
ENDBRANCH   1  16
TORSDOF 6
ENDMDL
MODEL 7
REMARK VINA RESULT:      -7.6      3.728      5.011
REMARK  6 active torsions:
REMARK  status: ('A' for Active; 'I' for Inactive)
REMARK    1  A    between atoms: C_8  and  N_9 
REMARK       I    between atoms: N_9  and  C_10 
REMARK    2  A    between atoms: C_10  and  C_11 
REMARK    3  A    between atoms: C_11  and  N_12 
REMARK    4  A    between atoms: N_12  and  C_13 
REMARK    5  A    between atoms: C_13  and  C_14 
REMARK    6  A    between atoms: C_15  and  C_16 
ROOT
HETATM    1  N   UNL     1      40.252 -14.144   4.742  1.00  0.00     0.100 N 
HETATM    2  H   UNL     1      40.077 -14.544   3.818  1.00  0.00     0.317 HD
ENDROOT
BRANCH   1   3
HETATM    3  C   UNL     1      40.952 -12.851   4.546  1.00  0.00     0.372 C 
BRANCH   3   4
HETATM    4  C   UNL     1      41.530 -12.756   3.126  1.00  0.00     0.250 C 
HETATM    5  N   UNL     1      40.551 -12.578   2.172  1.00  0.00    -0.322 N 
HETATM    6  H   UNL     1      39.608 -12.490   2.543  1.00  0.00     0.169 HD
HETATM    7  O   UNL     1      42.741 -12.812   2.943  1.00  0.00    -0.271 OA
BRANCH   5   8
HETATM    8  C   UNL     1      40.699 -12.530   0.797  1.00  0.00     0.085 A 
HETATM    9  C   UNL     1      40.459 -13.637   0.006  1.00  0.00     0.052 A 
HETATM   10  C   UNL     1      40.026 -15.018   0.325  1.00  0.00     0.072 C 
HETATM   11  N   UNL     1      40.710 -13.243  -1.277  1.00  0.00    -0.280 N 
HETATM   12  H   UNL     1      40.639 -13.792  -2.126  1.00  0.00     0.189 HD
HETATM   13  N   UNL     1      41.103 -11.971  -1.384  1.00  0.00    -0.177 NA
HETATM   14  C   UNL     1      41.100 -11.514  -0.122  1.00  0.00     0.079 A 
HETATM   15  C   UNL     1      41.505 -10.105   0.107  1.00  0.00     0.075 C 
ENDBRANCH   5   8
ENDBRANCH   3   4
ENDBRANCH   1   3
BRANCH   1  16
HETATM   16  C   UNL     1      41.033 -15.128   5.515  1.00  0.00     0.250 C 
HETATM   17  C   UNL     1      40.157 -15.828   6.569  1.00  0.00     0.048 C 
BRANCH  16  18
HETATM   18  C   UNL     1      41.878 -16.040   4.626  1.00  0.00    -0.011 A 
HETATM   19  C   UNL     1      43.175 -16.461   5.026  1.00  0.00     0.056 A 
HETATM   20  C   UNL     1      43.925 -17.289   4.162  1.00  0.00     0.017 A 
HETATM   21  C   UNL     1      43.420 -17.698   2.931  1.00  0.00     0.001 A 
HETATM   22  C   UNL     1      42.157 -17.280   2.533  1.00  0.00     0.001 A 
HETATM   23  C   UNL     1      41.398 -16.461   3.369  1.00  0.00     0.010 A 
BRANCH  19  24
HETATM   24  C   UNL     1      43.809 -16.036   6.338  1.00  0.00     0.418 C 
HETATM   25  F   UNL     1      43.187 -16.553   7.436  1.00  0.00    -0.166 F 
HETATM   26  F   UNL     1      45.110 -16.440   6.454  1.00  0.00    -0.166 F 
HETATM   27  F   UNL     1      43.840 -14.685   6.515  1.00  0.00    -0.166 F 
ENDBRANCH  19  24
ENDBRANCH  16  18
ENDBRANCH   1  16
TORSDOF 6
ENDMDL
MODEL 8
REMARK VINA RESULT:      -7.6      2.350      3.558
REMARK  6 active torsions:
REMARK  status: ('A' for Active; 'I' for Inactive)
REMARK    1  A    between atoms: C_8  and  N_9 
REMARK       I    between atoms: N_9  and  C_10 
REMARK    2  A    between atoms: C_10  and  C_11 
REMARK    3  A    between atoms: C_11  and  N_12 
REMARK    4  A    between atoms: N_12  and  C_13 
REMARK    5  A    between atoms: C_13  and  C_14 
REMARK    6  A    between atoms: C_15  and  C_16 
ROOT
HETATM    1  N   UNL     1      43.446 -15.239   3.178  1.00  0.00     0.100 N 
HETATM    2  H   UNL     1      43.702 -14.895   4.106  1.00  0.00     0.317 HD
ENDROOT
BRANCH   1   3
HETATM    3  C   UNL     1      43.029 -14.070   2.366  1.00  0.00     0.372 C 
BRANCH   3   4
HETATM    4  C   UNL     1      43.075 -12.783   3.203  1.00  0.00     0.250 C 
HETATM    5  N   UNL     1      43.110 -13.038   4.557  1.00  0.00    -0.322 N 
HETATM    6  H   UNL     1      43.147 -14.025   4.802  1.00  0.00     0.169 HD
HETATM    7  O   UNL     1      43.104 -11.686   2.654  1.00  0.00    -0.271 OA
BRANCH   5   8
HETATM    8  C   UNL     1      43.077 -12.126   5.597  1.00  0.00     0.085 A 
HETATM    9  C   UNL     1      41.883 -11.703   6.149  1.00  0.00     0.052 A 
HETATM   10  C   UNL     1      40.471 -12.042   5.855  1.00  0.00     0.072 C 
HETATM   11  N   UNL     1      42.217 -10.811   7.127  1.00  0.00    -0.280 N 
HETATM   12  H   UNL     1      41.599 -10.297   7.744  1.00  0.00     0.189 HD
HETATM   13  N   UNL     1      43.532 -10.613   7.250  1.00  0.00    -0.177 NA
HETATM   14  C   UNL     1      44.079 -11.413   6.321  1.00  0.00     0.079 A 
HETATM   15  C   UNL     1      45.557 -11.420   6.194  1.00  0.00     0.075 C 
ENDBRANCH   5   8
ENDBRANCH   3   4
ENDBRANCH   1   3
BRANCH   1  16
HETATM   16  C   UNL     1      42.385 -16.249   3.352  1.00  0.00     0.250 C 
HETATM   17  C   UNL     1      41.230 -16.017   2.363  1.00  0.00     0.048 C 
BRANCH  16  18
HETATM   18  C   UNL     1      42.933 -17.673   3.428  1.00  0.00    -0.011 A 
HETATM   19  C   UNL     1      43.432 -18.205   4.649  1.00  0.00     0.056 A 
HETATM   20  C   UNL     1      43.945 -19.520   4.666  1.00  0.00     0.017 A 
HETATM   21  C   UNL     1      43.973 -20.302   3.515  1.00  0.00     0.001 A 
HETATM   22  C   UNL     1      43.496 -19.782   2.320  1.00  0.00     0.001 A 
HETATM   23  C   UNL     1      42.985 -18.485   2.277  1.00  0.00     0.010 A 
BRANCH  19  24
HETATM   24  C   UNL     1      43.463 -17.407   5.940  1.00  0.00     0.418 C 
HETATM   25  F   UNL     1      42.297 -16.754   6.207  1.00  0.00    -0.166 F 
HETATM   26  F   UNL     1      43.682 -18.188   7.041  1.00  0.00    -0.166 F 
HETATM   27  F   UNL     1      44.448 -16.465   5.974  1.00  0.00    -0.166 F 
ENDBRANCH  19  24
ENDBRANCH  16  18
ENDBRANCH   1  16
TORSDOF 6
ENDMDL
MODEL 9
REMARK VINA RESULT:      -7.6      2.998      4.394
REMARK  6 active torsions:
REMARK  status: ('A' for Active; 'I' for Inactive)
REMARK    1  A    between atoms: C_8  and  N_9 
REMARK       I    between atoms: N_9  and  C_10 
REMARK    2  A    between atoms: C_10  and  C_11 
REMARK    3  A    between atoms: C_11  and  N_12 
REMARK    4  A    between atoms: N_12  and  C_13 
REMARK    5  A    between atoms: C_13  and  C_14 
REMARK    6  A    between atoms: C_15  and  C_16 
ROOT
HETATM    1  N   UNL     1      43.137 -13.667   5.175  1.00  0.00     0.100 N 
HETATM    2  H   UNL     1      44.023 -14.009   4.797  1.00  0.00     0.317 HD
ENDROOT
BRANCH   1   3
HETATM    3  C   UNL     1      43.392 -13.195   6.557  1.00  0.00     0.372 C 
BRANCH   3   4
HETATM    4  C   UNL     1      43.876 -11.736   6.552  1.00  0.00     0.250 C 
HETATM    5  N   UNL     1      43.667 -11.110   7.762  1.00  0.00    -0.322 N 
HETATM    6  H   UNL     1      43.274 -11.707   8.487  1.00  0.00     0.169 HD
HETATM    7  O   UNL     1      44.404 -11.260   5.553  1.00  0.00    -0.271 OA
BRANCH   5   8
HETATM    8  C   UNL     1      43.906  -9.788   8.090  1.00  0.00     0.085 A 
HETATM    9  C   UNL     1      42.872  -8.916   8.371  1.00  0.00     0.052 A 
HETATM   10  C   UNL     1      41.401  -9.091   8.412  1.00  0.00     0.072 C 
HETATM   11  N   UNL     1      43.457  -7.712   8.637  1.00  0.00    -0.280 N 
HETATM   12  H   UNL     1      43.008  -6.837   8.884  1.00  0.00     0.189 HD
HETATM   13  N   UNL     1      44.789  -7.727   8.544  1.00  0.00    -0.177 NA
HETATM   14  C   UNL     1      45.086  -8.994   8.211  1.00  0.00     0.079 A 
HETATM   15  C   UNL     1      46.515  -9.346   8.021  1.00  0.00     0.075 C 
ENDBRANCH   5   8
ENDBRANCH   3   4
ENDBRANCH   1   3
BRANCH   1  16
HETATM   16  C   UNL     1      42.162 -14.771   5.097  1.00  0.00     0.250 C 
HETATM   17  C   UNL     1      40.788 -14.266   4.622  1.00  0.00     0.048 C 
BRANCH  16  18
HETATM   18  C   UNL     1      42.717 -15.999   4.375  1.00  0.00    -0.011 A 
HETATM   19  C   UNL     1      43.207 -17.119   5.100  1.00  0.00     0.056 A 
HETATM   20  C   UNL     1      43.727 -18.222   4.389  1.00  0.00     0.017 A 
HETATM   21  C   UNL     1      43.769 -18.233   2.998  1.00  0.00     0.001 A 
HETATM   22  C   UNL     1      43.300 -17.137   2.287  1.00  0.00     0.001 A 
HETATM   23  C   UNL     1      42.783 -16.034   2.968  1.00  0.00     0.010 A 
BRANCH  19  24
HETATM   24  C   UNL     1      43.223 -17.173   6.617  1.00  0.00     0.418 C 
HETATM   25  F   UNL     1      43.434 -18.423   7.116  1.00  0.00    -0.166 F 
HETATM   26  F   UNL     1      44.216 -16.409   7.164  1.00  0.00    -0.166 F 
HETATM   27  F   UNL     1      42.072 -16.720   7.190  1.00  0.00    -0.166 F 
ENDBRANCH  19  24
ENDBRANCH  16  18
ENDBRANCH   1  16
TORSDOF 6
ENDMDL
MODEL 10
REMARK VINA RESULT:      -7.4      2.364      3.101
REMARK  6 active torsions:
REMARK  status: ('A' for Active; 'I' for Inactive)
REMARK    1  A    between atoms: C_8  and  N_9 
REMARK       I    between atoms: N_9  and  C_10 
REMARK    2  A    between atoms: C_10  and  C_11 
REMARK    3  A    between atoms: C_11  and  N_12 
REMARK    4  A    between atoms: N_12  and  C_13 
REMARK    5  A    between atoms: C_13  and  C_14 
REMARK    6  A    between atoms: C_15  and  C_16 
ROOT
HETATM    1  N   UNL     1      43.198 -14.910   2.776  1.00  0.00     0.100 N 
HETATM    2  H   UNL     1      43.901 -14.659   3.475  1.00  0.00     0.317 HD
ENDROOT
BRANCH   1   3
HETATM    3  C   UNL     1      42.523 -13.661   2.350  1.00  0.00     0.372 C 
BRANCH   3   4
HETATM    4  C   UNL     1      42.840 -12.513   3.321  1.00  0.00     0.250 C 
HETATM    5  N   UNL     1      42.130 -12.611   4.498  1.00  0.00    -0.322 N 
HETATM    6  H   UNL     1      41.544 -13.440   4.573  1.00  0.00     0.169 HD
HETATM    7  O   UNL     1      43.665 -11.657   3.023  1.00  0.00    -0.271 OA
BRANCH   5   8
HETATM    8  C   UNL     1      42.107 -11.720   5.556  1.00  0.00     0.085 A 
HETATM    9  C   UNL     1      43.062 -11.759   6.554  1.00  0.00     0.052 A 
HETATM   10  C   UNL     1      44.241 -12.629   6.774  1.00  0.00     0.072 C 
HETATM   11  N   UNL     1      42.733 -10.763   7.427  1.00  0.00    -0.280 N 
HETATM   12  H   UNL     1      43.210 -10.495   8.281  1.00  0.00     0.189 HD
HETATM   13  N   UNL     1      41.636 -10.085   7.084  1.00  0.00    -0.177 NA
HETATM   14  C   UNL     1      41.236 -10.655   5.936  1.00  0.00     0.079 A 
HETATM   15  C   UNL     1      40.013 -10.124   5.285  1.00  0.00     0.075 C 
ENDBRANCH   5   8
ENDBRANCH   3   4
ENDBRANCH   1   3
BRANCH   1  16
HETATM   16  C   UNL     1      42.288 -15.895   3.391  1.00  0.00     0.250 C 
HETATM   17  C   UNL     1      40.876 -15.799   2.788  1.00  0.00     0.048 C 
BRANCH  16  18
HETATM   18  C   UNL     1      42.897 -17.295   3.465  1.00  0.00    -0.011 A 
HETATM   19  C   UNL     1      43.440 -17.797   4.679  1.00  0.00     0.056 A 
HETATM   20  C   UNL     1      44.008 -19.090   4.693  1.00  0.00     0.017 A 
HETATM   21  C   UNL     1      44.048 -19.877   3.546  1.00  0.00     0.001 A 
HETATM   22  C   UNL     1      43.527 -19.385   2.357  1.00  0.00     0.001 A 
HETATM   23  C   UNL     1      42.962 -18.111   2.317  1.00  0.00     0.010 A 
BRANCH  19  24
HETATM   24  C   UNL     1      43.462 -16.991   5.965  1.00  0.00     0.418 C 
HETATM   25  F   UNL     1      43.946 -17.684   7.034  1.00  0.00    -0.166 F 
HETATM   26  F   UNL     1      44.257 -15.882   5.881  1.00  0.00    -0.166 F 
HETATM   27  F   UNL     1      42.237 -16.522   6.334  1.00  0.00    -0.166 F 
ENDBRANCH  19  24
ENDBRANCH  16  18
ENDBRANCH   1  16
TORSDOF 6
ENDMDL
