MODEL 1
REMARK VINA RESULT:      -9.1      0.000      0.000
REMARK  4 active torsions:
REMARK  status: ('A' for Active; 'I' for Inactive)
REMARK    1  A    between atoms: C_6  and  N_7 
REMARK       I    between atoms: N_7  and  C_8 
REMARK    2  A    between atoms: C_8  and  C_9 
REMARK    3  A    between atoms: C_10  and  C_11 
REMARK    4  A    between atoms: C_14  and  O_15 
ROOT
HETATM    1  C   UNL     1      42.825 -14.016   3.903  1.00  0.00     0.062 A 
HETATM    2  C   UNL     1      42.392 -15.263   4.661  1.00  0.00     0.202 A 
HETATM    3  N   UNL     1      42.722 -15.160   6.090  1.00  0.00    -0.084 N 
HETATM    4  C   UNL     1      43.356 -14.086   6.655  1.00  0.00     0.725 A 
HETATM    5  N   UNL     1      43.726 -13.052   5.876  1.00  0.00    -0.192 N 
HETATM    6  N   UNL     1      42.293 -16.023   7.037  1.00  0.00    -0.149 NA
HETATM    7  C   UNL     1      42.813 -15.461   8.134  1.00  0.00     0.275 A 
HETATM    8  N   UNL     1      43.458 -14.267   7.946  1.00  0.00    -0.054 NA
HETATM    9  C   UNL     1      43.464 -12.988   4.514  1.00  0.00     0.037 A 
HETATM   10  C   UNL     1      43.916 -11.728   3.819  1.00  0.00     0.070 C 
HETATM   11  H   UNL     1      44.202 -12.263   6.305  1.00  0.00     0.184 HD
ENDROOT
BRANCH   1  12
HETATM   12  C   UNL     1      42.607 -13.993   2.434  1.00  0.00     0.256 C 
HETATM   13  N   UNL     1      41.311 -13.680   2.087  1.00  0.00    -0.323 N 
HETATM   14  H   UNL     1      40.666 -13.485   2.838  1.00  0.00     0.169 HD
HETATM   15  O   UNL     1      43.554 -14.217   1.691  1.00  0.00    -0.267 OA
BRANCH  13  16
HETATM   16  C   UNL     1      40.780 -13.549   0.778  1.00  0.00     0.041 A 
HETATM   17  C   UNL     1      40.043 -14.620   0.229  1.00  0.00    -0.035 A 
HETATM   18  C   UNL     1      39.484 -14.491  -1.057  1.00  0.00     0.015 A 
HETATM   19  C   UNL     1      39.827 -15.915   0.968  1.00  0.00     0.050 C 
HETATM   20  C   UNL     1      39.657 -13.327  -1.812  1.00  0.00    -0.061 A 
HETATM   21  C   UNL     1      39.023 -13.182  -3.163  1.00  0.00     0.048 C 
HETATM   22  C   UNL     1      40.388 -12.275  -1.262  1.00  0.00     0.009 A 
HETATM   23  C   UNL     1      40.946 -12.388   0.015  1.00  0.00     0.030 A 
ENDBRANCH  13  16
ENDBRANCH   1  12
BRANCH   2  24
HETATM   24  C   UNL     1      42.916 -16.580   4.097  1.00  0.00    -0.028 A 
HETATM   25  C   UNL     1      42.355 -17.189   2.964  1.00  0.00     0.012 A 
HETATM   26  C   UNL     1      42.873 -18.394   2.477  1.00  0.00     0.037 A 
HETATM   27  C   UNL     1      43.969 -19.003   3.091  1.00  0.00     0.068 A 
HETATM   28  C   UNL     1      44.546 -18.398   4.204  1.00  0.00     0.037 A 
HETATM   29  C   UNL     1      44.024 -17.198   4.702  1.00  0.00     0.012 A 
BRANCH  27  30
HETATM   30  O   UNL     1      44.377 -20.171   2.508  1.00  0.00    -0.356 OA
HETATM   31  C   UNL     1      43.579 -20.668   1.440  1.00  0.00     0.210 C 
ENDBRANCH  27  30
ENDBRANCH   2  24
TORSDOF 4
ENDMDL
MODEL 2
REMARK VINA RESULT:      -9.0      1.722      2.438
REMARK  4 active torsions:
REMARK  status: ('A' for Active; 'I' for Inactive)
REMARK    1  A    between atoms: C_6  and  N_7 
REMARK       I    between atoms: N_7  and  C_8 
REMARK    2  A    between atoms: C_8  and  C_9 
REMARK    3  A    between atoms: C_10  and  C_11 
REMARK    4  A    between atoms: C_14  and  O_15 
ROOT
HETATM    1  C   UNL     1      41.431 -12.337   3.144  1.00  0.00     0.062 A 
HETATM    2  C   UNL     1      41.806 -13.394   4.173  1.00  0.00     0.202 A 
HETATM    3  N   UNL     1      42.849 -12.903   5.086  1.00  0.00    -0.084 N 
HETATM    4  C   UNL     1      43.419 -11.662   5.003  1.00  0.00     0.725 A 
HETATM    5  N   UNL     1      43.032 -10.821   4.025  1.00  0.00    -0.192 N 
HETATM    6  N   UNL     1      43.244 -13.544   6.209  1.00  0.00    -0.149 NA
HETATM    7  C   UNL     1      44.143 -12.675   6.684  1.00  0.00     0.275 A 
HETATM    8  N   UNL     1      44.269 -11.503   5.984  1.00  0.00    -0.054 NA
HETATM    9  C   UNL     1      42.042 -11.127   3.100  1.00  0.00     0.037 A 
HETATM   10  C   UNL     1      41.715 -10.039   2.107  1.00  0.00     0.070 C 
HETATM   11  H   UNL     1      43.466  -9.904   3.968  1.00  0.00     0.184 HD
ENDROOT
BRANCH   1  12
HETATM   12  C   UNL     1      40.425 -12.705   2.115  1.00  0.00     0.256 C 
HETATM   13  N   UNL     1      40.990 -13.004   0.894  1.00  0.00    -0.323 N 
HETATM   14  H   UNL     1      41.996 -12.963   0.828  1.00  0.00     0.169 HD
HETATM   15  O   UNL     1      39.242 -12.736   2.428  1.00  0.00    -0.267 OA
BRANCH  13  16
HETATM   16  C   UNL     1      40.317 -13.416  -0.285  1.00  0.00     0.041 A 
HETATM   17  C   UNL     1      39.802 -14.728  -0.354  1.00  0.00    -0.035 A 
HETATM   18  C   UNL     1      39.104 -15.140  -1.507  1.00  0.00     0.015 A 
HETATM   19  C   UNL     1      39.970 -15.723   0.764  1.00  0.00     0.050 C 
HETATM   20  C   UNL     1      38.925 -14.279  -2.594  1.00  0.00    -0.061 A 
HETATM   21  C   UNL     1      38.145 -14.713  -3.800  1.00  0.00     0.048 C 
HETATM   22  C   UNL     1      39.438 -12.986  -2.516  1.00  0.00     0.009 A 
HETATM   23  C   UNL     1      40.131 -12.563  -1.378  1.00  0.00     0.030 A 
ENDBRANCH  13  16
ENDBRANCH   1  12
BRANCH   2  24
HETATM   24  C   UNL     1      42.211 -14.747   3.596  1.00  0.00    -0.028 A 
HETATM   25  C   UNL     1      41.647 -15.953   4.039  1.00  0.00     0.012 A 
HETATM   26  C   UNL     1      42.044 -17.170   3.475  1.00  0.00     0.037 A 
HETATM   27  C   UNL     1      42.988 -17.211   2.447  1.00  0.00     0.068 A 
HETATM   28  C   UNL     1      43.540 -16.019   1.986  1.00  0.00     0.037 A 
HETATM   29  C   UNL     1      43.155 -14.799   2.555  1.00  0.00     0.012 A 
BRANCH  27  30
HETATM   30  O   UNL     1      43.278 -18.464   1.983  1.00  0.00    -0.356 OA
HETATM   31  C   UNL     1      43.930 -19.348   2.887  1.00  0.00     0.210 C 
ENDBRANCH  27  30
ENDBRANCH   2  24
TORSDOF 4
ENDMDL
MODEL 3
REMARK VINA RESULT:      -8.9      2.607      6.562
REMARK  4 active torsions:
REMARK  status: ('A' for Active; 'I' for Inactive)
REMARK    1  A    between atoms: C_6  and  N_7 
REMARK       I    between atoms: N_7  and  C_8 
REMARK    2  A    between atoms: C_8  and  C_9 
REMARK    3  A    between atoms: C_10  and  C_11 
REMARK    4  A    between atoms: C_14  and  O_15 
ROOT
HETATM    1  C   UNL     1      41.319 -13.553   2.965  1.00  0.00     0.062 A 
HETATM    2  C   UNL     1      41.140 -12.981   4.365  1.00  0.00     0.202 A 
HETATM    3  N   UNL     1      40.188 -11.862   4.366  1.00  0.00    -0.084 N 
HETATM    4  C   UNL     1      39.562 -11.386   3.245  1.00  0.00     0.725 A 
HETATM    5  N   UNL     1      39.826 -11.949   2.052  1.00  0.00    -0.192 N 
HETATM    6  N   UNL     1      39.690 -11.284   5.482  1.00  0.00    -0.149 NA
HETATM    7  C   UNL     1      38.856 -10.387   4.943  1.00  0.00     0.275 A 
HETATM    8  N   UNL     1      38.738 -10.426   3.578  1.00  0.00    -0.054 NA
HETATM    9  C   UNL     1      40.683 -13.030   1.888  1.00  0.00     0.037 A 
HETATM   10  C   UNL     1      40.818 -13.551   0.479  1.00  0.00     0.070 C 
HETATM   11  H   UNL     1      39.362 -11.583   1.224  1.00  0.00     0.184 HD
ENDROOT
BRANCH   1  12
HETATM   12  C   UNL     1      42.294 -14.659   2.793  1.00  0.00     0.256 C 
HETATM   13  N   UNL     1      41.831 -15.865   3.272  1.00  0.00    -0.323 N 
HETATM   14  H   UNL     1      40.900 -15.880   3.662  1.00  0.00     0.169 HD
HETATM   15  O   UNL     1      43.364 -14.426   2.244  1.00  0.00    -0.267 OA
BRANCH  13  16
HETATM   16  C   UNL     1      42.498 -17.116   3.238  1.00  0.00     0.041 A 
HETATM   17  C   UNL     1      43.281 -17.503   4.347  1.00  0.00    -0.035 A 
HETATM   18  C   UNL     1      43.924 -18.757   4.339  1.00  0.00     0.015 A 
HETATM   19  C   UNL     1      43.464 -16.622   5.554  1.00  0.00     0.050 C 
HETATM   20  C   UNL     1      43.816 -19.622   3.246  1.00  0.00    -0.061 A 
HETATM   21  C   UNL     1      44.470 -20.972   3.264  1.00  0.00     0.048 C 
HETATM   22  C   UNL     1      43.042 -19.230   2.155  1.00  0.00     0.009 A 
HETATM   23  C   UNL     1      42.397 -17.990   2.150  1.00  0.00     0.030 A 
ENDBRANCH  13  16
ENDBRANCH   1  12
BRANCH   2  24
HETATM   24  C   UNL     1      42.430 -12.572   5.068  1.00  0.00    -0.028 A 
HETATM   25  C   UNL     1      43.321 -11.636   4.521  1.00  0.00     0.012 A 
HETATM   26  C   UNL     1      44.489 -11.285   5.205  1.00  0.00     0.037 A 
HETATM   27  C   UNL     1      44.783 -11.837   6.453  1.00  0.00     0.068 A 
HETATM   28  C   UNL     1      43.897 -12.753   7.015  1.00  0.00     0.037 A 
HETATM   29  C   UNL     1      42.732 -13.116   6.329  1.00  0.00     0.012 A 
BRANCH  27  30
HETATM   30  O   UNL     1      45.952 -11.401   7.013  1.00  0.00    -0.356 OA
HETATM   31  C   UNL     1      45.842 -10.459   8.074  1.00  0.00     0.210 C 
ENDBRANCH  27  30
ENDBRANCH   2  24
TORSDOF 4
ENDMDL
MODEL 4
REMARK VINA RESULT:      -8.7      2.725      7.032
REMARK  4 active torsions:
REMARK  status: ('A' for Active; 'I' for Inactive)
REMARK    1  A    between atoms: C_6  and  N_7 
REMARK       I    between atoms: N_7  and  C_8 
REMARK    2  A    between atoms: C_8  and  C_9 
REMARK    3  A    between atoms: C_10  and  C_11 
REMARK    4  A    between atoms: C_14  and  O_15 
ROOT
HETATM    1  C   UNL     1      40.390 -13.629   2.147  1.00  0.00     0.062 A 
HETATM    2  C   UNL     1      40.433 -12.329   2.938  1.00  0.00     0.202 A 
HETATM    3  N   UNL     1      40.084 -11.179   2.092  1.00  0.00    -0.084 N 
HETATM    4  C   UNL     1      39.781 -11.270   0.760  1.00  0.00     0.725 A 
HETATM    5  N   UNL     1      39.811 -12.472   0.157  1.00  0.00    -0.192 N 
HETATM    6  N   UNL     1      39.855  -9.931   2.558  1.00  0.00    -0.149 NA
HETATM    7  C   UNL     1      39.534  -9.301   1.422  1.00  0.00     0.275 A 
HETATM    8  N   UNL     1      39.462 -10.087   0.302  1.00  0.00    -0.054 NA
HETATM    9  C   UNL     1      40.097 -13.657   0.824  1.00  0.00     0.037 A 
HETATM   10  C   UNL     1      40.038 -14.910  -0.014  1.00  0.00     0.070 C 
HETATM   11  H   UNL     1      39.591 -12.528  -0.834  1.00  0.00     0.184 HD
ENDROOT
BRANCH   1  12
HETATM   12  C   UNL     1      40.772 -14.878   2.854  1.00  0.00     0.256 C 
HETATM   13  N   UNL     1      42.029 -15.327   2.512  1.00  0.00    -0.323 N 
HETATM   14  H   UNL     1      42.554 -14.773   1.852  1.00  0.00     0.169 HD
HETATM   15  O   UNL     1      39.990 -15.365   3.661  1.00  0.00    -0.267 OA
BRANCH  13  16
HETATM   16  C   UNL     1      42.701 -16.467   3.021  1.00  0.00     0.041 A 
HETATM   17  C   UNL     1      43.260 -16.409   4.316  1.00  0.00    -0.035 A 
HETATM   18  C   UNL     1      43.903 -17.545   4.847  1.00  0.00     0.015 A 
HETATM   19  C   UNL     1      43.200 -15.168   5.167  1.00  0.00     0.050 C 
HETATM   20  C   UNL     1      44.016 -18.728   4.109  1.00  0.00    -0.061 A 
HETATM   21  C   UNL     1      44.666 -19.944   4.697  1.00  0.00     0.048 C 
HETATM   22  C   UNL     1      43.462 -18.775   2.831  1.00  0.00     0.009 A 
HETATM   23  C   UNL     1      42.818 -17.656   2.292  1.00  0.00     0.030 A 
ENDBRANCH  13  16
ENDBRANCH   1  12
BRANCH   2  24
HETATM   24  C   UNL     1      41.742 -12.060   3.674  1.00  0.00    -0.028 A 
HETATM   25  C   UNL     1      42.974 -11.970   3.008  1.00  0.00     0.012 A 
HETATM   26  C   UNL     1      44.149 -11.715   3.723  1.00  0.00     0.037 A 
HETATM   27  C   UNL     1      44.119 -11.520   5.105  1.00  0.00     0.068 A 
HETATM   28  C   UNL     1      42.900 -11.588   5.774  1.00  0.00     0.037 A 
HETATM   29  C   UNL     1      41.723 -11.855   5.064  1.00  0.00     0.012 A 
BRANCH  27  30
HETATM   30  O   UNL     1      45.337 -11.272   5.676  1.00  0.00    -0.356 OA
HETATM   31  C   UNL     1      45.369 -11.151   7.093  1.00  0.00     0.210 C 
ENDBRANCH  27  30
ENDBRANCH   2  24
TORSDOF 4
ENDMDL
MODEL 5
REMARK VINA RESULT:      -8.6      2.507      6.436
REMARK  4 active torsions:
REMARK  status: ('A' for Active; 'I' for Inactive)
REMARK    1  A    between atoms: C_6  and  N_7 
REMARK       I    between atoms: N_7  and  C_8 
REMARK    2  A    between atoms: C_8  and  C_9 
REMARK    3  A    between atoms: C_10  and  C_11 
REMARK    4  A    between atoms: C_14  and  O_15 
ROOT
HETATM    1  C   UNL     1      41.200 -13.787   4.651  1.00  0.00     0.062 A 
HETATM    2  C   UNL     1      41.574 -12.597   3.777  1.00  0.00     0.202 A 
HETATM    3  N   UNL     1      41.382 -11.328   4.494  1.00  0.00    -0.084 N 
HETATM    4  C   UNL     1      40.909 -11.235   5.775  1.00  0.00     0.725 A 
HETATM    5  N   UNL     1      40.576 -12.357   6.440  1.00  0.00    -0.192 N 
HETATM    6  N   UNL     1      41.806 -10.126   4.044  1.00  0.00    -0.149 NA
HETATM    7  C   UNL     1      41.443  -9.341   5.065  1.00  0.00     0.275 A 
HETATM    8  N   UNL     1      40.904  -9.982   6.150  1.00  0.00    -0.054 NA
HETATM    9  C   UNL     1      40.721 -13.632   5.910  1.00  0.00     0.037 A 
HETATM   10  C   UNL     1      40.335 -14.769   6.824  1.00  0.00     0.070 C 
HETATM   11  H   UNL     1      40.219 -12.276   7.388  1.00  0.00     0.184 HD
ENDROOT
BRANCH   1  12
HETATM   12  C   UNL     1      41.289 -15.140   4.045  1.00  0.00     0.256 C 
HETATM   13  N   UNL     1      42.545 -15.696   4.152  1.00  0.00    -0.323 N 
HETATM   14  H   UNL     1      43.251 -15.155   4.630  1.00  0.00     0.169 HD
HETATM   15  O   UNL     1      40.283 -15.635   3.552  1.00  0.00    -0.267 OA
BRANCH  13  16
HETATM   16  C   UNL     1      42.958 -16.977   3.705  1.00  0.00     0.041 A 
HETATM   17  C   UNL     1      43.648 -17.823   4.600  1.00  0.00    -0.035 A 
HETATM   18  C   UNL     1      44.036 -19.110   4.178  1.00  0.00     0.015 A 
HETATM   19  C   UNL     1      43.995 -17.404   6.004  1.00  0.00     0.050 C 
HETATM   20  C   UNL     1      43.766 -19.564   2.883  1.00  0.00    -0.061 A 
HETATM   21  C   UNL     1      44.146 -20.950   2.457  1.00  0.00     0.048 C 
HETATM   22  C   UNL     1      43.085 -18.720   2.007  1.00  0.00     0.009 A 
HETATM   23  C   UNL     1      42.692 -17.441   2.412  1.00  0.00     0.030 A 
ENDBRANCH  13  16
ENDBRANCH   1  12
BRANCH   2  24
HETATM   24  C   UNL     1      40.875 -12.543   2.422  1.00  0.00    -0.028 A 
HETATM   25  C   UNL     1      41.528 -12.876   1.225  1.00  0.00     0.012 A 
HETATM   26  C   UNL     1      40.846 -12.819   0.006  1.00  0.00     0.037 A 
HETATM   27  C   UNL     1      39.499 -12.454  -0.046  1.00  0.00     0.068 A 
HETATM   28  C   UNL     1      38.836 -12.139   1.137  1.00  0.00     0.037 A 
HETATM   29  C   UNL     1      39.518 -12.184   2.359  1.00  0.00     0.012 A 
BRANCH  27  30
HETATM   30  O   UNL     1      38.954 -12.447  -1.301  1.00  0.00    -0.356 OA
HETATM   31  C   UNL     1      38.587 -13.708  -1.848  1.00  0.00     0.210 C 
ENDBRANCH  27  30
ENDBRANCH   2  24
TORSDOF 4
ENDMDL
MODEL 6
REMARK VINA RESULT:      -8.5     14.932     17.394
REMARK  4 active torsions:
REMARK  status: ('A' for Active; 'I' for Inactive)
REMARK    1  A    between atoms: C_6  and  N_7 
REMARK       I    between atoms: N_7  and  C_8 
REMARK    2  A    between atoms: C_8  and  C_9 
REMARK    3  A    between atoms: C_10  and  C_11 
REMARK    4  A    between atoms: C_14  and  O_15 
ROOT
HETATM    1  C   UNL     1      46.191 -28.998   0.195  1.00  0.00     0.062 A 
HETATM    2  C   UNL     1      46.704 -28.882  -1.234  1.00  0.00     0.202 A 
HETATM    3  N   UNL     1      45.622 -29.091  -2.206  1.00  0.00    -0.084 N 
HETATM    4  C   UNL     1      44.327 -29.374  -1.865  1.00  0.00     0.725 A 
HETATM    5  N   UNL     1      43.997 -29.489  -0.565  1.00  0.00    -0.192 N 
HETATM    6  N   UNL     1      45.735 -28.863  -3.534  1.00  0.00    -0.149 NA
HETATM    7  C   UNL     1      44.491 -29.147  -3.938  1.00  0.00     0.275 A 
HETATM    8  N   UNL     1      43.595 -29.449  -2.946  1.00  0.00    -0.054 NA
HETATM    9  C   UNL     1      44.898 -29.296   0.474  1.00  0.00     0.037 A 
HETATM   10  C   UNL     1      44.330 -29.424   1.865  1.00  0.00     0.070 C 
HETATM   11  H   UNL     1      43.034 -29.706  -0.322  1.00  0.00     0.184 HD
ENDROOT
BRANCH   1  12
HETATM   12  C   UNL     1      47.181 -28.864   1.295  1.00  0.00     0.256 C 
HETATM   13  N   UNL     1      47.766 -30.063   1.641  1.00  0.00    -0.323 N 
HETATM   14  H   UNL     1      47.488 -30.881   1.119  1.00  0.00     0.169 HD
HETATM   15  O   UNL     1      47.403 -27.754   1.760  1.00  0.00    -0.267 OA
BRANCH  13  16
HETATM   16  C   UNL     1      48.764 -30.278   2.625  1.00  0.00     0.041 A 
HETATM   17  C   UNL     1      48.369 -30.655   3.927  1.00  0.00    -0.035 A 
HETATM   18  C   UNL     1      49.351 -30.903   4.906  1.00  0.00     0.015 A 
HETATM   19  C   UNL     1      46.923 -30.803   4.322  1.00  0.00     0.050 C 
HETATM   20  C   UNL     1      50.714 -30.767   4.620  1.00  0.00    -0.061 A 
HETATM   21  C   UNL     1      51.753 -31.073   5.657  1.00  0.00     0.048 C 
HETATM   22  C   UNL     1      51.093 -30.394   3.332  1.00  0.00     0.009 A 
HETATM   23  C   UNL     1      50.130 -30.147   2.349  1.00  0.00     0.030 A 
ENDBRANCH  13  16
ENDBRANCH   1  12
BRANCH   2  24
HETATM   24  C   UNL     1      47.892 -29.777  -1.572  1.00  0.00    -0.028 A 
HETATM   25  C   UNL     1      49.207 -29.291  -1.633  1.00  0.00     0.012 A 
HETATM   26  C   UNL     1      50.267 -30.151  -1.940  1.00  0.00     0.037 A 
HETATM   27  C   UNL     1      50.045 -31.510  -2.167  1.00  0.00     0.068 A 
HETATM   28  C   UNL     1      48.747 -32.008  -2.090  1.00  0.00     0.037 A 
HETATM   29  C   UNL     1      47.681 -31.149  -1.795  1.00  0.00     0.012 A 
BRANCH  27  30
HETATM   30  O   UNL     1      51.169 -32.236  -2.449  1.00  0.00    -0.356 OA
HETATM   31  C   UNL     1      52.416 -31.560  -2.330  1.00  0.00     0.210 C 
ENDBRANCH  27  30
ENDBRANCH   2  24
TORSDOF 4
ENDMDL
MODEL 7
REMARK VINA RESULT:      -8.4      2.511      4.841
REMARK  4 active torsions:
REMARK  status: ('A' for Active; 'I' for Inactive)
REMARK    1  A    between atoms: C_6  and  N_7 
REMARK       I    between atoms: N_7  and  C_8 
REMARK    2  A    between atoms: C_8  and  C_9 
REMARK    3  A    between atoms: C_10  and  C_11 
REMARK    4  A    between atoms: C_14  and  O_15 
ROOT
HETATM    1  C   UNL     1      42.657 -15.557   3.545  1.00  0.00     0.062 A 
HETATM    2  C   UNL     1      42.948 -14.835   4.854  1.00  0.00     0.202 A 
HETATM    3  N   UNL     1      43.273 -15.787   5.926  1.00  0.00    -0.084 N 
HETATM    4  C   UNL     1      43.289 -17.147   5.766  1.00  0.00     0.725 A 
HETATM    5  N   UNL     1      42.979 -17.675   4.568  1.00  0.00    -0.192 N 
HETATM    6  N   UNL     1      43.756 -15.435   7.139  1.00  0.00    -0.149 NA
HETATM    7  C   UNL     1      43.927 -16.641   7.694  1.00  0.00     0.275 A 
HETATM    8  N   UNL     1      43.667 -17.715   6.883  1.00  0.00    -0.054 NA
HETATM    9  C   UNL     1      42.674 -16.909   3.450  1.00  0.00     0.037 A 
HETATM   10  C   UNL     1      42.396 -17.681   2.184  1.00  0.00     0.070 C 
HETATM   11  H   UNL     1      42.987 -18.686   4.461  1.00  0.00     0.184 HD
ENDROOT
BRANCH   1  12
HETATM   12  C   UNL     1      42.259 -14.730   2.378  1.00  0.00     0.256 C 
HETATM   13  N   UNL     1      40.927 -14.867   2.050  1.00  0.00    -0.323 N 
HETATM   14  H   UNL     1      40.370 -15.480   2.627  1.00  0.00     0.169 HD
HETATM   15  O   UNL     1      43.096 -14.011   1.847  1.00  0.00    -0.267 OA
BRANCH  13  16
HETATM   16  C   UNL     1      40.226 -14.202   1.013  1.00  0.00     0.041 A 
HETATM   17  C   UNL     1      39.708 -12.911   1.256  1.00  0.00    -0.035 A 
HETATM   18  C   UNL     1      39.036 -12.227   0.224  1.00  0.00     0.015 A 
HETATM   19  C   UNL     1      39.843 -12.225   2.590  1.00  0.00     0.050 C 
HETATM   20  C   UNL     1      38.855 -12.807  -1.036  1.00  0.00    -0.061 A 
HETATM   21  C   UNL     1      38.175 -12.054  -2.140  1.00  0.00     0.048 C 
HETATM   22  C   UNL     1      39.369 -14.082  -1.266  1.00  0.00     0.009 A 
HETATM   23  C   UNL     1      40.040 -14.772  -0.252  1.00  0.00     0.030 A 
ENDBRANCH  13  16
ENDBRANCH   1  12
BRANCH   2  24
HETATM   24  C   UNL     1      41.860 -13.873   5.320  1.00  0.00    -0.028 A 
HETATM   25  C   UNL     1      40.566 -14.304   5.651  1.00  0.00     0.012 A 
HETATM   26  C   UNL     1      39.601 -13.387   6.081  1.00  0.00     0.037 A 
HETATM   27  C   UNL     1      39.910 -12.032   6.214  1.00  0.00     0.068 A 
HETATM   28  C   UNL     1      41.196 -11.596   5.908  1.00  0.00     0.037 A 
HETATM   29  C   UNL     1      42.161 -12.508   5.466  1.00  0.00     0.012 A 
BRANCH  27  30
HETATM   30  O   UNL     1      38.877 -11.248   6.651  1.00  0.00    -0.356 OA
HETATM   31  C   UNL     1      38.432 -10.224   5.770  1.00  0.00     0.210 C 
ENDBRANCH  27  30
ENDBRANCH   2  24
TORSDOF 4
ENDMDL
MODEL 8
REMARK VINA RESULT:      -8.4      2.937      6.301
REMARK  4 active torsions:
REMARK  status: ('A' for Active; 'I' for Inactive)
REMARK    1  A    between atoms: C_6  and  N_7 
REMARK       I    between atoms: N_7  and  C_8 
REMARK    2  A    between atoms: C_8  and  C_9 
REMARK    3  A    between atoms: C_10  and  C_11 
REMARK    4  A    between atoms: C_14  and  O_15 
ROOT
HETATM    1  C   UNL     1      42.784 -16.372   5.098  1.00  0.00     0.062 A 
HETATM    2  C   UNL     1      42.078 -16.922   3.867  1.00  0.00     0.202 A 
HETATM    3  N   UNL     1      42.858 -18.000   3.243  1.00  0.00    -0.084 N 
HETATM    4  C   UNL     1      44.072 -18.434   3.702  1.00  0.00     0.725 A 
HETATM    5  N   UNL     1      44.617 -17.846   4.783  1.00  0.00    -0.192 N 
HETATM    6  N   UNL     1      42.399 -18.800   2.254  1.00  0.00    -0.149 NA
HETATM    7  C   UNL     1      43.447 -19.617   2.094  1.00  0.00     0.275 A 
HETATM    8  N   UNL     1      44.485 -19.436   2.971  1.00  0.00    -0.054 NA
HETATM    9  C   UNL     1      43.995 -16.831   5.499  1.00  0.00     0.037 A 
HETATM   10  C   UNL     1      44.744 -16.328   6.708  1.00  0.00     0.070 C 
HETATM   11  H   UNL     1      45.522 -18.171   5.113  1.00  0.00     0.184 HD
ENDROOT
BRANCH   1  12
HETATM   12  C   UNL     1      42.142 -15.236   5.809  1.00  0.00     0.256 C 
HETATM   13  N   UNL     1      42.620 -14.009   5.404  1.00  0.00    -0.323 N 
HETATM   14  H   UNL     1      43.319 -14.002   4.676  1.00  0.00     0.169 HD
HETATM   15  O   UNL     1      41.269 -15.471   6.635  1.00  0.00    -0.267 OA
BRANCH  13  16
HETATM   16  C   UNL     1      42.203 -12.732   5.860  1.00  0.00     0.041 A 
HETATM   17  C   UNL     1      43.142 -11.895   6.501  1.00  0.00    -0.035 A 
HETATM   18  C   UNL     1      42.749 -10.612   6.930  1.00  0.00     0.015 A 
HETATM   19  C   UNL     1      44.565 -12.320   6.750  1.00  0.00     0.050 C 
HETATM   20  C   UNL     1      41.440 -10.155   6.751  1.00  0.00    -0.061 A 
HETATM   21  C   UNL     1      41.042  -8.772   7.174  1.00  0.00     0.048 C 
HETATM   22  C   UNL     1      40.520 -10.989   6.118  1.00  0.00     0.009 A 
HETATM   23  C   UNL     1      40.896 -12.264   5.684  1.00  0.00     0.030 A 
ENDBRANCH  13  16
ENDBRANCH   1  12
BRANCH   2  24
HETATM   24  C   UNL     1      41.693 -15.881   2.820  1.00  0.00    -0.028 A 
HETATM   25  C   UNL     1      42.648 -15.117   2.132  1.00  0.00     0.012 A 
HETATM   26  C   UNL     1      42.249 -14.179   1.175  1.00  0.00     0.037 A 
HETATM   27  C   UNL     1      40.899 -13.998   0.866  1.00  0.00     0.068 A 
HETATM   28  C   UNL     1      39.944 -14.763   1.529  1.00  0.00     0.037 A 
HETATM   29  C   UNL     1      40.337 -15.696   2.497  1.00  0.00     0.012 A 
BRANCH  27  30
HETATM   30  O   UNL     1      40.651 -13.055  -0.093  1.00  0.00    -0.356 OA
HETATM   31  C   UNL     1      39.334 -13.019  -0.631  1.00  0.00     0.210 C 
ENDBRANCH  27  30
ENDBRANCH   2  24
TORSDOF 4
ENDMDL
MODEL 9
REMARK VINA RESULT:      -8.3      2.770      6.771
REMARK  4 active torsions:
REMARK  status: ('A' for Active; 'I' for Inactive)
REMARK    1  A    between atoms: C_6  and  N_7 
REMARK       I    between atoms: N_7  and  C_8 
REMARK    2  A    between atoms: C_8  and  C_9 
REMARK    3  A    between atoms: C_10  and  C_11 
REMARK    4  A    between atoms: C_14  and  O_15 
ROOT
HETATM    1  C   UNL     1      41.923 -11.833   2.704  1.00  0.00     0.062 A 
HETATM    2  C   UNL     1      42.077 -13.247   2.163  1.00  0.00     0.202 A 
HETATM    3  N   UNL     1      41.041 -13.553   1.167  1.00  0.00    -0.084 N 
HETATM    4  C   UNL     1      40.054 -12.681   0.793  1.00  0.00     0.725 A 
HETATM    5  N   UNL     1      39.995 -11.465   1.368  1.00  0.00    -0.192 N 
HETATM    6  N   UNL     1      41.038 -14.654   0.383  1.00  0.00    -0.149 NA
HETATM    7  C   UNL     1      39.946 -14.425  -0.357  1.00  0.00     0.275 A 
HETATM    8  N   UNL     1      39.324 -13.222  -0.147  1.00  0.00    -0.054 NA
HETATM    9  C   UNL     1      40.915 -11.017   2.308  1.00  0.00     0.037 A 
HETATM   10  C   UNL     1      40.708  -9.608   2.805  1.00  0.00     0.070 C 
HETATM   11  H   UNL     1      39.254 -10.828   1.089  1.00  0.00     0.184 HD
ENDROOT
BRANCH   1  12
HETATM   12  C   UNL     1      42.867 -11.393   3.763  1.00  0.00     0.256 C 
HETATM   13  N   UNL     1      42.268 -11.259   4.997  1.00  0.00    -0.323 N 
HETATM   14  H   UNL     1      41.286 -11.482   5.060  1.00  0.00     0.169 HD
HETATM   15  O   UNL     1      44.044 -11.222   3.473  1.00  0.00    -0.267 OA
BRANCH  13  16
HETATM   16  C   UNL     1      42.888 -10.885   6.216  1.00  0.00     0.041 A 
HETATM   17  C   UNL     1      43.687 -11.831   6.894  1.00  0.00    -0.035 A 
HETATM   18  C   UNL     1      44.335 -11.462   8.090  1.00  0.00     0.015 A 
HETATM   19  C   UNL     1      43.880 -13.236   6.389  1.00  0.00     0.050 C 
HETATM   20  C   UNL     1      44.188 -10.181   8.631  1.00  0.00    -0.061 A 
HETATM   21  C   UNL     1      44.914  -9.786   9.882  1.00  0.00     0.048 C 
HETATM   22  C   UNL     1      43.395  -9.256   7.955  1.00  0.00     0.009 A 
HETATM   23  C   UNL     1      42.749  -9.606   6.766  1.00  0.00     0.030 A 
ENDBRANCH  13  16
ENDBRANCH   1  12
BRANCH   2  24
HETATM   24  C   UNL     1      42.126 -14.345   3.221  1.00  0.00    -0.028 A 
HETATM   25  C   UNL     1      43.227 -15.203   3.365  1.00  0.00     0.012 A 
HETATM   26  C   UNL     1      43.231 -16.192   4.355  1.00  0.00     0.037 A 
HETATM   27  C   UNL     1      42.155 -16.330   5.234  1.00  0.00     0.068 A 
HETATM   28  C   UNL     1      41.066 -15.472   5.113  1.00  0.00     0.037 A 
HETATM   29  C   UNL     1      41.052 -14.489   4.117  1.00  0.00     0.012 A 
BRANCH  27  30
HETATM   30  O   UNL     1      42.294 -17.330   6.157  1.00  0.00    -0.356 OA
HETATM   31  C   UNL     1      43.492 -18.095   6.099  1.00  0.00     0.210 C 
ENDBRANCH  27  30
ENDBRANCH   2  24
TORSDOF 4
ENDMDL
MODEL 10
REMARK VINA RESULT:      -8.3      3.161      5.609
REMARK  4 active torsions:
REMARK  status: ('A' for Active; 'I' for Inactive)
REMARK    1  A    between atoms: C_6  and  N_7 
REMARK       I    between atoms: N_7  and  C_8 
REMARK    2  A    between atoms: C_8  and  C_9 
REMARK    3  A    between atoms: C_10  and  C_11 
REMARK    4  A    between atoms: C_14  and  O_15 
ROOT
HETATM    1  C   UNL     1      42.103 -15.687   5.044  1.00  0.00     0.062 A 
HETATM    2  C   UNL     1      41.737 -16.516   3.820  1.00  0.00     0.202 A 
HETATM    3  N   UNL     1      42.784 -17.498   3.509  1.00  0.00    -0.084 N 
HETATM    4  C   UNL     1      43.946 -17.632   4.219  1.00  0.00     0.725 A 
HETATM    5  N   UNL     1      44.179 -16.817   5.264  1.00  0.00    -0.192 N 
HETATM    6  N   UNL     1      42.653 -18.492   2.601  1.00  0.00    -0.149 NA
HETATM    7  C   UNL     1      43.831 -19.110   2.743  1.00  0.00     0.275 A 
HETATM    8  N   UNL     1      44.646 -18.625   3.733  1.00  0.00    -0.054 NA
HETATM    9  C   UNL     1      43.278 -15.854   5.700  1.00  0.00     0.037 A 
HETATM   10  C   UNL     1      43.698 -15.066   6.916  1.00  0.00     0.070 C 
HETATM   11  H   UNL     1      45.049 -16.920   5.781  1.00  0.00     0.184 HD
ENDROOT
BRANCH   1  12
HETATM   12  C   UNL     1      41.165 -14.611   5.453  1.00  0.00     0.256 C 
HETATM   13  N   UNL     1      41.550 -13.364   5.009  1.00  0.00    -0.323 N 
HETATM   14  H   UNL     1      42.391 -13.311   4.455  1.00  0.00     0.169 HD
HETATM   15  O   UNL     1      40.165 -14.909   6.093  1.00  0.00    -0.267 OA
BRANCH  13  16
HETATM   16  C   UNL     1      40.867 -12.136   5.202  1.00  0.00     0.041 A 
HETATM   17  C   UNL     1      39.757 -11.836   4.384  1.00  0.00    -0.035 A 
HETATM   18  C   UNL     1      39.051 -10.633   4.586  1.00  0.00     0.015 A 
HETATM   19  C   UNL     1      39.289 -12.756   3.287  1.00  0.00     0.050 C 
HETATM   20  C   UNL     1      39.438  -9.720   5.571  1.00  0.00    -0.061 A 
HETATM   21  C   UNL     1      38.655  -8.462   5.806  1.00  0.00     0.048 C 
HETATM   22  C   UNL     1      40.536 -10.025   6.373  1.00  0.00     0.009 A 
HETATM   23  C   UNL     1      41.245 -11.215   6.186  1.00  0.00     0.030 A 
ENDBRANCH  13  16
ENDBRANCH   1  12
BRANCH   2  24
HETATM   24  C   UNL     1      41.387 -15.711   2.573  1.00  0.00    -0.028 A 
HETATM   25  C   UNL     1      42.224 -14.704   2.068  1.00  0.00     0.012 A 
HETATM   26  C   UNL     1      41.866 -13.996   0.916  1.00  0.00     0.037 A 
HETATM   27  C   UNL     1      40.685 -14.289   0.232  1.00  0.00     0.068 A 
HETATM   28  C   UNL     1      39.856 -15.299   0.712  1.00  0.00     0.037 A 
HETATM   29  C   UNL     1      40.204 -16.003   1.871  1.00  0.00     0.012 A 
BRANCH  27  30
HETATM   30  O   UNL     1      40.462 -13.527  -0.882  1.00  0.00    -0.356 OA
HETATM   31  C   UNL     1      39.471 -13.993  -1.791  1.00  0.00     0.210 C 
ENDBRANCH  27  30
ENDBRANCH   2  24
TORSDOF 4
ENDMDL
