MODEL 1
REMARK VINA RESULT:      -9.7      0.000      0.000
REMARK  5 active torsions:
REMARK  status: ('A' for Active; 'I' for Inactive)
REMARK    1  A    between atoms: C_2  and  C_3 
REMARK    2  A    between atoms: C_6  and  N_7 
REMARK       I    between atoms: N_7  and  C_8 
REMARK    3  A    between atoms: C_8  and  C_9 
REMARK    4  A    between atoms: C_17  and  C_18 
REMARK    5  A    between atoms: C_21  and  O_22 
ROOT
HETATM    1  C   UNL     1      42.482 -14.602   3.841  1.00  0.00     0.047 A 
HETATM    2  C   UNL     1      42.973 -15.924   3.713  1.00  0.00     0.008 A 
HETATM    3  C   UNL     1      42.798 -16.520   2.453  1.00  0.00     0.068 A 
HETATM    4  C   UNL     1      43.290 -17.801   2.238  1.00  0.00     0.032 A 
HETATM    5  C   UNL     1      43.924 -18.531   3.243  1.00  0.00     0.002 A 
HETATM    6  C   UNL     1      44.061 -17.978   4.507  1.00  0.00     0.001 A 
HETATM    7  C   UNL     1      43.583 -16.691   4.744  1.00  0.00     0.015 A 
HETATM    8  N   UNL     1      42.154 -15.920   1.441  1.00  0.00    -0.248 NA
HETATM    9  C   UNL     1      41.602 -14.692   1.614  1.00  0.00     0.068 A 
HETATM   10  C   UNL     1      41.778 -13.995   2.797  1.00  0.00     0.050 A 
ENDROOT
BRANCH   1  11
HETATM   11  C   UNL     1      42.620 -13.802   5.087  1.00  0.00     0.257 C 
HETATM   12  N   UNL     1      43.340 -12.630   4.952  1.00  0.00    -0.323 N 
HETATM   13  H   UNL     1      43.636 -12.380   4.016  1.00  0.00     0.169 HD
HETATM   14  O   UNL     1      42.080 -14.228   6.101  1.00  0.00    -0.267 OA
BRANCH  12  15
HETATM   15  C   UNL     1      43.820 -11.806   5.994  1.00  0.00     0.035 A 
HETATM   16  C   UNL     1      45.126 -11.849   6.482  1.00  0.00     0.030 A 
HETATM   17  C   UNL     1      45.552 -10.936   7.453  1.00  0.00     0.017 A 
HETATM   18  C   UNL     1      44.680  -9.956   7.933  1.00  0.00     0.009 A 
HETATM   19  C   UNL     1      43.359  -9.931   7.479  1.00  0.00     0.017 A 
HETATM   20  C   UNL     1      42.932 -10.858   6.519  1.00  0.00     0.030 A 
BRANCH  18  21
HETATM   21  C   UNL     1      45.196  -8.959   8.910  1.00  0.00     0.155 C 
HETATM   22  C   UNL     1      45.436  -9.398  10.331  1.00  0.00     0.096 C 
HETATM   23  O   UNL     1      45.406  -7.802   8.550  1.00  0.00    -0.293 OA
ENDBRANCH  18  21
ENDBRANCH  12  15
ENDBRANCH   1  11
BRANCH   9  24
HETATM   24  C   UNL     1      40.787 -14.197   0.484  1.00  0.00    -0.007 A 
HETATM   25  C   UNL     1      39.913 -15.031  -0.235  1.00  0.00     0.016 A 
HETATM   26  C   UNL     1      39.196 -14.554  -1.339  1.00  0.00     0.037 A 
HETATM   27  C   UNL     1      39.335 -13.234  -1.766  1.00  0.00     0.068 A 
HETATM   28  C   UNL     1      40.181 -12.384  -1.061  1.00  0.00     0.037 A 
HETATM   29  C   UNL     1      40.896 -12.863   0.046  1.00  0.00     0.016 A 
BRANCH  27  30
HETATM   30  O   UNL     1      38.599 -12.906  -2.870  1.00  0.00    -0.356 OA
HETATM   31  C   UNL     1      37.197 -13.129  -2.790  1.00  0.00     0.210 C 
ENDBRANCH  27  30
ENDBRANCH   9  24
TORSDOF 5
ENDMDL
MODEL 2
REMARK VINA RESULT:      -9.3      1.605      8.573
REMARK  5 active torsions:
REMARK  status: ('A' for Active; 'I' for Inactive)
REMARK    1  A    between atoms: C_2  and  C_3 
REMARK    2  A    between atoms: C_6  and  N_7 
REMARK       I    between atoms: N_7  and  C_8 
REMARK    3  A    between atoms: C_8  and  C_9 
REMARK    4  A    between atoms: C_17  and  C_18 
REMARK    5  A    between atoms: C_21  and  O_22 
ROOT
HETATM    1  C   UNL     1      41.656 -15.294   3.140  1.00  0.00     0.047 A 
HETATM    2  C   UNL     1      42.487 -16.425   3.334  1.00  0.00     0.008 A 
HETATM    3  C   UNL     1      43.346 -16.366   4.444  1.00  0.00     0.068 A 
HETATM    4  C   UNL     1      44.163 -17.454   4.723  1.00  0.00     0.032 A 
HETATM    5  C   UNL     1      44.183 -18.593   3.918  1.00  0.00     0.002 A 
HETATM    6  C   UNL     1      43.379 -18.648   2.790  1.00  0.00     0.001 A 
HETATM    7  C   UNL     1      42.545 -17.572   2.494  1.00  0.00     0.015 A 
HETATM    8  N   UNL     1      43.437 -15.294   5.245  1.00  0.00    -0.248 NA
HETATM    9  C   UNL     1      42.705 -14.182   4.984  1.00  0.00     0.068 A 
HETATM   10  C   UNL     1      41.781 -14.164   3.953  1.00  0.00     0.050 A 
ENDROOT
BRANCH   1  11
HETATM   11  C   UNL     1      40.656 -15.201   2.044  1.00  0.00     0.257 C 
HETATM   12  N   UNL     1      40.915 -14.228   1.096  1.00  0.00    -0.323 N 
HETATM   13  H   UNL     1      41.792 -13.728   1.182  1.00  0.00     0.169 HD
HETATM   14  O   UNL     1      39.717 -15.988   2.060  1.00  0.00    -0.267 OA
BRANCH  12  15
HETATM   15  C   UNL     1      40.035 -13.767   0.093  1.00  0.00     0.035 A 
HETATM   16  C   UNL     1      39.689 -14.506  -1.039  1.00  0.00     0.030 A 
HETATM   17  C   UNL     1      38.737 -14.018  -1.942  1.00  0.00     0.017 A 
HETATM   18  C   UNL     1      38.106 -12.792  -1.711  1.00  0.00     0.009 A 
HETATM   19  C   UNL     1      38.476 -12.028  -0.601  1.00  0.00     0.017 A 
HETATM   20  C   UNL     1      39.442 -12.513   0.291  1.00  0.00     0.030 A 
BRANCH  18  21
HETATM   21  C   UNL     1      37.047 -12.346  -2.657  1.00  0.00     0.155 C 
HETATM   22  C   UNL     1      36.829 -10.869  -2.851  1.00  0.00     0.096 C 
HETATM   23  O   UNL     1      36.366 -13.181  -3.249  1.00  0.00    -0.293 OA
ENDBRANCH  18  21
ENDBRANCH  12  15
ENDBRANCH   1  11
BRANCH   9  24
HETATM   24  C   UNL     1      43.000 -13.012   5.840  1.00  0.00    -0.007 A 
HETATM   25  C   UNL     1      42.138 -11.904   5.921  1.00  0.00     0.016 A 
HETATM   26  C   UNL     1      42.466 -10.782   6.692  1.00  0.00     0.037 A 
HETATM   27  C   UNL     1      43.668 -10.725   7.396  1.00  0.00     0.068 A 
HETATM   28  C   UNL     1      44.530 -11.816   7.346  1.00  0.00     0.037 A 
HETATM   29  C   UNL     1      44.198 -12.940   6.576  1.00  0.00     0.016 A 
BRANCH  27  30
HETATM   30  O   UNL     1      43.876  -9.564   8.087  1.00  0.00    -0.356 OA
HETATM   31  C   UNL     1      45.230  -9.207   8.339  1.00  0.00     0.210 C 
ENDBRANCH  27  30
ENDBRANCH   9  24
TORSDOF 5
ENDMDL
MODEL 3
REMARK VINA RESULT:      -9.2      1.970      5.464
REMARK  5 active torsions:
REMARK  status: ('A' for Active; 'I' for Inactive)
REMARK    1  A    between atoms: C_2  and  C_3 
REMARK    2  A    between atoms: C_6  and  N_7 
REMARK       I    between atoms: N_7  and  C_8 
REMARK    3  A    between atoms: C_8  and  C_9 
REMARK    4  A    between atoms: C_17  and  C_18 
REMARK    5  A    between atoms: C_21  and  O_22 
ROOT
HETATM    1  C   UNL     1      42.625 -13.420   2.876  1.00  0.00     0.047 A 
HETATM    2  C   UNL     1      41.828 -13.236   1.719  1.00  0.00     0.008 A 
HETATM    3  C   UNL     1      41.346 -14.411   1.119  1.00  0.00     0.068 A 
HETATM    4  C   UNL     1      40.524 -14.311   0.003  1.00  0.00     0.032 A 
HETATM    5  C   UNL     1      40.188 -13.080  -0.562  1.00  0.00     0.002 A 
HETATM    6  C   UNL     1      40.696 -11.913  -0.013  1.00  0.00     0.001 A 
HETATM    7  C   UNL     1      41.515 -11.989   1.112  1.00  0.00     0.015 A 
HETATM    8  N   UNL     1      41.658 -15.640   1.557  1.00  0.00    -0.248 NA
HETATM    9  C   UNL     1      42.504 -15.797   2.606  1.00  0.00     0.068 A 
HETATM   10  C   UNL     1      42.980 -14.702   3.306  1.00  0.00     0.050 A 
ENDROOT
BRANCH   1  11
HETATM   11  C   UNL     1      43.183 -12.290   3.665  1.00  0.00     0.257 C 
HETATM   12  N   UNL     1      43.575 -12.612   4.951  1.00  0.00    -0.323 N 
HETATM   13  H   UNL     1      43.526 -13.590   5.213  1.00  0.00     0.169 HD
HETATM   14  O   UNL     1      43.265 -11.198   3.117  1.00  0.00    -0.267 OA
BRANCH  12  15
HETATM   15  C   UNL     1      43.915 -11.711   5.983  1.00  0.00     0.035 A 
HETATM   16  C   UNL     1      45.211 -11.537   6.469  1.00  0.00     0.030 A 
HETATM   17  C   UNL     1      45.484 -10.556   7.430  1.00  0.00     0.017 A 
HETATM   18  C   UNL     1      44.464  -9.725   7.902  1.00  0.00     0.009 A 
HETATM   19  C   UNL     1      43.157  -9.919   7.449  1.00  0.00     0.017 A 
HETATM   20  C   UNL     1      42.886 -10.913   6.500  1.00  0.00     0.030 A 
BRANCH  18  21
HETATM   21  C   UNL     1      44.813  -8.647   8.868  1.00  0.00     0.155 C 
HETATM   22  C   UNL     1      44.854  -8.980  10.336  1.00  0.00     0.096 C 
HETATM   23  O   UNL     1      45.048  -7.513   8.458  1.00  0.00    -0.293 OA
ENDBRANCH  18  21
ENDBRANCH  12  15
ENDBRANCH   1  11
BRANCH   9  24
HETATM   24  C   UNL     1      42.896 -17.192   2.902  1.00  0.00    -0.007 A 
HETATM   25  C   UNL     1      43.519 -17.558   4.108  1.00  0.00     0.016 A 
HETATM   26  C   UNL     1      43.936 -18.874   4.342  1.00  0.00     0.037 A 
HETATM   27  C   UNL     1      43.754 -19.864   3.377  1.00  0.00     0.068 A 
HETATM   28  C   UNL     1      43.124 -19.531   2.182  1.00  0.00     0.037 A 
HETATM   29  C   UNL     1      42.705 -18.213   1.951  1.00  0.00     0.016 A 
BRANCH  27  30
HETATM   30  O   UNL     1      44.228 -21.098   3.722  1.00  0.00    -0.356 OA
HETATM   31  C   UNL     1      44.318 -21.381   5.113  1.00  0.00     0.210 C 
ENDBRANCH  27  30
ENDBRANCH   9  24
TORSDOF 5
ENDMDL
MODEL 4
REMARK VINA RESULT:      -8.9      4.168      7.199
REMARK  5 active torsions:
REMARK  status: ('A' for Active; 'I' for Inactive)
REMARK    1  A    between atoms: C_2  and  C_3 
REMARK    2  A    between atoms: C_6  and  N_7 
REMARK       I    between atoms: N_7  and  C_8 
REMARK    3  A    between atoms: C_8  and  C_9 
REMARK    4  A    between atoms: C_17  and  C_18 
REMARK    5  A    between atoms: C_21  and  O_22 
ROOT
HETATM    1  C   UNL     1      40.956 -12.942  -0.156  1.00  0.00     0.047 A 
HETATM    2  C   UNL     1      40.152 -13.575  -1.135  1.00  0.00     0.008 A 
HETATM    3  C   UNL     1      39.980 -12.865  -2.336  1.00  0.00     0.068 A 
HETATM    4  C   UNL     1      39.237 -13.438  -3.359  1.00  0.00     0.032 A 
HETATM    5  C   UNL     1      38.625 -14.685  -3.223  1.00  0.00     0.002 A 
HETATM    6  C   UNL     1      38.742 -15.377  -2.028  1.00  0.00     0.001 A 
HETATM    7  C   UNL     1      39.490 -14.826  -0.990  1.00  0.00     0.015 A 
HETATM    8  N   UNL     1      40.483 -11.638  -2.539  1.00  0.00    -0.248 NA
HETATM    9  C   UNL     1      41.168 -11.007  -1.552  1.00  0.00     0.068 A 
HETATM   10  C   UNL     1      41.446 -11.649  -0.358  1.00  0.00     0.050 A 
ENDROOT
BRANCH   1  11
HETATM   11  C   UNL     1      41.281 -13.566   1.154  1.00  0.00     0.257 C 
HETATM   12  N   UNL     1      42.416 -14.356   1.160  1.00  0.00    -0.323 N 
HETATM   13  H   UNL     1      42.965 -14.374   0.308  1.00  0.00     0.169 HD
HETATM   14  O   UNL     1      40.545 -13.319   2.101  1.00  0.00    -0.267 OA
BRANCH  12  15
HETATM   15  C   UNL     1      42.826 -15.240   2.181  1.00  0.00     0.035 A 
HETATM   16  C   UNL     1      42.933 -14.882   3.525  1.00  0.00     0.030 A 
HETATM   17  C   UNL     1      43.257 -15.841   4.492  1.00  0.00     0.017 A 
HETATM   18  C   UNL     1      43.459 -17.174   4.126  1.00  0.00     0.009 A 
HETATM   19  C   UNL     1      43.392 -17.533   2.777  1.00  0.00     0.017 A 
HETATM   20  C   UNL     1      43.085 -16.567   1.811  1.00  0.00     0.030 A 
BRANCH  18  21
HETATM   21  C   UNL     1      43.728 -18.174   5.196  1.00  0.00     0.155 C 
HETATM   22  C   UNL     1      44.164 -19.559   4.796  1.00  0.00     0.096 C 
HETATM   23  O   UNL     1      43.580 -17.861   6.376  1.00  0.00    -0.293 OA
ENDBRANCH  18  21
ENDBRANCH  12  15
ENDBRANCH   1  11
BRANCH   9  24
HETATM   24  C   UNL     1      41.541  -9.604  -1.835  1.00  0.00    -0.007 A 
HETATM   25  C   UNL     1      41.053  -8.908  -2.955  1.00  0.00     0.016 A 
HETATM   26  C   UNL     1      41.467  -7.599  -3.235  1.00  0.00     0.037 A 
HETATM   27  C   UNL     1      42.386  -6.949  -2.413  1.00  0.00     0.068 A 
HETATM   28  C   UNL     1      42.869  -7.610  -1.288  1.00  0.00     0.037 A 
HETATM   29  C   UNL     1      42.452  -8.919  -1.008  1.00  0.00     0.016 A 
BRANCH  27  30
HETATM   30  O   UNL     1      42.723  -5.686  -2.813  1.00  0.00    -0.356 OA
HETATM   31  C   UNL     1      42.968  -4.735  -1.783  1.00  0.00     0.210 C 
ENDBRANCH  27  30
ENDBRANCH   9  24
TORSDOF 5
ENDMDL
MODEL 5
REMARK VINA RESULT:      -8.5     16.598     18.268
REMARK  5 active torsions:
REMARK  status: ('A' for Active; 'I' for Inactive)
REMARK    1  A    between atoms: C_2  and  C_3 
REMARK    2  A    between atoms: C_6  and  N_7 
REMARK       I    between atoms: N_7  and  C_8 
REMARK    3  A    between atoms: C_8  and  C_9 
REMARK    4  A    between atoms: C_17  and  C_18 
REMARK    5  A    between atoms: C_21  and  O_22 
ROOT
HETATM    1  C   UNL     1      46.210 -29.300   1.620  1.00  0.00     0.047 A 
HETATM    2  C   UNL     1      46.145 -28.856   0.277  1.00  0.00     0.008 A 
HETATM    3  C   UNL     1      44.869 -28.873  -0.310  1.00  0.00     0.068 A 
HETATM    4  C   UNL     1      44.719 -28.415  -1.612  1.00  0.00     0.032 A 
HETATM    5  C   UNL     1      45.801 -27.967  -2.371  1.00  0.00     0.002 A 
HETATM    6  C   UNL     1      47.074 -27.989  -1.825  1.00  0.00     0.001 A 
HETATM    7  C   UNL     1      47.249 -28.437  -0.517  1.00  0.00     0.015 A 
HETATM    8  N   UNL     1      43.779 -29.336   0.320  1.00  0.00    -0.248 NA
HETATM    9  C   UNL     1      43.879 -29.851   1.571  1.00  0.00     0.068 A 
HETATM   10  C   UNL     1      45.080 -29.817   2.260  1.00  0.00     0.050 A 
ENDROOT
BRANCH   1  11
HETATM   11  C   UNL     1      47.468 -29.308   2.413  1.00  0.00     0.257 C 
HETATM   12  N   UNL     1      48.057 -30.550   2.563  1.00  0.00    -0.323 N 
HETATM   13  H   UNL     1      47.633 -31.321   2.059  1.00  0.00     0.169 HD
HETATM   14  O   UNL     1      47.880 -28.237   2.841  1.00  0.00    -0.267 OA
BRANCH  12  15
HETATM   15  C   UNL     1      49.109 -30.888   3.442  1.00  0.00     0.035 A 
HETATM   16  C   UNL     1      50.408 -30.392   3.328  1.00  0.00     0.030 A 
HETATM   17  C   UNL     1      51.373 -30.701   4.294  1.00  0.00     0.017 A 
HETATM   18  C   UNL     1      51.043 -31.495   5.395  1.00  0.00     0.009 A 
HETATM   19  C   UNL     1      49.755 -32.027   5.496  1.00  0.00     0.017 A 
HETATM   20  C   UNL     1      48.797 -31.730   4.517  1.00  0.00     0.030 A 
BRANCH  18  21
HETATM   21  C   UNL     1      52.079 -31.737   6.436  1.00  0.00     0.155 C 
HETATM   22  C   UNL     1      51.849 -32.833   7.443  1.00  0.00     0.096 C 
HETATM   23  O   UNL     1      53.090 -31.038   6.466  1.00  0.00    -0.293 OA
ENDBRANCH  18  21
ENDBRANCH  12  15
ENDBRANCH   1  11
BRANCH   9  24
HETATM   24  C   UNL     1      42.646 -30.470   2.104  1.00  0.00    -0.007 A 
HETATM   25  C   UNL     1      42.260 -30.339   3.449  1.00  0.00     0.016 A 
HETATM   26  C   UNL     1      41.120 -30.983   3.946  1.00  0.00     0.037 A 
HETATM   27  C   UNL     1      40.336 -31.786   3.119  1.00  0.00     0.068 A 
HETATM   28  C   UNL     1      40.687 -31.918   1.779  1.00  0.00     0.037 A 
HETATM   29  C   UNL     1      41.827 -31.270   1.284  1.00  0.00     0.016 A 
BRANCH  27  30
HETATM   30  O   UNL     1      39.268 -32.376   3.734  1.00  0.00    -0.356 OA
HETATM   31  C   UNL     1      39.343 -32.515   5.147  1.00  0.00     0.210 C 
ENDBRANCH  27  30
ENDBRANCH   9  24
TORSDOF 5
ENDMDL
MODEL 6
REMARK VINA RESULT:      -8.4      2.559      5.697
REMARK  5 active torsions:
REMARK  status: ('A' for Active; 'I' for Inactive)
REMARK    1  A    between atoms: C_2  and  C_3 
REMARK    2  A    between atoms: C_6  and  N_7 
REMARK       I    between atoms: N_7  and  C_8 
REMARK    3  A    between atoms: C_8  and  C_9 
REMARK    4  A    between atoms: C_17  and  C_18 
REMARK    5  A    between atoms: C_21  and  O_22 
ROOT
HETATM    1  C   UNL     1      42.722 -12.679   3.496  1.00  0.00     0.047 A 
HETATM    2  C   UNL     1      42.074 -12.385   2.272  1.00  0.00     0.008 A 
HETATM    3  C   UNL     1      41.665 -13.497   1.516  1.00  0.00     0.068 A 
HETATM    4  C   UNL     1      40.988 -13.289   0.322  1.00  0.00     0.032 A 
HETATM    5  C   UNL     1      40.727 -12.010  -0.170  1.00  0.00     0.002 A 
HETATM    6  C   UNL     1      41.166 -10.902   0.537  1.00  0.00     0.001 A 
HETATM    7  C   UNL     1      41.841 -11.086   1.742  1.00  0.00     0.015 A 
HETATM    8  N   UNL     1      41.919 -14.763   1.879  1.00  0.00    -0.248 NA
HETATM    9  C   UNL     1      42.629 -15.022   3.006  1.00  0.00     0.068 A 
HETATM   10  C   UNL     1      43.018 -13.998   3.852  1.00  0.00     0.050 A 
ENDROOT
BRANCH   1  11
HETATM   11  C   UNL     1      43.182 -11.630   4.443  1.00  0.00     0.257 C 
HETATM   12  N   UNL     1      42.282 -11.310   5.444  1.00  0.00    -0.323 N 
HETATM   13  H   UNL     1      41.437 -11.868   5.494  1.00  0.00     0.169 HD
HETATM   14  O   UNL     1      44.300 -11.159   4.275  1.00  0.00    -0.267 OA
BRANCH  12  15
HETATM   15  C   UNL     1      42.351 -10.210   6.326  1.00  0.00     0.035 A 
HETATM   16  C   UNL     1      43.321 -10.069   7.319  1.00  0.00     0.030 A 
HETATM   17  C   UNL     1      43.380  -8.904   8.093  1.00  0.00     0.017 A 
HETATM   18  C   UNL     1      42.479  -7.858   7.868  1.00  0.00     0.009 A 
HETATM   19  C   UNL     1      41.482  -8.009   6.901  1.00  0.00     0.017 A 
HETATM   20  C   UNL     1      41.416  -9.184   6.141  1.00  0.00     0.030 A 
BRANCH  18  21
HETATM   21  C   UNL     1      42.625  -6.608   8.663  1.00  0.00     0.155 C 
HETATM   22  C   UNL     1      41.721  -5.445   8.350  1.00  0.00     0.096 C 
HETATM   23  O   UNL     1      43.479  -6.541   9.545  1.00  0.00    -0.293 OA
ENDBRANCH  18  21
ENDBRANCH  12  15
ENDBRANCH   1  11
BRANCH   9  24
HETATM   24  C   UNL     1      42.978 -16.443   3.224  1.00  0.00    -0.007 A 
HETATM   25  C   UNL     1      43.552 -16.900   4.423  1.00  0.00     0.016 A 
HETATM   26  C   UNL     1      43.930 -18.239   4.586  1.00  0.00     0.037 A 
HETATM   27  C   UNL     1      43.756 -19.160   3.554  1.00  0.00     0.068 A 
HETATM   28  C   UNL     1      43.174 -18.737   2.363  1.00  0.00     0.037 A 
HETATM   29  C   UNL     1      42.794 -17.396   2.204  1.00  0.00     0.016 A 
BRANCH  27  30
HETATM   30  O   UNL     1      44.190 -20.426   3.833  1.00  0.00    -0.356 OA
HETATM   31  C   UNL     1      44.080 -20.854   5.185  1.00  0.00     0.210 C 
ENDBRANCH  27  30
ENDBRANCH   9  24
TORSDOF 5
ENDMDL
MODEL 7
REMARK VINA RESULT:      -8.4      8.053     15.088
REMARK  5 active torsions:
REMARK  status: ('A' for Active; 'I' for Inactive)
REMARK    1  A    between atoms: C_2  and  C_3 
REMARK    2  A    between atoms: C_6  and  N_7 
REMARK       I    between atoms: N_7  and  C_8 
REMARK    3  A    between atoms: C_8  and  C_9 
REMARK    4  A    between atoms: C_17  and  C_18 
REMARK    5  A    between atoms: C_21  and  O_22 
ROOT
HETATM    1  C   UNL     1      40.818  -7.839  14.112  1.00  0.00     0.047 A 
HETATM    2  C   UNL     1      39.719  -6.995  13.819  1.00  0.00     0.008 A 
HETATM    3  C   UNL     1      39.169  -6.306  14.913  1.00  0.00     0.068 A 
HETATM    4  C   UNL     1      38.114  -5.430  14.698  1.00  0.00     0.032 A 
HETATM    5  C   UNL     1      37.558  -5.233  13.433  1.00  0.00     0.002 A 
HETATM    6  C   UNL     1      38.055  -5.942  12.350  1.00  0.00     0.001 A 
HETATM    7  C   UNL     1      39.119  -6.821  12.540  1.00  0.00     0.015 A 
HETATM    8  N   UNL     1      39.600  -6.470  16.173  1.00  0.00    -0.248 NA
HETATM    9  C   UNL     1      40.588  -7.358  16.448  1.00  0.00     0.068 A 
HETATM   10  C   UNL     1      41.238  -8.035  15.431  1.00  0.00     0.050 A 
ENDROOT
BRANCH   1  11
HETATM   11  C   UNL     1      41.550  -8.608  13.072  1.00  0.00     0.257 C 
HETATM   12  N   UNL     1      42.607  -7.938  12.484  1.00  0.00    -0.323 N 
HETATM   13  H   UNL     1      42.839  -7.027  12.863  1.00  0.00     0.169 HD
HETATM   14  O   UNL     1      41.179  -9.752  12.842  1.00  0.00    -0.267 OA
BRANCH  12  15
HETATM   15  C   UNL     1      43.319  -8.327  11.329  1.00  0.00     0.035 A 
HETATM   16  C   UNL     1      43.236  -7.664  10.104  1.00  0.00     0.030 A 
HETATM   17  C   UNL     1      44.044  -8.054   9.029  1.00  0.00     0.017 A 
HETATM   18  C   UNL     1      44.959  -9.101   9.175  1.00  0.00     0.009 A 
HETATM   19  C   UNL     1      45.020  -9.794  10.387  1.00  0.00     0.017 A 
HETATM   20  C   UNL     1      44.196  -9.412  11.454  1.00  0.00     0.030 A 
BRANCH  18  21
HETATM   21  C   UNL     1      45.851  -9.433   8.031  1.00  0.00     0.155 C 
HETATM   22  C   UNL     1      45.804 -10.826   7.461  1.00  0.00     0.096 C 
HETATM   23  O   UNL     1      46.611  -8.578   7.580  1.00  0.00    -0.293 OA
ENDBRANCH  18  21
ENDBRANCH  12  15
ENDBRANCH   1  11
BRANCH   9  24
HETATM   24  C   UNL     1      40.873  -7.566  17.884  1.00  0.00    -0.007 A 
HETATM   25  C   UNL     1      42.144  -7.334  18.439  1.00  0.00     0.016 A 
HETATM   26  C   UNL     1      42.407  -7.595  19.790  1.00  0.00     0.037 A 
HETATM   27  C   UNL     1      41.414  -8.104  20.626  1.00  0.00     0.068 A 
HETATM   28  C   UNL     1      40.143  -8.326  20.104  1.00  0.00     0.037 A 
HETATM   29  C   UNL     1      39.882  -8.062  18.752  1.00  0.00     0.016 A 
BRANCH  27  30
HETATM   30  O   UNL     1      41.809  -8.337  21.913  1.00  0.00    -0.356 OA
HETATM   31  C   UNL     1      40.804  -8.778  22.818  1.00  0.00     0.210 C 
ENDBRANCH  27  30
ENDBRANCH   9  24
TORSDOF 5
ENDMDL
MODEL 8
REMARK VINA RESULT:      -8.2     16.498     18.592
REMARK  5 active torsions:
REMARK  status: ('A' for Active; 'I' for Inactive)
REMARK    1  A    between atoms: C_2  and  C_3 
REMARK    2  A    between atoms: C_6  and  N_7 
REMARK       I    between atoms: N_7  and  C_8 
REMARK    3  A    between atoms: C_8  and  C_9 
REMARK    4  A    between atoms: C_17  and  C_18 
REMARK    5  A    between atoms: C_21  and  O_22 
ROOT
HETATM    1  C   UNL     1      44.142 -29.604   0.131  1.00  0.00     0.047 A 
HETATM    2  C   UNL     1      45.405 -29.197   0.627  1.00  0.00     0.008 A 
HETATM    3  C   UNL     1      46.436 -29.118  -0.325  1.00  0.00     0.068 A 
HETATM    4  C   UNL     1      47.694 -28.688   0.077  1.00  0.00     0.032 A 
HETATM    5  C   UNL     1      47.977 -28.362   1.404  1.00  0.00     0.002 A 
HETATM    6  C   UNL     1      46.986 -28.482   2.365  1.00  0.00     0.001 A 
HETATM    7  C   UNL     1      45.714 -28.904   1.984  1.00  0.00     0.015 A 
HETATM    8  N   UNL     1      46.274 -29.462  -1.611  1.00  0.00    -0.248 NA
HETATM    9  C   UNL     1      45.083 -29.944  -2.045  1.00  0.00     0.068 A 
HETATM   10  C   UNL     1      43.987 -29.998  -1.201  1.00  0.00     0.050 A 
ENDROOT
BRANCH   1  11
HETATM   11  C   UNL     1      42.928 -29.700   0.985  1.00  0.00     0.257 C 
HETATM   12  N   UNL     1      42.881 -30.808   1.811  1.00  0.00    -0.323 N 
HETATM   13  H   UNL     1      43.700 -31.405   1.824  1.00  0.00     0.169 HD
HETATM   14  O   UNL     1      42.100 -28.802   0.903  1.00  0.00    -0.267 OA
BRANCH  12  15
HETATM   15  C   UNL     1      41.766 -31.271   2.544  1.00  0.00     0.035 A 
HETATM   16  C   UNL     1      40.929 -32.302   2.118  1.00  0.00     0.030 A 
HETATM   17  C   UNL     1      39.899 -32.768   2.944  1.00  0.00     0.017 A 
HETATM   18  C   UNL     1      39.708 -32.218   4.215  1.00  0.00     0.009 A 
HETATM   19  C   UNL     1      40.517 -31.159   4.632  1.00  0.00     0.017 A 
HETATM   20  C   UNL     1      41.536 -30.684   3.795  1.00  0.00     0.030 A 
BRANCH  18  21
HETATM   21  C   UNL     1      38.649 -32.794   5.089  1.00  0.00     0.155 C 
HETATM   22  C   UNL     1      37.514 -33.546   4.446  1.00  0.00     0.096 C 
HETATM   23  O   UNL     1      38.711 -32.639   6.306  1.00  0.00    -0.293 OA
ENDBRANCH  18  21
ENDBRANCH  12  15
ENDBRANCH   1  11
BRANCH   9  24
HETATM   24  C   UNL     1      45.066 -30.434  -3.441  1.00  0.00    -0.007 A 
HETATM   25  C   UNL     1      46.103 -31.219  -3.974  1.00  0.00     0.016 A 
HETATM   26  C   UNL     1      46.095 -31.622  -5.316  1.00  0.00     0.037 A 
HETATM   27  C   UNL     1      45.058 -31.246  -6.168  1.00  0.00     0.068 A 
HETATM   28  C   UNL     1      44.011 -30.484  -5.660  1.00  0.00     0.037 A 
HETATM   29  C   UNL     1      44.020 -30.084  -4.316  1.00  0.00     0.016 A 
BRANCH  27  30
HETATM   30  O   UNL     1      45.185 -31.684  -7.457  1.00  0.00    -0.356 OA
HETATM   31  C   UNL     1      44.067 -31.480  -8.312  1.00  0.00     0.210 C 
ENDBRANCH  27  30
ENDBRANCH   9  24
TORSDOF 5
ENDMDL
MODEL 9
REMARK VINA RESULT:      -8.1      2.561      8.455
REMARK  5 active torsions:
REMARK  status: ('A' for Active; 'I' for Inactive)
REMARK    1  A    between atoms: C_2  and  C_3 
REMARK    2  A    between atoms: C_6  and  N_7 
REMARK       I    between atoms: N_7  and  C_8 
REMARK    3  A    between atoms: C_8  and  C_9 
REMARK    4  A    between atoms: C_17  and  C_18 
REMARK    5  A    between atoms: C_21  and  O_22 
ROOT
HETATM    1  C   UNL     1      42.407 -12.717   3.425  1.00  0.00     0.047 A 
HETATM    2  C   UNL     1      42.721 -12.177   4.696  1.00  0.00     0.008 A 
HETATM    3  C   UNL     1      43.335 -13.061   5.599  1.00  0.00     0.068 A 
HETATM    4  C   UNL     1      43.710 -12.594   6.852  1.00  0.00     0.032 A 
HETATM    5  C   UNL     1      43.467 -11.281   7.257  1.00  0.00     0.002 A 
HETATM    6  C   UNL     1      42.817 -10.409   6.398  1.00  0.00     0.001 A 
HETATM    7  C   UNL     1      42.439 -10.852   5.132  1.00  0.00     0.015 A 
HETATM    8  N   UNL     1      43.561 -14.353   5.320  1.00  0.00    -0.248 NA
HETATM    9  C   UNL     1      43.162 -14.877   4.134  1.00  0.00     0.068 A 
HETATM   10  C   UNL     1      42.608 -14.073   3.152  1.00  0.00     0.050 A 
ENDROOT
BRANCH   1  11
HETATM   11  C   UNL     1      41.796 -11.916   2.331  1.00  0.00     0.257 C 
HETATM   12  N   UNL     1      40.571 -12.376   1.883  1.00  0.00    -0.323 N 
HETATM   13  H   UNL     1      40.164 -13.157   2.386  1.00  0.00     0.169 HD
HETATM   14  O   UNL     1      42.403 -10.927   1.940  1.00  0.00    -0.267 OA
BRANCH  12  15
HETATM   15  C   UNL     1      39.883 -11.960   0.723  1.00  0.00     0.035 A 
HETATM   16  C   UNL     1      40.354 -12.160  -0.575  1.00  0.00     0.030 A 
HETATM   17  C   UNL     1      39.570 -11.802  -1.678  1.00  0.00     0.017 A 
HETATM   18  C   UNL     1      38.296 -11.258  -1.494  1.00  0.00     0.009 A 
HETATM   19  C   UNL     1      37.833 -11.019  -0.198  1.00  0.00     0.017 A 
HETATM   20  C   UNL     1      38.629 -11.362   0.903  1.00  0.00     0.030 A 
BRANCH  18  21
HETATM   21  C   UNL     1      37.467 -10.962  -2.695  1.00  0.00     0.155 C 
HETATM   22  C   UNL     1      37.883  -9.829  -3.596  1.00  0.00     0.096 C 
HETATM   23  O   UNL     1      36.463 -11.632  -2.924  1.00  0.00    -0.293 OA
ENDBRANCH  18  21
ENDBRANCH  12  15
ENDBRANCH   1  11
BRANCH   9  24
HETATM   24  C   UNL     1      43.323 -16.341   3.999  1.00  0.00    -0.007 A 
HETATM   25  C   UNL     1      43.770 -17.148   5.059  1.00  0.00     0.016 A 
HETATM   26  C   UNL     1      43.972 -18.524   4.892  1.00  0.00     0.037 A 
HETATM   27  C   UNL     1      43.744 -19.135   3.659  1.00  0.00     0.068 A 
HETATM   28  C   UNL     1      43.284 -18.360   2.599  1.00  0.00     0.037 A 
HETATM   29  C   UNL     1      43.080 -16.984   2.770  1.00  0.00     0.016 A 
BRANCH  27  30
HETATM   30  O   UNL     1      44.004 -20.476   3.624  1.00  0.00    -0.356 OA
HETATM   31  C   UNL     1      43.990 -21.160   4.871  1.00  0.00     0.210 C 
ENDBRANCH  27  30
ENDBRANCH   9  24
TORSDOF 5
ENDMDL
MODEL 10
REMARK VINA RESULT:      -8.0      4.049      8.780
REMARK  5 active torsions:
REMARK  status: ('A' for Active; 'I' for Inactive)
REMARK    1  A    between atoms: C_2  and  C_3 
REMARK    2  A    between atoms: C_6  and  N_7 
REMARK       I    between atoms: N_7  and  C_8 
REMARK    3  A    between atoms: C_8  and  C_9 
REMARK    4  A    between atoms: C_17  and  C_18 
REMARK    5  A    between atoms: C_21  and  O_22 
ROOT
HETATM    1  C   UNL     1      40.803 -13.492   2.105  1.00  0.00     0.047 A 
HETATM    2  C   UNL     1      40.345 -12.815   3.263  1.00  0.00     0.008 A 
HETATM    3  C   UNL     1      40.826 -13.308   4.487  1.00  0.00     0.068 A 
HETATM    4  C   UNL     1      40.453 -12.672   5.664  1.00  0.00     0.032 A 
HETATM    5  C   UNL     1      39.588 -11.577   5.674  1.00  0.00     0.002 A 
HETATM    6  C   UNL     1      39.065 -11.108   4.479  1.00  0.00     0.001 A 
HETATM    7  C   UNL     1      39.431 -11.725   3.285  1.00  0.00     0.015 A 
HETATM    8  N   UNL     1      41.617 -14.387   4.583  1.00  0.00    -0.248 NA
HETATM    9  C   UNL     1      41.963 -15.082   3.470  1.00  0.00     0.068 A 
HETATM   10  C   UNL     1      41.595 -14.638   2.212  1.00  0.00     0.050 A 
ENDROOT
BRANCH   1  11
HETATM   11  C   UNL     1      40.433 -13.080   0.725  1.00  0.00     0.257 C 
HETATM   12  N   UNL     1      41.196 -12.056   0.196  1.00  0.00    -0.323 N 
HETATM   13  H   UNL     1      41.981 -11.736   0.752  1.00  0.00     0.169 HD
HETATM   14  O   UNL     1      39.517 -13.681   0.177  1.00  0.00    -0.267 OA
BRANCH  12  15
HETATM   15  C   UNL     1      40.928 -11.319  -0.978  1.00  0.00     0.035 A 
HETATM   16  C   UNL     1      41.261 -11.750  -2.262  1.00  0.00     0.030 A 
HETATM   17  C   UNL     1      40.878 -11.006  -3.383  1.00  0.00     0.017 A 
HETATM   18  C   UNL     1      40.138  -9.830  -3.232  1.00  0.00     0.009 A 
HETATM   19  C   UNL     1      39.834  -9.371  -1.948  1.00  0.00     0.017 A 
HETATM   20  C   UNL     1      40.235 -10.110  -0.828  1.00  0.00     0.030 A 
BRANCH  18  21
HETATM   21  C   UNL     1      39.688  -9.109  -4.455  1.00  0.00     0.155 C 
HETATM   22  C   UNL     1      38.211  -9.031  -4.742  1.00  0.00     0.096 C 
HETATM   23  O   UNL     1      40.518  -8.605  -5.208  1.00  0.00    -0.293 OA
ENDBRANCH  18  21
ENDBRANCH  12  15
ENDBRANCH   1  11
BRANCH   9  24
HETATM   24  C   UNL     1      42.708 -16.337   3.711  1.00  0.00    -0.007 A 
HETATM   25  C   UNL     1      42.952 -17.273   2.691  1.00  0.00     0.016 A 
HETATM   26  C   UNL     1      43.608 -18.482   2.955  1.00  0.00     0.037 A 
HETATM   27  C   UNL     1      44.030 -18.800   4.246  1.00  0.00     0.068 A 
HETATM   28  C   UNL     1      43.815 -17.882   5.269  1.00  0.00     0.037 A 
HETATM   29  C   UNL     1      43.161 -16.671   5.002  1.00  0.00     0.016 A 
BRANCH  27  30
HETATM   30  O   UNL     1      44.632 -20.020   4.370  1.00  0.00    -0.356 OA
HETATM   31  C   UNL     1      44.094 -20.900   5.350  1.00  0.00     0.210 C 
ENDBRANCH  27  30
ENDBRANCH   9  24
TORSDOF 5
ENDMDL
