MODEL 1
REMARK VINA RESULT:      -7.6      0.000      0.000
REMARK  5 active torsions:
REMARK  status: ('A' for Active; 'I' for Inactive)
REMARK    1  A    between atoms: O_2  and  C_3 
REMARK    2  A    between atoms: C_4  and  C_5 
REMARK       I    between atoms: C_5  and  N_6 
REMARK    3  A    between atoms: N_6  and  C_7 
REMARK    4  A    between atoms: C_7  and  C_8 
REMARK    5  A    between atoms: C_8  and  C_9 
ROOT
HETATM    1  C   UNL     1      40.612 -13.950   5.616  1.00  0.00     0.256 C 
HETATM    2  N   UNL     1      41.976 -14.153   5.646  1.00  0.00    -0.356 N 
HETATM    3  O   UNL     1      39.848 -14.368   6.477  1.00  0.00    -0.268 OA
HETATM    4  H   UNL     1      42.543 -13.892   4.849  1.00  0.00     0.162 HD
ENDROOT
BRANCH   2   5
HETATM    5  C   UNL     1      42.597 -14.952   6.688  1.00  0.00     0.130 C 
BRANCH   5   6
HETATM    6  C   UNL     1      43.974 -15.478   6.283  1.00  0.00     0.098 C 
BRANCH   6   7
HETATM    7  C   UNL     1      43.848 -16.619   5.337  1.00  0.00     0.106 A 
HETATM    8  N   UNL     1      43.467 -16.555   4.078  1.00  0.00    -0.233 NA
HETATM    9  C   UNL     1      43.504 -17.848   3.616  1.00  0.00     0.085 A 
HETATM   10  C   UNL     1      43.928 -18.720   4.612  1.00  0.00     0.062 A 
HETATM   11  C   UNL     1      43.189 -18.356   2.347  1.00  0.00     0.034 A 
HETATM   12  N   UNL     1      44.140 -17.912   5.700  1.00  0.00    -0.343 N 
HETATM   13  C   UNL     1      44.062 -20.096   4.419  1.00  0.00     0.032 A 
HETATM   14  H   UNL     1      44.455 -18.212   6.612  1.00  0.00     0.167 HD
HETATM   15  C   UNL     1      43.743 -20.586   3.147  1.00  0.00     0.002 A 
HETATM   16  C   UNL     1      43.313 -19.734   2.127  1.00  0.00     0.002 A 
ENDBRANCH   6   7
ENDBRANCH   5   6
ENDBRANCH   2   5
BRANCH   1  17
HETATM   17  C   UNL     1      40.104 -13.164   4.468  1.00  0.00     0.088 A 
HETATM   18  C   UNL     1      40.306 -13.644   3.161  1.00  0.00     0.107 A 
HETATM   19  C   UNL     1      39.878 -12.883   2.063  1.00  0.00     0.068 A 
HETATM   20  C   UNL     1      39.222 -11.668   2.261  1.00  0.00     0.028 A 
HETATM   21 CL   UNL     1      40.131 -13.416   0.440  1.00  0.00    -0.081 Cl
HETATM   22  C   UNL     1      39.009 -11.195   3.556  1.00  0.00     0.027 A 
HETATM   23  C   UNL     1      39.454 -11.933   4.658  1.00  0.00     0.052 A 
HETATM   24 CL   UNL     1      39.192 -11.236   6.219  1.00  0.00    -0.083 Cl
BRANCH  18  25
HETATM   25  O   UNL     1      40.979 -14.818   2.924  1.00  0.00    -0.353 OA
HETATM   26  C   UNL     1      40.077 -15.915   2.774  1.00  0.00     0.210 C 
ENDBRANCH  18  25
ENDBRANCH   1  17
TORSDOF 5
ENDMDL
MODEL 2
REMARK VINA RESULT:      -7.5      1.415      2.504
REMARK  5 active torsions:
REMARK  status: ('A' for Active; 'I' for Inactive)
REMARK    1  A    between atoms: O_2  and  C_3 
REMARK    2  A    between atoms: C_4  and  C_5 
REMARK       I    between atoms: C_5  and  N_6 
REMARK    3  A    between atoms: N_6  and  C_7 
REMARK    4  A    between atoms: C_7  and  C_8 
REMARK    5  A    between atoms: C_8  and  C_9 
ROOT
HETATM    1  C   UNL     1      40.891 -15.185   5.205  1.00  0.00     0.256 C 
HETATM    2  N   UNL     1      41.976 -14.695   5.900  1.00  0.00    -0.356 N 
HETATM    3  O   UNL     1      40.321 -16.230   5.494  1.00  0.00    -0.268 OA
HETATM    4  H   UNL     1      42.483 -13.893   5.545  1.00  0.00     0.162 HD
ENDROOT
BRANCH   2   5
HETATM    5  C   UNL     1      42.567 -15.438   6.999  1.00  0.00     0.130 C 
BRANCH   5   6
HETATM    6  C   UNL     1      43.977 -15.937   6.681  1.00  0.00     0.098 C 
BRANCH   6   7
HETATM    7  C   UNL     1      43.933 -17.073   5.721  1.00  0.00     0.106 A 
HETATM    8  N   UNL     1      43.862 -16.988   4.409  1.00  0.00    -0.233 NA
HETATM    9  C   UNL     1      43.846 -18.284   3.957  1.00  0.00     0.085 A 
HETATM   10  C   UNL     1      43.920 -19.182   5.016  1.00  0.00     0.062 A 
HETATM   11  C   UNL     1      43.771 -18.776   2.645  1.00  0.00     0.034 A 
HETATM   12  N   UNL     1      43.974 -18.384   6.130  1.00  0.00    -0.343 N 
HETATM   13  C   UNL     1      43.926 -20.568   4.847  1.00  0.00     0.032 A 
HETATM   14  H   UNL     1      44.033 -18.703   7.087  1.00  0.00     0.167 HD
HETATM   15  C   UNL     1      43.850 -21.040   3.531  1.00  0.00     0.002 A 
HETATM   16  C   UNL     1      43.773 -20.162   2.446  1.00  0.00     0.002 A 
ENDBRANCH   6   7
ENDBRANCH   5   6
ENDBRANCH   2   5
BRANCH   1  17
HETATM   17  C   UNL     1      40.424 -14.354   4.072  1.00  0.00     0.088 A 
HETATM   18  C   UNL     1      39.870 -13.086   4.331  1.00  0.00     0.107 A 
HETATM   19  C   UNL     1      39.374 -12.311   3.272  1.00  0.00     0.068 A 
HETATM   20  C   UNL     1      39.457 -12.775   1.960  1.00  0.00     0.028 A 
HETATM   21 CL   UNL     1      38.658 -10.763   3.544  1.00  0.00    -0.081 Cl
HETATM   22  C   UNL     1      40.017 -14.026   1.699  1.00  0.00     0.027 A 
HETATM   23  C   UNL     1      40.492 -14.819   2.749  1.00  0.00     0.052 A 
HETATM   24 CL   UNL     1      41.117 -16.376   2.328  1.00  0.00    -0.083 Cl
BRANCH  18  25
HETATM   25  O   UNL     1      39.738 -12.609   5.613  1.00  0.00    -0.353 OA
HETATM   26  C   UNL     1      40.699 -11.591   5.892  1.00  0.00     0.210 C 
ENDBRANCH  18  25
ENDBRANCH   1  17
TORSDOF 5
ENDMDL
MODEL 3
REMARK VINA RESULT:      -7.4      3.676      4.951
REMARK  5 active torsions:
REMARK  status: ('A' for Active; 'I' for Inactive)
REMARK    1  A    between atoms: O_2  and  C_3 
REMARK    2  A    between atoms: C_4  and  C_5 
REMARK       I    between atoms: C_5  and  N_6 
REMARK    3  A    between atoms: N_6  and  C_7 
REMARK    4  A    between atoms: C_7  and  C_8 
REMARK    5  A    between atoms: C_8  and  C_9 
ROOT
HETATM    1  C   UNL     1      43.016 -11.769   6.191  1.00  0.00     0.256 C 
HETATM    2  N   UNL     1      42.650 -13.040   6.582  1.00  0.00    -0.356 N 
HETATM    3  O   UNL     1      43.389 -11.494   5.057  1.00  0.00    -0.268 OA
HETATM    4  H   UNL     1      42.468 -13.235   7.559  1.00  0.00     0.162 HD
ENDROOT
BRANCH   2   5
HETATM    5  C   UNL     1      42.753 -14.168   5.674  1.00  0.00     0.130 C 
BRANCH   5   6
HETATM    6  C   UNL     1      43.770 -15.210   6.142  1.00  0.00     0.098 C 
BRANCH   6   7
HETATM    7  C   UNL     1      43.719 -16.424   5.285  1.00  0.00     0.106 A 
HETATM    8  N   UNL     1      43.361 -16.475   4.018  1.00  0.00    -0.233 NA
HETATM    9  C   UNL     1      43.470 -17.796   3.658  1.00  0.00     0.085 A 
HETATM   10  C   UNL     1      43.915 -18.567   4.725  1.00  0.00     0.062 A 
HETATM   11  C   UNL     1      43.206 -18.414   2.427  1.00  0.00     0.034 A 
HETATM   12  N   UNL     1      44.065 -17.670   5.751  1.00  0.00    -0.343 N 
HETATM   13  C   UNL     1      44.119 -19.946   4.641  1.00  0.00     0.032 A 
HETATM   14  H   UNL     1      44.376 -17.884   6.688  1.00  0.00     0.167 HD
HETATM   15  C   UNL     1      43.850 -20.546   3.405  1.00  0.00     0.002 A 
HETATM   16  C   UNL     1      43.401 -19.797   2.315  1.00  0.00     0.002 A 
ENDBRANCH   6   7
ENDBRANCH   5   6
ENDBRANCH   2   5
BRANCH   1  17
HETATM   17  C   UNL     1      42.914 -10.721   7.232  1.00  0.00     0.088 A 
HETATM   18  C   UNL     1      43.945 -10.591   8.181  1.00  0.00     0.107 A 
HETATM   19  C   UNL     1      43.836  -9.639   9.205  1.00  0.00     0.068 A 
HETATM   20  C   UNL     1      42.727  -8.795   9.267  1.00  0.00     0.028 A 
HETATM   21 CL   UNL     1      45.061  -9.463  10.410  1.00  0.00    -0.081 Cl
HETATM   22  C   UNL     1      41.710  -8.913   8.320  1.00  0.00     0.027 A 
HETATM   23  C   UNL     1      41.795  -9.876   7.309  1.00  0.00     0.052 A 
HETATM   24 CL   UNL     1      40.457  -9.980   6.218  1.00  0.00    -0.083 Cl
BRANCH  18  25
HETATM   25  O   UNL     1      45.036 -11.427   8.174  1.00  0.00    -0.353 OA
HETATM   26  C   UNL     1      46.121 -10.860   7.439  1.00  0.00     0.210 C 
ENDBRANCH  18  25
ENDBRANCH   1  17
TORSDOF 5
ENDMDL
MODEL 4
REMARK VINA RESULT:      -7.4      3.402      6.584
REMARK  5 active torsions:
REMARK  status: ('A' for Active; 'I' for Inactive)
REMARK    1  A    between atoms: O_2  and  C_3 
REMARK    2  A    between atoms: C_4  and  C_5 
REMARK       I    between atoms: C_5  and  N_6 
REMARK    3  A    between atoms: N_6  and  C_7 
REMARK    4  A    between atoms: C_7  and  C_8 
REMARK    5  A    between atoms: C_8  and  C_9 
ROOT
HETATM    1  C   UNL     1      40.807 -14.953   6.037  1.00  0.00     0.256 C 
HETATM    2  N   UNL     1      40.897 -13.651   5.594  1.00  0.00    -0.356 N 
HETATM    3  O   UNL     1      39.875 -15.373   6.713  1.00  0.00    -0.268 OA
HETATM    4  H   UNL     1      41.745 -13.328   5.145  1.00  0.00     0.162 HD
ENDROOT
BRANCH   2   5
HETATM    5  C   UNL     1      39.905 -12.657   5.966  1.00  0.00     0.130 C 
BRANCH   5   6
HETATM    6  C   UNL     1      40.408 -11.225   5.774  1.00  0.00     0.098 C 
BRANCH   6   7
HETATM    7  C   UNL     1      41.800 -11.080   6.276  1.00  0.00     0.106 A 
HETATM    8  N   UNL     1      42.902 -11.424   5.642  1.00  0.00    -0.233 NA
HETATM    9  C   UNL     1      43.931 -11.105   6.494  1.00  0.00     0.085 A 
HETATM   10  C   UNL     1      43.448 -10.543   7.670  1.00  0.00     0.062 A 
HETATM   11  C   UNL     1      45.315 -11.266   6.328  1.00  0.00     0.034 A 
HETATM   12  N   UNL     1      42.086 -10.539   7.507  1.00  0.00    -0.343 N 
HETATM   13  C   UNL     1      44.274 -10.119   8.713  1.00  0.00     0.032 A 
HETATM   14  H   UNL     1      41.408 -10.199   8.174  1.00  0.00     0.167 HD
HETATM   15  C   UNL     1      45.652 -10.288   8.530  1.00  0.00     0.002 A 
HETATM   16  C   UNL     1      46.167 -10.851   7.360  1.00  0.00     0.002 A 
ENDBRANCH   6   7
ENDBRANCH   5   6
ENDBRANCH   2   5
BRANCH   1  17
HETATM   17  C   UNL     1      41.913 -15.850   5.630  1.00  0.00     0.088 A 
HETATM   18  C   UNL     1      41.903 -16.414   4.341  1.00  0.00     0.107 A 
HETATM   19  C   UNL     1      42.916 -17.307   3.962  1.00  0.00     0.068 A 
HETATM   20  C   UNL     1      43.953 -17.613   4.843  1.00  0.00     0.028 A 
HETATM   21 CL   UNL     1      42.930 -18.049   2.402  1.00  0.00    -0.081 Cl
HETATM   22  C   UNL     1      43.973 -17.044   6.117  1.00  0.00     0.027 A 
HETATM   23  C   UNL     1      42.954 -16.172   6.516  1.00  0.00     0.052 A 
HETATM   24 CL   UNL     1      43.038 -15.564   8.133  1.00  0.00    -0.083 Cl
BRANCH  18  25
HETATM   25  O   UNL     1      40.881 -16.166   3.457  1.00  0.00    -0.353 OA
HETATM   26  C   UNL     1      41.265 -15.207   2.471  1.00  0.00     0.210 C 
ENDBRANCH  18  25
ENDBRANCH   1  17
TORSDOF 5
ENDMDL
MODEL 5
REMARK VINA RESULT:      -7.4      3.648      7.189
REMARK  5 active torsions:
REMARK  status: ('A' for Active; 'I' for Inactive)
REMARK    1  A    between atoms: O_2  and  C_3 
REMARK    2  A    between atoms: C_4  and  C_5 
REMARK       I    between atoms: C_5  and  N_6 
REMARK    3  A    between atoms: N_6  and  C_7 
REMARK    4  A    between atoms: C_7  and  C_8 
REMARK    5  A    between atoms: C_8  and  C_9 
ROOT
HETATM    1  C   UNL     1      41.594 -15.263   3.864  1.00  0.00     0.256 C 
HETATM    2  N   UNL     1      42.113 -14.065   4.306  1.00  0.00    -0.356 N 
HETATM    3  O   UNL     1      40.509 -15.363   3.304  1.00  0.00    -0.268 OA
HETATM    4  H   UNL     1      42.955 -14.056   4.869  1.00  0.00     0.162 HD
ENDROOT
BRANCH   2   5
HETATM    5  C   UNL     1      41.358 -12.828   4.196  1.00  0.00     0.130 C 
BRANCH   5   6
HETATM    6  C   UNL     1      41.075 -12.190   5.556  1.00  0.00     0.098 C 
BRANCH   6   7
HETATM    7  C   UNL     1      42.330 -11.695   6.181  1.00  0.00     0.106 A 
HETATM    8  N   UNL     1      43.559 -11.953   5.783  1.00  0.00    -0.233 NA
HETATM    9  C   UNL     1      44.378 -11.285   6.661  1.00  0.00     0.085 A 
HETATM   10  C   UNL     1      43.633 -10.595   7.609  1.00  0.00     0.062 A 
HETATM   11  C   UNL     1      45.778 -11.221   6.708  1.00  0.00     0.034 A 
HETATM   12  N   UNL     1      42.330 -10.872   7.282  1.00  0.00    -0.343 N 
HETATM   13  C   UNL     1      44.207  -9.826   8.623  1.00  0.00     0.032 A 
HETATM   14  H   UNL     1      41.510 -10.534   7.766  1.00  0.00     0.167 HD
HETATM   15  C   UNL     1      45.606  -9.773   8.656  1.00  0.00     0.002 A 
HETATM   16  C   UNL     1      46.381 -10.458   7.716  1.00  0.00     0.002 A 
ENDBRANCH   6   7
ENDBRANCH   5   6
ENDBRANCH   2   5
BRANCH   1  17
HETATM   17  C   UNL     1      42.445 -16.454   4.087  1.00  0.00     0.088 A 
HETATM   18  C   UNL     1      42.492 -17.036   5.367  1.00  0.00     0.107 A 
HETATM   19  C   UNL     1      43.336 -18.131   5.606  1.00  0.00     0.068 A 
HETATM   20  C   UNL     1      44.102 -18.669   4.572  1.00  0.00     0.028 A 
HETATM   21 CL   UNL     1      43.450 -18.860   7.168  1.00  0.00    -0.081 Cl
HETATM   22  C   UNL     1      44.048 -18.103   3.299  1.00  0.00     0.027 A 
HETATM   23  C   UNL     1      43.230 -16.994   3.055  1.00  0.00     0.052 A 
HETATM   24 CL   UNL     1      43.274 -16.329   1.458  1.00  0.00    -0.083 Cl
BRANCH  18  25
HETATM   25  O   UNL     1      41.779 -16.514   6.420  1.00  0.00    -0.353 OA
HETATM   26  C   UNL     1      42.610 -15.725   7.272  1.00  0.00     0.210 C 
ENDBRANCH  18  25
ENDBRANCH   1  17
TORSDOF 5
ENDMDL
MODEL 6
REMARK VINA RESULT:      -7.3      2.333      3.809
REMARK  5 active torsions:
REMARK  status: ('A' for Active; 'I' for Inactive)
REMARK    1  A    between atoms: O_2  and  C_3 
REMARK    2  A    between atoms: C_4  and  C_5 
REMARK       I    between atoms: C_5  and  N_6 
REMARK    3  A    between atoms: N_6  and  C_7 
REMARK    4  A    between atoms: C_7  and  C_8 
REMARK    5  A    between atoms: C_8  and  C_9 
ROOT
HETATM    1  C   UNL     1      40.758 -14.304   0.832  1.00  0.00     0.256 C 
HETATM    2  N   UNL     1      42.019 -13.844   1.147  1.00  0.00    -0.356 N 
HETATM    3  O   UNL     1      40.430 -15.482   0.909  1.00  0.00    -0.268 OA
HETATM    4  H   UNL     1      42.271 -12.883   0.949  1.00  0.00     0.162 HD
ENDROOT
BRANCH   2   5
HETATM    5  C   UNL     1      43.081 -14.757   1.533  1.00  0.00     0.130 C 
BRANCH   5   6
HETATM    6  C   UNL     1      43.064 -15.080   3.028  1.00  0.00     0.098 C 
BRANCH   6   7
HETATM    7  C   UNL     1      43.291 -16.532   3.259  1.00  0.00     0.106 A 
HETATM    8  N   UNL     1      43.250 -17.486   2.352  1.00  0.00    -0.233 NA
HETATM    9  C   UNL     1      43.519 -18.650   3.030  1.00  0.00     0.085 A 
HETATM   10  C   UNL     1      43.740 -18.399   4.379  1.00  0.00     0.062 A 
HETATM   11  C   UNL     1      43.594 -19.967   2.555  1.00  0.00     0.034 A 
HETATM   12  N   UNL     1      43.589 -17.042   4.500  1.00  0.00    -0.343 N 
HETATM   13  C   UNL     1      44.040 -19.401   5.305  1.00  0.00     0.032 A 
HETATM   14  H   UNL     1      43.677 -16.507   5.352  1.00  0.00     0.167 HD
HETATM   15  C   UNL     1      44.110 -20.710   4.813  1.00  0.00     0.002 A 
HETATM   16  C   UNL     1      43.891 -20.992   3.462  1.00  0.00     0.002 A 
ENDBRANCH   6   7
ENDBRANCH   5   6
ENDBRANCH   2   5
BRANCH   1  17
HETATM   17  C   UNL     1      39.786 -13.272   0.401  1.00  0.00     0.088 A 
HETATM   18  C   UNL     1      39.481 -12.209   1.270  1.00  0.00     0.107 A 
HETATM   19  C   UNL     1      38.522 -11.255   0.897  1.00  0.00     0.068 A 
HETATM   20  C   UNL     1      37.895 -11.336  -0.346  1.00  0.00     0.028 A 
HETATM   21 CL   UNL     1      38.092  -9.949   1.942  1.00  0.00    -0.081 Cl
HETATM   22  C   UNL     1      38.205 -12.381  -1.215  1.00  0.00     0.027 A 
HETATM   23  C   UNL     1      39.141 -13.353  -0.844  1.00  0.00     0.052 A 
HETATM   24 CL   UNL     1      39.415 -14.640  -1.967  1.00  0.00    -0.083 Cl
BRANCH  18  25
HETATM   25  O   UNL     1      40.051 -12.114   2.517  1.00  0.00    -0.353 OA
HETATM   26  C   UNL     1      39.281 -12.812   3.496  1.00  0.00     0.210 C 
ENDBRANCH  18  25
ENDBRANCH   1  17
TORSDOF 5
ENDMDL
MODEL 7
REMARK VINA RESULT:      -7.2      4.599      7.925
REMARK  5 active torsions:
REMARK  status: ('A' for Active; 'I' for Inactive)
REMARK    1  A    between atoms: O_2  and  C_3 
REMARK    2  A    between atoms: C_4  and  C_5 
REMARK       I    between atoms: C_5  and  N_6 
REMARK    3  A    between atoms: N_6  and  C_7 
REMARK    4  A    between atoms: C_7  and  C_8 
REMARK    5  A    between atoms: C_8  and  C_9 
ROOT
HETATM    1  C   UNL     1      42.475 -14.292   4.798  1.00  0.00     0.256 C 
HETATM    2  N   UNL     1      43.545 -13.522   5.201  1.00  0.00    -0.356 N 
HETATM    3  O   UNL     1      41.308 -14.002   5.032  1.00  0.00    -0.268 OA
HETATM    4  H   UNL     1      44.489 -13.869   5.087  1.00  0.00     0.162 HD
ENDROOT
BRANCH   2   5
HETATM    5  C   UNL     1      43.354 -12.328   6.006  1.00  0.00     0.130 C 
BRANCH   5   6
HETATM    6  C   UNL     1      44.597 -11.963   6.819  1.00  0.00     0.098 C 
BRANCH   6   7
HETATM    7  C   UNL     1      44.236 -11.115   7.987  1.00  0.00     0.106 A 
HETATM    8  N   UNL     1      45.007 -10.828   9.016  1.00  0.00    -0.233 NA
HETATM    9  C   UNL     1      44.248 -10.024   9.830  1.00  0.00     0.085 A 
HETATM   10  C   UNL     1      42.989  -9.806   9.282  1.00  0.00     0.062 A 
HETATM   11  C   UNL     1      44.571  -9.436  11.063  1.00  0.00     0.034 A 
HETATM   12  N   UNL     1      43.006 -10.513   8.107  1.00  0.00    -0.343 N 
HETATM   13  C   UNL     1      42.012  -9.020   9.896  1.00  0.00     0.032 A 
HETATM   14  H   UNL     1      42.248 -10.582   7.443  1.00  0.00     0.167 HD
HETATM   15  C   UNL     1      42.351  -8.442  11.125  1.00  0.00     0.002 A 
HETATM   16  C   UNL     1      43.608  -8.645  11.702  1.00  0.00     0.002 A 
ENDBRANCH   6   7
ENDBRANCH   5   6
ENDBRANCH   2   5
BRANCH   1  17
HETATM   17  C   UNL     1      42.814 -15.512   4.029  1.00  0.00     0.088 A 
HETATM   18  C   UNL     1      43.177 -16.682   4.721  1.00  0.00     0.107 A 
HETATM   19  C   UNL     1      43.553 -17.828   4.005  1.00  0.00     0.068 A 
HETATM   20  C   UNL     1      43.535 -17.825   2.610  1.00  0.00     0.028 A 
HETATM   21 CL   UNL     1      44.035 -19.279   4.808  1.00  0.00    -0.081 Cl
HETATM   22  C   UNL     1      43.163 -16.671   1.922  1.00  0.00     0.027 A 
HETATM   23  C   UNL     1      42.811 -15.513   2.625  1.00  0.00     0.052 A 
HETATM   24 CL   UNL     1      42.419 -14.117   1.681  1.00  0.00    -0.083 Cl
BRANCH  18  25
HETATM   25  O   UNL     1      43.241 -16.715   6.093  1.00  0.00    -0.353 OA
HETATM   26  C   UNL     1      44.575 -16.509   6.558  1.00  0.00     0.210 C 
ENDBRANCH  18  25
ENDBRANCH   1  17
TORSDOF 5
ENDMDL
MODEL 8
REMARK VINA RESULT:      -7.2      3.397      6.598
REMARK  5 active torsions:
REMARK  status: ('A' for Active; 'I' for Inactive)
REMARK    1  A    between atoms: O_2  and  C_3 
REMARK    2  A    between atoms: C_4  and  C_5 
REMARK       I    between atoms: C_5  and  N_6 
REMARK    3  A    between atoms: N_6  and  C_7 
REMARK    4  A    between atoms: C_7  and  C_8 
REMARK    5  A    between atoms: C_8  and  C_9 
ROOT
HETATM    1  C   UNL     1      42.359 -14.411   4.549  1.00  0.00     0.256 C 
HETATM    2  N   UNL     1      41.055 -14.337   4.107  1.00  0.00    -0.356 N 
HETATM    3  O   UNL     1      43.031 -13.428   4.836  1.00  0.00    -0.268 OA
HETATM    4  H   UNL     1      40.588 -15.169   3.769  1.00  0.00     0.162 HD
ENDROOT
BRANCH   2   5
HETATM    5  C   UNL     1      40.405 -13.057   3.885  1.00  0.00     0.130 C 
BRANCH   5   6
HETATM    6  C   UNL     1      39.219 -13.159   2.925  1.00  0.00     0.098 C 
BRANCH   6   7
HETATM    7  C   UNL     1      39.664 -12.999   1.514  1.00  0.00     0.106 A 
HETATM    8  N   UNL     1      40.313 -11.971   1.009  1.00  0.00    -0.233 NA
HETATM    9  C   UNL     1      40.503 -12.271  -0.318  1.00  0.00     0.085 A 
HETATM   10  C   UNL     1      39.967 -13.516  -0.627  1.00  0.00     0.062 A 
HETATM   11  C   UNL     1      41.130 -11.524  -1.326  1.00  0.00     0.034 A 
HETATM   12  N   UNL     1      39.437 -13.959   0.557  1.00  0.00    -0.343 N 
HETATM   13  C   UNL     1      40.020 -14.076  -1.905  1.00  0.00     0.032 A 
HETATM   14  H   UNL     1      38.961 -14.838   0.704  1.00  0.00     0.167 HD
HETATM   15  C   UNL     1      40.649 -13.317  -2.898  1.00  0.00     0.002 A 
HETATM   16  C   UNL     1      41.196 -12.062  -2.617  1.00  0.00     0.002 A 
ENDBRANCH   6   7
ENDBRANCH   5   6
ENDBRANCH   2   5
BRANCH   1  17
HETATM   17  C   UNL     1      42.917 -15.777   4.681  1.00  0.00     0.088 A 
HETATM   18  C   UNL     1      42.957 -16.615   3.552  1.00  0.00     0.107 A 
HETATM   19  C   UNL     1      43.433 -17.929   3.674  1.00  0.00     0.068 A 
HETATM   20  C   UNL     1      43.899 -18.398   4.902  1.00  0.00     0.028 A 
HETATM   21 CL   UNL     1      43.473 -19.006   2.324  1.00  0.00    -0.081 Cl
HETATM   22  C   UNL     1      43.873 -17.565   6.020  1.00  0.00     0.027 A 
HETATM   23  C   UNL     1      43.377 -16.261   5.916  1.00  0.00     0.052 A 
HETATM   24 CL   UNL     1      43.334 -15.325   7.371  1.00  0.00    -0.083 Cl
BRANCH  18  25
HETATM   25  O   UNL     1      42.475 -16.203   2.333  1.00  0.00    -0.353 OA
HETATM   26  C   UNL     1      43.497 -15.587   1.549  1.00  0.00     0.210 C 
ENDBRANCH  18  25
ENDBRANCH   1  17
TORSDOF 5
ENDMDL
MODEL 9
REMARK VINA RESULT:      -7.1      4.181      5.883
REMARK  5 active torsions:
REMARK  status: ('A' for Active; 'I' for Inactive)
REMARK    1  A    between atoms: O_2  and  C_3 
REMARK    2  A    between atoms: C_4  and  C_5 
REMARK       I    between atoms: C_5  and  N_6 
REMARK    3  A    between atoms: N_6  and  C_7 
REMARK    4  A    between atoms: C_7  and  C_8 
REMARK    5  A    between atoms: C_8  and  C_9 
ROOT
HETATM    1  C   UNL     1      42.760 -10.972   6.428  1.00  0.00     0.256 C 
HETATM    2  N   UNL     1      42.070 -12.135   6.694  1.00  0.00    -0.356 N 
HETATM    3  O   UNL     1      42.617 -10.323   5.398  1.00  0.00    -0.268 OA
HETATM    4  H   UNL     1      42.315 -12.694   7.502  1.00  0.00     0.162 HD
ENDROOT
BRANCH   2   5
HETATM    5  C   UNL     1      41.161 -12.713   5.720  1.00  0.00     0.130 C 
BRANCH   5   6
HETATM    6  C   UNL     1      40.696 -14.117   6.111  1.00  0.00     0.098 C 
BRANCH   6   7
HETATM    7  C   UNL     1      41.379 -15.150   5.287  1.00  0.00     0.106 A 
HETATM    8  N   UNL     1      41.069 -15.502   4.056  1.00  0.00    -0.233 NA
HETATM    9  C   UNL     1      41.969 -16.482   3.717  1.00  0.00     0.085 A 
HETATM   10  C   UNL     1      42.856 -16.726   4.759  1.00  0.00     0.062 A 
HETATM   11  C   UNL     1      42.092 -17.213   2.525  1.00  0.00     0.034 A 
HETATM   12  N   UNL     1      42.459 -15.864   5.748  1.00  0.00    -0.343 N 
HETATM   13  C   UNL     1      43.882 -17.671   4.687  1.00  0.00     0.032 A 
HETATM   14  H   UNL     1      42.882 -15.770   6.661  1.00  0.00     0.167 HD
HETATM   15  C   UNL     1      43.989 -18.392   3.491  1.00  0.00     0.002 A 
HETATM   16  C   UNL     1      43.111 -18.170   2.427  1.00  0.00     0.002 A 
ENDBRANCH   6   7
ENDBRANCH   5   6
ENDBRANCH   2   5
BRANCH   1  17
HETATM   17  C   UNL     1      43.696 -10.522   7.484  1.00  0.00     0.088 A 
HETATM   18  C   UNL     1      43.189  -9.843   8.608  1.00  0.00     0.107 A 
HETATM   19  C   UNL     1      44.070  -9.364   9.589  1.00  0.00     0.068 A 
HETATM   20  C   UNL     1      45.442  -9.587   9.475  1.00  0.00     0.028 A 
HETATM   21 CL   UNL     1      43.499  -8.499  10.971  1.00  0.00    -0.081 Cl
HETATM   22  C   UNL     1      45.945 -10.272   8.369  1.00  0.00     0.027 A 
HETATM   23  C   UNL     1      45.079 -10.732   7.370  1.00  0.00     0.052 A 
HETATM   24 CL   UNL     1      45.806 -11.519   6.012  1.00  0.00    -0.083 Cl
BRANCH  18  25
HETATM   25  O   UNL     1      41.849  -9.572   8.740  1.00  0.00    -0.353 OA
HETATM   26  C   UNL     1      41.521  -8.289   8.207  1.00  0.00     0.210 C 
ENDBRANCH  18  25
ENDBRANCH   1  17
TORSDOF 5
ENDMDL
MODEL 10
REMARK VINA RESULT:      -7.1      3.934      6.063
REMARK  5 active torsions:
REMARK  status: ('A' for Active; 'I' for Inactive)
REMARK    1  A    between atoms: O_2  and  C_3 
REMARK    2  A    between atoms: C_4  and  C_5 
REMARK       I    between atoms: C_5  and  N_6 
REMARK    3  A    between atoms: N_6  and  C_7 
REMARK    4  A    between atoms: C_7  and  C_8 
REMARK    5  A    between atoms: C_8  and  C_9 
ROOT
HETATM    1  C   UNL     1      41.929 -10.600   6.242  1.00  0.00     0.256 C 
HETATM    2  N   UNL     1      41.080 -11.604   6.658  1.00  0.00    -0.356 N 
HETATM    3  O   UNL     1      41.572  -9.663   5.539  1.00  0.00    -0.268 OA
HETATM    4  H   UNL     1      41.453 -12.416   7.134  1.00  0.00     0.162 HD
ENDROOT
BRANCH   2   5
HETATM    5  C   UNL     1      39.696 -11.651   6.220  1.00  0.00     0.130 C 
BRANCH   5   6
HETATM    6  C   UNL     1      39.514 -12.450   4.929  1.00  0.00     0.098 C 
BRANCH   6   7
HETATM    7  C   UNL     1      40.430 -13.621   4.897  1.00  0.00     0.106 A 
HETATM    8  N   UNL     1      40.546 -14.552   5.822  1.00  0.00    -0.233 NA
HETATM    9  C   UNL     1      41.508 -15.415   5.356  1.00  0.00     0.085 A 
HETATM   10  C   UNL     1      41.982 -15.008   4.115  1.00  0.00     0.062 A 
HETATM   11  C   UNL     1      42.029 -16.577   5.944  1.00  0.00     0.034 A 
HETATM   12  N   UNL     1      41.280 -13.862   3.844  1.00  0.00    -0.343 N 
HETATM   13  C   UNL     1      42.964 -15.703   3.405  1.00  0.00     0.032 A 
HETATM   14  H   UNL     1      41.371 -13.290   3.016  1.00  0.00     0.167 HD
HETATM   15  C   UNL     1      43.473 -16.860   4.006  1.00  0.00     0.002 A 
HETATM   16  C   UNL     1      43.017 -17.293   5.254  1.00  0.00     0.002 A 
ENDBRANCH   6   7
ENDBRANCH   5   6
ENDBRANCH   2   5
BRANCH   1  17
HETATM   17  C   UNL     1      43.328 -10.703   6.717  1.00  0.00     0.088 A 
HETATM   18  C   UNL     1      43.650 -10.257   8.012  1.00  0.00     0.107 A 
HETATM   19  C   UNL     1      44.980 -10.299   8.455  1.00  0.00     0.068 A 
HETATM   20  C   UNL     1      45.982 -10.812   7.631  1.00  0.00     0.028 A 
HETATM   21 CL   UNL     1      45.429  -9.735  10.025  1.00  0.00    -0.081 Cl
HETATM   22  C   UNL     1      45.664 -11.266   6.351  1.00  0.00     0.027 A 
HETATM   23  C   UNL     1      44.344 -11.206   5.889  1.00  0.00     0.052 A 
HETATM   24 CL   UNL     1      44.061 -11.742   4.268  1.00  0.00    -0.083 Cl
BRANCH  18  25
HETATM   25  O   UNL     1      42.698  -9.713   8.841  1.00  0.00    -0.353 OA
HETATM   26  C   UNL     1      42.631  -8.294   8.697  1.00  0.00     0.210 C 
ENDBRANCH  18  25
ENDBRANCH   1  17
TORSDOF 5
ENDMDL
