MODEL 1
REMARK VINA RESULT:      -9.1      0.000      0.000
REMARK  8 active torsions:
REMARK  status: ('A' for Active; 'I' for Inactive)
REMARK    1  A    between atoms: C_3  and  S_4 
REMARK    2  A    between atoms: S_4  and  C_5 
REMARK    3  A    between atoms: C_5  and  C_6 
REMARK       I    between atoms: C_6  and  N_7 
REMARK    4  A    between atoms: N_7  and  C_8 
REMARK    5  A    between atoms: C_8  and  C_9 
REMARK    6  A    between atoms: C_9  and  C_10 
REMARK    7  A    between atoms: C_19  and  C_20 
REMARK    8  A    between atoms: C_25  and  O_26 
ROOT
HETATM    1  C   UNL     1      42.104  -9.171   7.654  1.00  0.00     0.160 C 
HETATM    2  N   UNL     1      43.166 -10.076   8.012  1.00  0.00    -0.310 N 
HETATM    3  C   UNL     1      43.874 -10.926   7.208  1.00  0.00     0.191 A 
HETATM    4  N   UNL     1      44.773 -11.565   7.920  1.00  0.00    -0.122 NA
HETATM    5  N   UNL     1      44.641 -11.165   9.222  1.00  0.00    -0.126 NA
HETATM    6  C   UNL     1      43.680 -10.261   9.276  1.00  0.00     0.188 A 
ENDROOT
BRANCH   3   7
HETATM    7  S   UNL     1      43.599 -11.142   5.516  1.00  0.00    -0.081 SA
BRANCH   7   8
HETATM    8  C   UNL     1      42.261 -12.369   5.519  1.00  0.00     0.185 C 
BRANCH   8   9
HETATM    9  C   UNL     1      42.785 -13.794   5.481  1.00  0.00     0.227 C 
HETATM   10  N   UNL     1      42.020 -14.678   4.757  1.00  0.00    -0.360 N 
HETATM   11  H   UNL     1      41.212 -14.321   4.246  1.00  0.00     0.162 HD
HETATM   12  O   UNL     1      43.791 -14.135   6.102  1.00  0.00    -0.273 OA
BRANCH  10  13
HETATM   13  C   UNL     1      42.284 -16.102   4.707  1.00  0.00     0.127 C 
BRANCH  13  14
HETATM   14  C   UNL     1      43.073 -16.473   3.450  1.00  0.00     0.058 C 
BRANCH  14  15
HETATM   15  C   UNL     1      43.364 -17.950   3.376  1.00  0.00    -0.057 A 
HETATM   16  C   UNL     1      43.069 -18.675   2.214  1.00  0.00     0.007 A 
HETATM   17  C   UNL     1      43.332 -20.044   2.151  1.00  0.00     0.001 A 
HETATM   18  C   UNL     1      43.883 -20.701   3.249  1.00  0.00     0.000 A 
HETATM   19  C   UNL     1      44.172 -19.991   4.413  1.00  0.00     0.001 A 
HETATM   20  C   UNL     1      43.912 -18.621   4.477  1.00  0.00     0.007 A 
ENDBRANCH  14  15
ENDBRANCH  13  14
ENDBRANCH  10  13
ENDBRANCH   8   9
ENDBRANCH   7   8
ENDBRANCH   3   7
BRANCH   6  21
HETATM   21  C   UNL     1      43.266  -9.605  10.477  1.00  0.00     0.125 A 
HETATM   22  O   UNL     1      42.007  -9.715  11.007  1.00  0.00    -0.303 OA
HETATM   23  C   UNL     1      41.953  -8.951  12.136  1.00  0.00     0.119 A 
HETATM   24  C   UNL     1      43.186  -8.349  12.355  1.00  0.00     0.003 A 
HETATM   25  C   UNL     1      40.830  -8.785  12.956  1.00  0.00     0.102 A 
HETATM   26  C   UNL     1      44.017  -8.769  11.286  1.00  0.00     0.055 A 
HETATM   27  C   UNL     1      43.344  -7.523  13.479  1.00  0.00     0.014 A 
HETATM   28  C   UNL     1      42.248  -7.339  14.331  1.00  0.00     0.004 A 
HETATM   29  C   UNL     1      41.017  -7.957  14.073  1.00  0.00     0.040 A 
BRANCH  25  30
HETATM   30  O   UNL     1      39.676  -9.431  12.616  1.00  0.00    -0.353 OA
HETATM   31  C   UNL     1      39.564 -10.791  13.016  1.00  0.00     0.210 C 
ENDBRANCH  25  30
ENDBRANCH   6  21
TORSDOF 8
ENDMDL
MODEL 2
REMARK VINA RESULT:      -8.8      5.791      9.835
REMARK  8 active torsions:
REMARK  status: ('A' for Active; 'I' for Inactive)
REMARK    1  A    between atoms: C_3  and  S_4 
REMARK    2  A    between atoms: S_4  and  C_5 
REMARK    3  A    between atoms: C_5  and  C_6 
REMARK       I    between atoms: C_6  and  N_7 
REMARK    4  A    between atoms: N_7  and  C_8 
REMARK    5  A    between atoms: C_8  and  C_9 
REMARK    6  A    between atoms: C_9  and  C_10 
REMARK    7  A    between atoms: C_19  and  C_20 
REMARK    8  A    between atoms: C_25  and  O_26 
ROOT
HETATM    1  C   UNL     1      39.244 -12.544   3.381  1.00  0.00     0.160 C 
HETATM    2  N   UNL     1      40.493 -13.240   3.206  1.00  0.00    -0.310 N 
HETATM    3  C   UNL     1      41.477 -13.477   4.126  1.00  0.00     0.191 A 
HETATM    4  N   UNL     1      42.448 -14.166   3.571  1.00  0.00    -0.122 NA
HETATM    5  N   UNL     1      42.125 -14.360   2.255  1.00  0.00    -0.126 NA
HETATM    6  C   UNL     1      40.945 -13.812   2.038  1.00  0.00     0.188 A 
ENDROOT
BRANCH   3   7
HETATM    7  S   UNL     1      41.453 -12.923   5.763  1.00  0.00    -0.081 SA
BRANCH   7   8
HETATM    8  C   UNL     1      40.951 -14.427   6.647  1.00  0.00     0.185 C 
BRANCH   8   9
HETATM    9  C   UNL     1      42.133 -15.321   6.980  1.00  0.00     0.227 C 
HETATM   10  N   UNL     1      42.248 -16.450   6.203  1.00  0.00    -0.360 N 
HETATM   11  H   UNL     1      41.598 -16.578   5.427  1.00  0.00     0.162 HD
HETATM   12  O   UNL     1      42.893 -15.075   7.915  1.00  0.00    -0.273 OA
BRANCH  10  13
HETATM   13  C   UNL     1      43.231 -17.486   6.447  1.00  0.00     0.127 C 
BRANCH  13  14
HETATM   14  C   UNL     1      44.287 -17.518   5.341  1.00  0.00     0.058 C 
BRANCH  14  15
HETATM   15  C   UNL     1      43.978 -18.551   4.288  1.00  0.00    -0.057 A 
HETATM   16  C   UNL     1      44.213 -19.910   4.535  1.00  0.00     0.007 A 
HETATM   17  C   UNL     1      43.934 -20.863   3.556  1.00  0.00     0.001 A 
HETATM   18  C   UNL     1      43.425 -20.468   2.320  1.00  0.00     0.000 A 
HETATM   19  C   UNL     1      43.195 -19.118   2.061  1.00  0.00     0.001 A 
HETATM   20  C   UNL     1      43.472 -18.163   3.041  1.00  0.00     0.007 A 
ENDBRANCH  14  15
ENDBRANCH  13  14
ENDBRANCH  10  13
ENDBRANCH   8   9
ENDBRANCH   7   8
ENDBRANCH   3   7
BRANCH   6  21
HETATM   21  C   UNL     1      40.276 -13.827   0.775  1.00  0.00     0.125 A 
HETATM   22  O   UNL     1      39.732 -12.713   0.190  1.00  0.00    -0.303 OA
HETATM   23  C   UNL     1      39.162 -13.089  -0.992  1.00  0.00     0.119 A 
HETATM   24  C   UNL     1      39.345 -14.452  -1.189  1.00  0.00     0.003 A 
HETATM   25  C   UNL     1      38.487 -12.241  -1.878  1.00  0.00     0.102 A 
HETATM   26  C   UNL     1      40.054 -14.916  -0.052  1.00  0.00     0.055 A 
HETATM   27  C   UNL     1      38.838 -15.039  -2.359  1.00  0.00     0.014 A 
HETATM   28  C   UNL     1      38.164 -14.224  -3.276  1.00  0.00     0.004 A 
HETATM   29  C   UNL     1      37.992 -12.853  -3.040  1.00  0.00     0.040 A 
BRANCH  25  30
HETATM   30  O   UNL     1      38.373 -10.919  -1.553  1.00  0.00    -0.353 OA
HETATM   31  C   UNL     1      39.302 -10.030  -2.160  1.00  0.00     0.210 C 
ENDBRANCH  25  30
ENDBRANCH   6  21
TORSDOF 8
ENDMDL
MODEL 3
REMARK VINA RESULT:      -8.7      1.448      1.933
REMARK  8 active torsions:
REMARK  status: ('A' for Active; 'I' for Inactive)
REMARK    1  A    between atoms: C_3  and  S_4 
REMARK    2  A    between atoms: S_4  and  C_5 
REMARK    3  A    between atoms: C_5  and  C_6 
REMARK       I    between atoms: C_6  and  N_7 
REMARK    4  A    between atoms: N_7  and  C_8 
REMARK    5  A    between atoms: C_8  and  C_9 
REMARK    6  A    between atoms: C_9  and  C_10 
REMARK    7  A    between atoms: C_19  and  C_20 
REMARK    8  A    between atoms: C_25  and  O_26 
ROOT
HETATM    1  C   UNL     1      42.063  -9.566   8.342  1.00  0.00     0.160 C 
HETATM    2  N   UNL     1      43.355 -10.126   8.643  1.00  0.00    -0.310 N 
HETATM    3  C   UNL     1      44.224 -10.772   7.808  1.00  0.00     0.191 A 
HETATM    4  N   UNL     1      45.308 -11.111   8.469  1.00  0.00    -0.122 NA
HETATM    5  N   UNL     1      45.146 -10.718   9.770  1.00  0.00    -0.126 NA
HETATM    6  C   UNL     1      43.975 -10.117   9.873  1.00  0.00     0.188 A 
ENDROOT
BRANCH   3   7
HETATM    7  S   UNL     1      43.922 -11.115   6.142  1.00  0.00    -0.081 SA
BRANCH   7   8
HETATM    8  C   UNL     1      44.288 -12.892   6.064  1.00  0.00     0.185 C 
BRANCH   8   9
HETATM    9  C   UNL     1      43.175 -13.735   6.665  1.00  0.00     0.227 C 
HETATM   10  N   UNL     1      42.046 -13.848   5.889  1.00  0.00    -0.360 N 
HETATM   11  H   UNL     1      42.049 -13.434   4.957  1.00  0.00     0.162 HD
HETATM   12  O   UNL     1      43.266 -14.228   7.788  1.00  0.00    -0.273 OA
BRANCH  10  13
HETATM   13  C   UNL     1      40.834 -14.501   6.342  1.00  0.00     0.127 C 
BRANCH  13  14
HETATM   14  C   UNL     1      40.902 -16.012   6.110  1.00  0.00     0.058 C 
BRANCH  14  15
HETATM   15  C   UNL     1      41.491 -16.356   4.766  1.00  0.00    -0.057 A 
HETATM   16  C   UNL     1      40.758 -16.136   3.592  1.00  0.00     0.007 A 
HETATM   17  C   UNL     1      41.302 -16.464   2.349  1.00  0.00     0.001 A 
HETATM   18  C   UNL     1      42.577 -17.020   2.269  1.00  0.00     0.000 A 
HETATM   19  C   UNL     1      43.311 -17.250   3.432  1.00  0.00     0.001 A 
HETATM   20  C   UNL     1      42.770 -16.921   4.675  1.00  0.00     0.007 A 
ENDBRANCH  14  15
ENDBRANCH  13  14
ENDBRANCH  10  13
ENDBRANCH   8   9
ENDBRANCH   7   8
ENDBRANCH   3   7
BRANCH   6  21
HETATM   21  C   UNL     1      43.466  -9.561  11.087  1.00  0.00     0.125 A 
HETATM   22  O   UNL     1      42.411 -10.093  11.782  1.00  0.00    -0.303 OA
HETATM   23  C   UNL     1      42.182  -9.307  12.874  1.00  0.00     0.119 A 
HETATM   24  C   UNL     1      43.099  -8.264  12.903  1.00  0.00     0.003 A 
HETATM   25  C   UNL     1      41.174  -9.507  13.826  1.00  0.00     0.102 A 
HETATM   26  C   UNL     1      43.912  -8.432  11.755  1.00  0.00     0.055 A 
HETATM   27  C   UNL     1      43.039  -7.342  13.960  1.00  0.00     0.014 A 
HETATM   28  C   UNL     1      42.052  -7.512  14.939  1.00  0.00     0.004 A 
HETATM   29  C   UNL     1      41.139  -8.572  14.872  1.00  0.00     0.040 A 
BRANCH  25  30
HETATM   30  O   UNL     1      40.334 -10.572  13.669  1.00  0.00    -0.353 OA
HETATM   31  C   UNL     1      39.248 -10.401  12.767  1.00  0.00     0.210 C 
ENDBRANCH  25  30
ENDBRANCH   6  21
TORSDOF 8
ENDMDL
MODEL 4
REMARK VINA RESULT:      -8.5      2.663      3.823
REMARK  8 active torsions:
REMARK  status: ('A' for Active; 'I' for Inactive)
REMARK    1  A    between atoms: C_3  and  S_4 
REMARK    2  A    between atoms: S_4  and  C_5 
REMARK    3  A    between atoms: C_5  and  C_6 
REMARK       I    between atoms: C_6  and  N_7 
REMARK    4  A    between atoms: N_7  and  C_8 
REMARK    5  A    between atoms: C_8  and  C_9 
REMARK    6  A    between atoms: C_9  and  C_10 
REMARK    7  A    between atoms: C_19  and  C_20 
REMARK    8  A    between atoms: C_25  and  O_26 
ROOT
HETATM    1  C   UNL     1      41.201 -13.032   5.977  1.00  0.00     0.160 C 
HETATM    2  N   UNL     1      41.732 -12.134   4.985  1.00  0.00    -0.310 N 
HETATM    3  C   UNL     1      41.488 -12.103   3.640  1.00  0.00     0.191 A 
HETATM    4  N   UNL     1      42.153 -11.113   3.089  1.00  0.00    -0.122 NA
HETATM    5  N   UNL     1      42.880 -10.498   4.072  1.00  0.00    -0.126 NA
HETATM    6  C   UNL     1      42.619 -11.106   5.214  1.00  0.00     0.188 A 
ENDROOT
BRANCH   3   7
HETATM    7  S   UNL     1      40.477 -13.220   2.794  1.00  0.00    -0.081 SA
BRANCH   7   8
HETATM    8  C   UNL     1      41.651 -14.551   2.408  1.00  0.00     0.185 C 
BRANCH   8   9
HETATM    9  C   UNL     1      41.707 -15.604   3.503  1.00  0.00     0.227 C 
HETATM   10  N   UNL     1      42.787 -15.508   4.349  1.00  0.00    -0.360 N 
HETATM   11  H   UNL     1      43.424 -14.719   4.241  1.00  0.00     0.162 HD
HETATM   12  O   UNL     1      40.875 -16.505   3.582  1.00  0.00    -0.273 OA
BRANCH  10  13
HETATM   13  C   UNL     1      43.083 -16.490   5.372  1.00  0.00     0.127 C 
BRANCH  13  14
HETATM   14  C   UNL     1      44.392 -17.222   5.072  1.00  0.00     0.058 C 
BRANCH  14  15
HETATM   15  C   UNL     1      44.164 -18.521   4.343  1.00  0.00    -0.057 A 
HETATM   16  C   UNL     1      43.915 -18.528   2.964  1.00  0.00     0.007 A 
HETATM   17  C   UNL     1      43.696 -19.731   2.293  1.00  0.00     0.001 A 
HETATM   18  C   UNL     1      43.715 -20.936   2.993  1.00  0.00     0.000 A 
HETATM   19  C   UNL     1      43.954 -20.939   4.366  1.00  0.00     0.001 A 
HETATM   20  C   UNL     1      44.175 -19.737   5.039  1.00  0.00     0.007 A 
ENDBRANCH  14  15
ENDBRANCH  13  14
ENDBRANCH  10  13
ENDBRANCH   8   9
ENDBRANCH   7   8
ENDBRANCH   3   7
BRANCH   6  21
HETATM   21  C   UNL     1      43.190 -10.728   6.469  1.00  0.00     0.125 A 
HETATM   22  O   UNL     1      42.495 -10.076   7.454  1.00  0.00    -0.303 OA
HETATM   23  C   UNL     1      43.344  -9.858   8.500  1.00  0.00     0.119 A 
HETATM   24  C   UNL     1      44.597 -10.380   8.205  1.00  0.00     0.003 A 
HETATM   25  C   UNL     1      43.017  -9.201   9.693  1.00  0.00     0.102 A 
HETATM   26  C   UNL     1      44.490 -10.930   6.903  1.00  0.00     0.055 A 
HETATM   27  C   UNL     1      45.618 -10.267   9.162  1.00  0.00     0.014 A 
HETATM   28  C   UNL     1      45.329  -9.627  10.373  1.00  0.00     0.004 A 
HETATM   29  C   UNL     1      44.055  -9.105  10.632  1.00  0.00     0.040 A 
BRANCH  25  30
HETATM   30  O   UNL     1      41.745  -8.728   9.847  1.00  0.00    -0.353 OA
HETATM   31  C   UNL     1      41.599  -7.508  10.561  1.00  0.00     0.210 C 
ENDBRANCH  25  30
ENDBRANCH   6  21
TORSDOF 8
ENDMDL
MODEL 5
REMARK VINA RESULT:      -8.4      1.699      2.333
REMARK  8 active torsions:
REMARK  status: ('A' for Active; 'I' for Inactive)
REMARK    1  A    between atoms: C_3  and  S_4 
REMARK    2  A    between atoms: S_4  and  C_5 
REMARK    3  A    between atoms: C_5  and  C_6 
REMARK       I    between atoms: C_6  and  N_7 
REMARK    4  A    between atoms: N_7  and  C_8 
REMARK    5  A    between atoms: C_8  and  C_9 
REMARK    6  A    between atoms: C_9  and  C_10 
REMARK    7  A    between atoms: C_19  and  C_20 
REMARK    8  A    between atoms: C_25  and  O_26 
ROOT
HETATM    1  C   UNL     1      41.875  -9.653   7.331  1.00  0.00     0.160 C 
HETATM    2  N   UNL     1      43.083 -10.357   7.675  1.00  0.00    -0.310 N 
HETATM    3  C   UNL     1      43.748 -11.315   6.961  1.00  0.00     0.191 A 
HETATM    4  N   UNL     1      44.823 -11.691   7.615  1.00  0.00    -0.122 NA
HETATM    5  N   UNL     1      44.858 -11.003   8.797  1.00  0.00    -0.126 NA
HETATM    6  C   UNL     1      43.816 -10.193   8.829  1.00  0.00     0.188 A 
ENDROOT
BRANCH   3   7
HETATM    7  S   UNL     1      43.230 -11.952   5.440  1.00  0.00    -0.081 SA
BRANCH   7   8
HETATM    8  C   UNL     1      41.743 -12.876   5.922  1.00  0.00     0.185 C 
BRANCH   8   9
HETATM    9  C   UNL     1      41.344 -13.908   4.880  1.00  0.00     0.227 C 
HETATM   10  N   UNL     1      41.994 -15.116   4.978  1.00  0.00    -0.360 N 
HETATM   11  H   UNL     1      42.630 -15.268   5.761  1.00  0.00     0.162 HD
HETATM   12  O   UNL     1      40.541 -13.653   3.985  1.00  0.00    -0.273 OA
BRANCH  10  13
HETATM   13  C   UNL     1      41.845 -16.179   4.004  1.00  0.00     0.127 C 
BRANCH  13  14
HETATM   14  C   UNL     1      43.195 -16.567   3.399  1.00  0.00     0.058 C 
BRANCH  14  15
HETATM   15  C   UNL     1      43.394 -18.061   3.362  1.00  0.00    -0.057 A 
HETATM   16  C   UNL     1      43.943 -18.731   4.462  1.00  0.00     0.007 A 
HETATM   17  C   UNL     1      44.135 -20.113   4.423  1.00  0.00     0.001 A 
HETATM   18  C   UNL     1      43.788 -20.835   3.283  1.00  0.00     0.000 A 
HETATM   19  C   UNL     1      43.248 -20.175   2.179  1.00  0.00     0.001 A 
HETATM   20  C   UNL     1      43.054 -18.794   2.218  1.00  0.00     0.007 A 
ENDBRANCH  14  15
ENDBRANCH  13  14
ENDBRANCH  10  13
ENDBRANCH   8   9
ENDBRANCH   7   8
ENDBRANCH   3   7
BRANCH   6  21
HETATM   21  C   UNL     1      43.527  -9.304   9.910  1.00  0.00     0.125 A 
HETATM   22  O   UNL     1      42.974  -8.061   9.744  1.00  0.00    -0.303 OA
HETATM   23  C   UNL     1      42.852  -7.483  10.974  1.00  0.00     0.119 A 
HETATM   24  C   UNL     1      43.313  -8.354  11.952  1.00  0.00     0.003 A 
HETATM   25  C   UNL     1      42.346  -6.201  11.226  1.00  0.00     0.102 A 
HETATM   26  C   UNL     1      43.747  -9.514  11.261  1.00  0.00     0.055 A 
HETATM   27  C   UNL     1      43.265  -7.950  13.295  1.00  0.00     0.014 A 
HETATM   28  C   UNL     1      42.756  -6.680  13.591  1.00  0.00     0.004 A 
HETATM   29  C   UNL     1      42.306  -5.824  12.578  1.00  0.00     0.040 A 
BRANCH  25  30
HETATM   30  O   UNL     1      41.934  -5.445  10.166  1.00  0.00    -0.353 OA
HETATM   31  C   UNL     1      41.959  -4.034  10.340  1.00  0.00     0.210 C 
ENDBRANCH  25  30
ENDBRANCH   6  21
TORSDOF 8
ENDMDL
MODEL 6
REMARK VINA RESULT:      -8.4      5.065      9.611
REMARK  8 active torsions:
REMARK  status: ('A' for Active; 'I' for Inactive)
REMARK    1  A    between atoms: C_3  and  S_4 
REMARK    2  A    between atoms: S_4  and  C_5 
REMARK    3  A    between atoms: C_5  and  C_6 
REMARK       I    between atoms: C_6  and  N_7 
REMARK    4  A    between atoms: N_7  and  C_8 
REMARK    5  A    between atoms: C_8  and  C_9 
REMARK    6  A    between atoms: C_9  and  C_10 
REMARK    7  A    between atoms: C_19  and  C_20 
REMARK    8  A    between atoms: C_25  and  O_26 
ROOT
HETATM    1  C   UNL     1      41.833 -10.802   2.010  1.00  0.00     0.160 C 
HETATM    2  N   UNL     1      41.278 -11.775   2.915  1.00  0.00    -0.310 N 
HETATM    3  C   UNL     1      41.415 -11.857   4.273  1.00  0.00     0.191 A 
HETATM    4  N   UNL     1      40.732 -12.883   4.728  1.00  0.00    -0.122 NA
HETATM    5  N   UNL     1      40.163 -13.516   3.656  1.00  0.00    -0.126 NA
HETATM    6  C   UNL     1      40.484 -12.844   2.566  1.00  0.00     0.188 A 
ENDROOT
BRANCH   3   7
HETATM    7  S   UNL     1      42.368 -10.785   5.236  1.00  0.00    -0.081 SA
BRANCH   7   8
HETATM    8  C   UNL     1      43.924 -11.709   5.377  1.00  0.00     0.185 C 
BRANCH   8   9
HETATM    9  C   UNL     1      43.840 -12.826   6.404  1.00  0.00     0.227 C 
HETATM   10  N   UNL     1      43.518 -14.063   5.894  1.00  0.00    -0.360 N 
HETATM   11  H   UNL     1      43.430 -14.168   4.884  1.00  0.00     0.162 HD
HETATM   12  O   UNL     1      43.993 -12.618   7.606  1.00  0.00    -0.273 OA
BRANCH  10  13
HETATM   13  C   UNL     1      43.266 -15.222   6.726  1.00  0.00     0.127 C 
BRANCH  13  14
HETATM   14  C   UNL     1      42.154 -16.092   6.139  1.00  0.00     0.058 C 
BRANCH  14  15
HETATM   15  C   UNL     1      42.594 -16.813   4.890  1.00  0.00    -0.057 A 
HETATM   16  C   UNL     1      41.973 -16.551   3.662  1.00  0.00     0.007 A 
HETATM   17  C   UNL     1      42.376 -17.226   2.510  1.00  0.00     0.001 A 
HETATM   18  C   UNL     1      43.395 -18.174   2.575  1.00  0.00     0.000 A 
HETATM   19  C   UNL     1      44.014 -18.449   3.794  1.00  0.00     0.001 A 
HETATM   20  C   UNL     1      43.613 -17.773   4.947  1.00  0.00     0.007 A 
ENDBRANCH  14  15
ENDBRANCH  13  14
ENDBRANCH  10  13
ENDBRANCH   8   9
ENDBRANCH   7   8
ENDBRANCH   3   7
BRANCH   6  21
HETATM   21  C   UNL     1      40.056 -13.203   1.250  1.00  0.00     0.125 A 
HETATM   22  O   UNL     1      39.520 -12.313   0.357  1.00  0.00    -0.303 OA
HETATM   23  C   UNL     1      39.209 -12.993  -0.785  1.00  0.00     0.119 A 
HETATM   24  C   UNL     1      39.555 -14.331  -0.645  1.00  0.00     0.003 A 
HETATM   25  C   UNL     1      38.623 -12.439  -1.930  1.00  0.00     0.102 A 
HETATM   26  C   UNL     1      40.091 -14.456   0.661  1.00  0.00     0.055 A 
HETATM   27  C   UNL     1      39.325 -15.204  -1.719  1.00  0.00     0.014 A 
HETATM   28  C   UNL     1      38.750 -14.688  -2.887  1.00  0.00     0.004 A 
HETATM   29  C   UNL     1      38.406 -13.334  -2.989  1.00  0.00     0.040 A 
BRANCH  25  30
HETATM   30  O   UNL     1      38.326 -11.106  -1.928  1.00  0.00    -0.353 OA
HETATM   31  C   UNL     1      36.963 -10.756  -1.722  1.00  0.00     0.210 C 
ENDBRANCH  25  30
ENDBRANCH   6  21
TORSDOF 8
ENDMDL
MODEL 7
REMARK VINA RESULT:      -8.2      3.507      5.204
REMARK  8 active torsions:
REMARK  status: ('A' for Active; 'I' for Inactive)
REMARK    1  A    between atoms: C_3  and  S_4 
REMARK    2  A    between atoms: S_4  and  C_5 
REMARK    3  A    between atoms: C_5  and  C_6 
REMARK       I    between atoms: C_6  and  N_7 
REMARK    4  A    between atoms: N_7  and  C_8 
REMARK    5  A    between atoms: C_8  and  C_9 
REMARK    6  A    between atoms: C_9  and  C_10 
REMARK    7  A    between atoms: C_19  and  C_20 
REMARK    8  A    between atoms: C_25  and  O_26 
ROOT
HETATM    1  C   UNL     1      39.939 -11.604   4.750  1.00  0.00     0.160 C 
HETATM    2  N   UNL     1      40.826 -11.368   3.641  1.00  0.00    -0.310 N 
HETATM    3  C   UNL     1      40.552 -11.408   2.302  1.00  0.00     0.191 A 
HETATM    4  N   UNL     1      41.633 -11.111   1.617  1.00  0.00    -0.122 NA
HETATM    5  N   UNL     1      42.651 -10.905   2.509  1.00  0.00    -0.126 NA
HETATM    6  C   UNL     1      42.163 -11.050   3.727  1.00  0.00     0.188 A 
ENDROOT
BRANCH   3   7
HETATM    7  S   UNL     1      39.019 -11.818   1.620  1.00  0.00    -0.081 SA
BRANCH   7   8
HETATM    8  C   UNL     1      39.506 -12.946   0.283  1.00  0.00     0.185 C 
BRANCH   8   9
HETATM    9  C   UNL     1      40.057 -14.261   0.811  1.00  0.00     0.227 C 
HETATM   10  N   UNL     1      39.543 -14.663   2.021  1.00  0.00    -0.360 N 
HETATM   11  H   UNL     1      38.796 -14.112   2.444  1.00  0.00     0.162 HD
HETATM   12  O   UNL     1      40.937 -14.882   0.219  1.00  0.00    -0.273 OA
BRANCH  10  13
HETATM   13  C   UNL     1      40.032 -15.819   2.746  1.00  0.00     0.127 C 
BRANCH  13  14
HETATM   14  C   UNL     1      41.262 -15.465   3.584  1.00  0.00     0.058 C 
BRANCH  14  15
HETATM   15  C   UNL     1      42.287 -16.571   3.585  1.00  0.00    -0.057 A 
HETATM   16  C   UNL     1      42.405 -17.432   2.487  1.00  0.00     0.007 A 
HETATM   17  C   UNL     1      43.348 -18.460   2.494  1.00  0.00     0.001 A 
HETATM   18  C   UNL     1      44.176 -18.641   3.601  1.00  0.00     0.000 A 
HETATM   19  C   UNL     1      44.061 -17.795   4.703  1.00  0.00     0.001 A 
HETATM   20  C   UNL     1      43.119 -16.765   4.696  1.00  0.00     0.007 A 
ENDBRANCH  14  15
ENDBRANCH  13  14
ENDBRANCH  10  13
ENDBRANCH   8   9
ENDBRANCH   7   8
ENDBRANCH   3   7
BRANCH   6  21
HETATM   21  C   UNL     1      42.935 -10.897   4.921  1.00  0.00     0.125 A 
HETATM   22  O   UNL     1      42.552 -10.111   5.976  1.00  0.00    -0.303 OA
HETATM   23  C   UNL     1      43.523 -10.181   6.932  1.00  0.00     0.119 A 
HETATM   24  C   UNL     1      44.540 -11.027   6.508  1.00  0.00     0.003 A 
HETATM   25  C   UNL     1      43.512  -9.503   8.157  1.00  0.00     0.102 A 
HETATM   26  C   UNL     1      44.157 -11.476   5.219  1.00  0.00     0.055 A 
HETATM   27  C   UNL     1      45.637 -11.244   7.357  1.00  0.00     0.014 A 
HETATM   28  C   UNL     1      45.660 -10.593   8.596  1.00  0.00     0.004 A 
HETATM   29  C   UNL     1      44.619  -9.740   8.987  1.00  0.00     0.040 A 
BRANCH  25  30
HETATM   30  O   UNL     1      42.450  -8.694   8.443  1.00  0.00    -0.353 OA
HETATM   31  C   UNL     1      41.570  -9.133   9.469  1.00  0.00     0.210 C 
ENDBRANCH  25  30
ENDBRANCH   6  21
TORSDOF 8
ENDMDL
MODEL 8
REMARK VINA RESULT:      -8.1      1.751      2.572
REMARK  8 active torsions:
REMARK  status: ('A' for Active; 'I' for Inactive)
REMARK    1  A    between atoms: C_3  and  S_4 
REMARK    2  A    between atoms: S_4  and  C_5 
REMARK    3  A    between atoms: C_5  and  C_6 
REMARK       I    between atoms: C_6  and  N_7 
REMARK    4  A    between atoms: N_7  and  C_8 
REMARK    5  A    between atoms: C_8  and  C_9 
REMARK    6  A    between atoms: C_9  and  C_10 
REMARK    7  A    between atoms: C_19  and  C_20 
REMARK    8  A    between atoms: C_25  and  O_26 
ROOT
HETATM    1  C   UNL     1      42.240  -9.124   8.150  1.00  0.00     0.160 C 
HETATM    2  N   UNL     1      43.398  -9.876   8.555  1.00  0.00    -0.310 N 
HETATM    3  C   UNL     1      44.224 -10.653   7.791  1.00  0.00     0.191 A 
HETATM    4  N   UNL     1      45.182 -11.154   8.538  1.00  0.00    -0.122 NA
HETATM    5  N   UNL     1      44.972 -10.735   9.824  1.00  0.00    -0.126 NA
HETATM    6  C   UNL     1      43.905  -9.959   9.833  1.00  0.00     0.188 A 
ENDROOT
BRANCH   3   7
HETATM    7  S   UNL     1      44.016 -10.952   6.102  1.00  0.00    -0.081 SA
BRANCH   7   8
HETATM    8  C   UNL     1      42.464 -11.894   6.088  1.00  0.00     0.185 C 
BRANCH   8   9
HETATM    9  C   UNL     1      42.692 -13.382   6.297  1.00  0.00     0.227 C 
HETATM   10  N   UNL     1      41.550 -14.126   6.481  1.00  0.00    -0.360 N 
HETATM   11  H   UNL     1      40.645 -13.663   6.396  1.00  0.00     0.162 HD
HETATM   12  O   UNL     1      43.820 -13.866   6.354  1.00  0.00    -0.273 OA
BRANCH  10  13
HETATM   13  C   UNL     1      41.567 -15.535   6.820  1.00  0.00     0.127 C 
BRANCH  13  14
HETATM   14  C   UNL     1      40.809 -16.362   5.780  1.00  0.00     0.058 C 
BRANCH  14  15
HETATM   15  C   UNL     1      41.561 -16.469   4.478  1.00  0.00    -0.057 A 
HETATM   16  C   UNL     1      41.007 -15.965   3.294  1.00  0.00     0.007 A 
HETATM   17  C   UNL     1      41.702 -16.073   2.089  1.00  0.00     0.001 A 
HETATM   18  C   UNL     1      42.951 -16.690   2.054  1.00  0.00     0.000 A 
HETATM   19  C   UNL     1      43.507 -17.201   3.226  1.00  0.00     0.001 A 
HETATM   20  C   UNL     1      42.815 -17.093   4.432  1.00  0.00     0.007 A 
ENDBRANCH  14  15
ENDBRANCH  13  14
ENDBRANCH  10  13
ENDBRANCH   8   9
ENDBRANCH   7   8
ENDBRANCH   3   7
BRANCH   6  21
HETATM   21  C   UNL     1      43.386  -9.325  11.005  1.00  0.00     0.125 A 
HETATM   22  O   UNL     1      43.159  -7.977  11.102  1.00  0.00    -0.303 OA
HETATM   23  C   UNL     1      42.683  -7.716  12.353  1.00  0.00     0.119 A 
HETATM   24  C   UNL     1      42.585  -8.898  13.076  1.00  0.00     0.003 A 
HETATM   25  C   UNL     1      42.347  -6.450  12.850  1.00  0.00     0.102 A 
HETATM   26  C   UNL     1      43.041  -9.921  12.207  1.00  0.00     0.055 A 
HETATM   27  C   UNL     1      42.103  -8.846  14.393  1.00  0.00     0.014 A 
HETATM   28  C   UNL     1      41.746  -7.601  14.925  1.00  0.00     0.004 A 
HETATM   29  C   UNL     1      41.866  -6.428  14.168  1.00  0.00     0.040 A 
BRANCH  25  30
HETATM   30  O   UNL     1      42.502  -5.368  12.031  1.00  0.00    -0.353 OA
HETATM   31  C   UNL     1      42.354  -4.087  12.629  1.00  0.00     0.210 C 
ENDBRANCH  25  30
ENDBRANCH   6  21
TORSDOF 8
ENDMDL
MODEL 9
REMARK VINA RESULT:      -8.1      6.197      9.365
REMARK  8 active torsions:
REMARK  status: ('A' for Active; 'I' for Inactive)
REMARK    1  A    between atoms: C_3  and  S_4 
REMARK    2  A    between atoms: S_4  and  C_5 
REMARK    3  A    between atoms: C_5  and  C_6 
REMARK       I    between atoms: C_6  and  N_7 
REMARK    4  A    between atoms: N_7  and  C_8 
REMARK    5  A    between atoms: C_8  and  C_9 
REMARK    6  A    between atoms: C_9  and  C_10 
REMARK    7  A    between atoms: C_19  and  C_20 
REMARK    8  A    between atoms: C_25  and  O_26 
ROOT
HETATM    1  C   UNL     1      40.275 -13.058   4.336  1.00  0.00     0.160 C 
HETATM    2  N   UNL     1      41.497 -12.395   3.961  1.00  0.00    -0.310 N 
HETATM    3  C   UNL     1      41.762 -11.055   3.907  1.00  0.00     0.191 A 
HETATM    4  N   UNL     1      43.007 -10.862   3.537  1.00  0.00    -0.122 NA
HETATM    5  N   UNL     1      43.571 -12.087   3.306  1.00  0.00    -0.126 NA
HETATM    6  C   UNL     1      42.665 -13.010   3.571  1.00  0.00     0.188 A 
ENDROOT
BRANCH   3   7
HETATM    7  S   UNL     1      40.615  -9.807   4.246  1.00  0.00    -0.081 SA
BRANCH   7   8
HETATM    8  C   UNL     1      40.609  -8.885   2.682  1.00  0.00     0.185 C 
BRANCH   8   9
HETATM    9  C   UNL     1      40.231  -9.760   1.499  1.00  0.00     0.227 C 
HETATM   10  N   UNL     1      41.292 -10.317   0.824  1.00  0.00    -0.360 N 
HETATM   11  H   UNL     1      42.233 -10.174   1.188  1.00  0.00     0.162 HD
HETATM   12  O   UNL     1      39.063  -9.907   1.145  1.00  0.00    -0.273 OA
BRANCH  10  13
HETATM   13  C   UNL     1      41.142 -11.075  -0.402  1.00  0.00     0.127 C 
BRANCH  13  14
HETATM   14  C   UNL     1      40.725 -12.518  -0.111  1.00  0.00     0.058 C 
BRANCH  14  15
HETATM   15  C   UNL     1      39.726 -13.036  -1.115  1.00  0.00    -0.057 A 
HETATM   16  C   UNL     1      38.442 -12.481  -1.190  1.00  0.00     0.007 A 
HETATM   17  C   UNL     1      37.517 -12.968  -2.114  1.00  0.00     0.001 A 
HETATM   18  C   UNL     1      37.862 -14.016  -2.964  1.00  0.00     0.000 A 
HETATM   19  C   UNL     1      39.135 -14.581  -2.891  1.00  0.00     0.001 A 
HETATM   20  C   UNL     1      40.063 -14.094  -1.969  1.00  0.00     0.007 A 
ENDBRANCH  14  15
ENDBRANCH  13  14
ENDBRANCH  10  13
ENDBRANCH   8   9
ENDBRANCH   7   8
ENDBRANCH   3   7
BRANCH   6  21
HETATM   21  C   UNL     1      42.898 -14.416   3.455  1.00  0.00     0.125 A 
HETATM   22  O   UNL     1      43.381 -15.192   4.476  1.00  0.00    -0.303 OA
HETATM   23  C   UNL     1      43.497 -16.472   4.018  1.00  0.00     0.119 A 
HETATM   24  C   UNL     1      43.077 -16.539   2.695  1.00  0.00     0.003 A 
HETATM   25  C   UNL     1      43.973 -17.563   4.756  1.00  0.00     0.102 A 
HETATM   26  C   UNL     1      42.701 -15.218   2.343  1.00  0.00     0.055 A 
HETATM   27  C   UNL     1      43.109 -17.778   2.037  1.00  0.00     0.014 A 
HETATM   28  C   UNL     1      43.569 -18.896   2.744  1.00  0.00     0.004 A 
HETATM   29  C   UNL     1      43.992 -18.790   4.075  1.00  0.00     0.040 A 
BRANCH  25  30
HETATM   30  O   UNL     1      44.362 -17.353   6.048  1.00  0.00    -0.353 OA
HETATM   31  C   UNL     1      43.368 -17.520   7.051  1.00  0.00     0.210 C 
ENDBRANCH  25  30
ENDBRANCH   6  21
TORSDOF 8
ENDMDL
MODEL 10
REMARK VINA RESULT:      -8.1      2.083     10.960
REMARK  8 active torsions:
REMARK  status: ('A' for Active; 'I' for Inactive)
REMARK    1  A    between atoms: C_3  and  S_4 
REMARK    2  A    between atoms: S_4  and  C_5 
REMARK    3  A    between atoms: C_5  and  C_6 
REMARK       I    between atoms: C_6  and  N_7 
REMARK    4  A    between atoms: N_7  and  C_8 
REMARK    5  A    between atoms: C_8  and  C_9 
REMARK    6  A    between atoms: C_9  and  C_10 
REMARK    7  A    between atoms: C_19  and  C_20 
REMARK    8  A    between atoms: C_25  and  O_26 
ROOT
HETATM    1  C   UNL     1      40.681 -13.369   5.952  1.00  0.00     0.160 C 
HETATM    2  N   UNL     1      41.613 -12.563   5.208  1.00  0.00    -0.310 N 
HETATM    3  C   UNL     1      41.780 -11.206   5.232  1.00  0.00     0.191 A 
HETATM    4  N   UNL     1      42.754 -10.862   4.419  1.00  0.00    -0.122 NA
HETATM    5  N   UNL     1      43.219 -12.001   3.817  1.00  0.00    -0.126 NA
HETATM    6  C   UNL     1      42.539 -13.024   4.299  1.00  0.00     0.188 A 
ENDROOT
BRANCH   3   7
HETATM    7  S   UNL     1      40.829 -10.110   6.170  1.00  0.00    -0.081 SA
BRANCH   7   8
HETATM    8  C   UNL     1      42.115  -9.104   6.966  1.00  0.00     0.185 C 
BRANCH   8   9
HETATM    9  C   UNL     1      42.659  -9.756   8.226  1.00  0.00     0.227 C 
HETATM   10  N   UNL     1      42.093  -9.317   9.400  1.00  0.00    -0.360 N 
HETATM   11  H   UNL     1      41.317  -8.657   9.353  1.00  0.00     0.162 HD
HETATM   12  O   UNL     1      43.577 -10.573   8.192  1.00  0.00    -0.273 OA
BRANCH  10  13
HETATM   13  C   UNL     1      42.563  -9.725  10.709  1.00  0.00     0.127 C 
BRANCH  13  14
HETATM   14  C   UNL     1      41.442  -9.651  11.746  1.00  0.00     0.058 C 
BRANCH  14  15
HETATM   15  C   UNL     1      41.832  -8.832  12.950  1.00  0.00    -0.057 A 
HETATM   16  C   UNL     1      42.882  -7.908  12.870  1.00  0.00     0.007 A 
HETATM   17  C   UNL     1      43.248  -7.158  13.988  1.00  0.00     0.001 A 
HETATM   18  C   UNL     1      42.574  -7.329  15.196  1.00  0.00     0.000 A 
HETATM   19  C   UNL     1      41.533  -8.252  15.288  1.00  0.00     0.001 A 
HETATM   20  C   UNL     1      41.165  -9.002  14.171  1.00  0.00     0.007 A 
ENDBRANCH  14  15
ENDBRANCH  13  14
ENDBRANCH  10  13
ENDBRANCH   8   9
ENDBRANCH   7   8
ENDBRANCH   3   7
BRANCH   6  21
HETATM   21  C   UNL     1      42.757 -14.383   3.910  1.00  0.00     0.125 A 
HETATM   22  O   UNL     1      43.276 -15.337   4.745  1.00  0.00    -0.303 OA
HETATM   23  C   UNL     1      43.364 -16.508   4.050  1.00  0.00     0.119 A 
HETATM   24  C   UNL     1      42.888 -16.324   2.758  1.00  0.00     0.003 A 
HETATM   25  C   UNL     1      43.863 -17.718   4.549  1.00  0.00     0.102 A 
HETATM   26  C   UNL     1      42.507 -14.961   2.677  1.00  0.00     0.055 A 
HETATM   27  C   UNL     1      42.884 -17.418   1.878  1.00  0.00     0.014 A 
HETATM   28  C   UNL     1      43.365 -18.648   2.340  1.00  0.00     0.004 A 
HETATM   29  C   UNL     1      43.845 -18.794   3.649  1.00  0.00     0.040 A 
BRANCH  25  30
HETATM   30  O   UNL     1      44.308 -17.754   5.839  1.00  0.00    -0.353 OA
HETATM   31  C   UNL     1      43.322 -17.913   6.851  1.00  0.00     0.210 C 
ENDBRANCH  25  30
ENDBRANCH   6  21
TORSDOF 8
ENDMDL
