MODEL 1
REMARK VINA RESULT:     -10.3      0.000      0.000
REMARK  6 active torsions:
REMARK  status: ('A' for Active; 'I' for Inactive)
REMARK    1  A    between atoms: N_9  and  C_10 
REMARK    2  A    between atoms: C_10  and  C_11 
REMARK       I    between atoms: C_11  and  N_12 
REMARK    3  A    between atoms: N_12  and  C_13 
REMARK    4  A    between atoms: C_14  and  C_15 
REMARK       I    between atoms: C_15  and  N_16 
REMARK    5  A    between atoms: N_16  and  C_17 
REMARK    6  A    between atoms: C_17  and  C_18 
ROOT
HETATM    1  C   UNL     1      42.180 -10.758   5.331  1.00  0.00     0.240 C 
HETATM    2  N   UNL     1      42.534 -11.173   6.606  1.00  0.00    -0.325 N 
HETATM    3  O   UNL     1      42.788  -9.959   4.631  1.00  0.00    -0.271 OA
HETATM    4  H   UNL     1      41.831 -11.705   7.105  1.00  0.00     0.169 HD
ENDROOT
BRANCH   1   5
HETATM    5  C   UNL     1      40.902 -11.443   4.834  1.00  0.00     0.240 C 
BRANCH   5   6
HETATM    6  N   UNL     1      41.001 -12.881   4.915  1.00  0.00    -0.259 N 
HETATM    7  C   UNL     1      40.148 -13.652   5.641  1.00  0.00     0.326 C 
HETATM    8  N   UNL     1      40.379 -14.968   5.342  1.00  0.00    -0.320 N 
HETATM    9  O   UNL     1      39.281 -13.263   6.407  1.00  0.00    -0.247 OA
HETATM   10  C   UNL     1      41.253 -15.133   4.198  1.00  0.00     0.144 C 
HETATM   11  H   UNL     1      39.862 -15.709   5.792  1.00  0.00     0.165 HD
HETATM   12  C   UNL     1      42.438 -16.029   4.508  1.00  0.00    -0.014 A 
HETATM   13  C   UNL     1      41.647 -13.650   3.981  1.00  0.00     0.261 C 
HETATM   14  C   UNL     1      40.395 -15.602   3.004  1.00  0.00     0.047 C 
HETATM   15  C   UNL     1      42.803 -17.085   3.645  1.00  0.00    -0.049 A 
HETATM   16  C   UNL     1      43.217 -15.806   5.658  1.00  0.00     0.011 A 
HETATM   17  C   UNL     1      43.888 -17.912   3.974  1.00  0.00     0.007 A 
HETATM   18  C   UNL     1      42.027 -17.386   2.386  1.00  0.00     0.039 C 
HETATM   19  C   UNL     1      44.635 -17.683   5.127  1.00  0.00     0.001 A 
HETATM   20  C   UNL     1      44.302 -16.626   5.967  1.00  0.00     0.001 A 
HETATM   21  C   UNL     1      41.247 -16.179   1.881  1.00  0.00     0.008 C 
HETATM   22  O   UNL     1      42.334 -13.219   3.061  1.00  0.00    -0.270 OA
ENDBRANCH   5   6
ENDBRANCH   1   5
BRANCH   2  23
HETATM   23  C   UNL     1      43.657 -10.809   7.385  1.00  0.00     0.050 A 
HETATM   24  C   UNL     1      43.680 -10.266   8.678  1.00  0.00     0.058 A 
HETATM   25  C   UNL     1      44.919 -10.057   9.323  1.00  0.00     0.019 A 
HETATM   26  C   UNL     1      46.126 -10.338   8.685  1.00  0.00     0.001 A 
HETATM   27  C   UNL     1      46.112 -10.821   7.386  1.00  0.00     0.002 A 
HETATM   28  C   UNL     1      44.893 -11.047   6.743  1.00  0.00     0.030 A 
BRANCH  24  29
HETATM   29  C   UNL     1      42.523  -9.742   9.444  1.00  0.00     0.254 C 
HETATM   30  N   UNL     1      42.356 -10.226  10.726  1.00  0.00    -0.351 N 
HETATM   31  H   UNL     1      43.133 -10.693  11.184  1.00  0.00     0.163 HD
HETATM   32  O   UNL     1      41.707  -9.017   8.880  1.00  0.00    -0.268 OA
BRANCH  30  33
HETATM   33  C   UNL     1      41.331  -9.647  11.558  1.00  0.00     0.187 C 
BRANCH  33  34
HETATM   34  C   UNL     1      41.949  -8.785  12.594  1.00  0.00     0.070 A 
HETATM   35  O   UNL     1      41.379  -8.804  13.833  1.00  0.00    -0.325 OA
HETATM   36  C   UNL     1      42.127  -8.001  14.631  1.00  0.00     0.142 A 
HETATM   37  C   UNL     1      43.166  -7.452  13.919  1.00  0.00     0.027 A 
HETATM   38  C   UNL     1      43.053  -7.956  12.602  1.00  0.00     0.036 A 
ENDBRANCH  33  34
ENDBRANCH  30  33
ENDBRANCH  24  29
ENDBRANCH   2  23
TORSDOF 6
ENDMDL
MODEL 2
REMARK VINA RESULT:      -9.9      2.533      4.815
REMARK  6 active torsions:
REMARK  status: ('A' for Active; 'I' for Inactive)
REMARK    1  A    between atoms: N_9  and  C_10 
REMARK    2  A    between atoms: C_10  and  C_11 
REMARK       I    between atoms: C_11  and  N_12 
REMARK    3  A    between atoms: N_12  and  C_13 
REMARK    4  A    between atoms: C_14  and  C_15 
REMARK       I    between atoms: C_15  and  N_16 
REMARK    5  A    between atoms: N_16  and  C_17 
REMARK    6  A    between atoms: C_17  and  C_18 
ROOT
HETATM    1  C   UNL     1      40.017 -13.031   3.708  1.00  0.00     0.240 C 
HETATM    2  N   UNL     1      40.399 -11.854   3.080  1.00  0.00    -0.325 N 
HETATM    3  O   UNL     1      39.675 -13.154   4.877  1.00  0.00    -0.271 OA
HETATM    4  H   UNL     1      40.812 -11.962   2.162  1.00  0.00     0.169 HD
ENDROOT
BRANCH   1   5
HETATM    5  C   UNL     1      40.036 -14.229   2.752  1.00  0.00     0.240 C 
BRANCH   5   6
HETATM    6  N   UNL     1      41.244 -15.007   2.894  1.00  0.00    -0.259 N 
HETATM    7  C   UNL     1      42.459 -14.596   2.443  1.00  0.00     0.326 C 
HETATM    8  N   UNL     1      43.417 -15.452   2.914  1.00  0.00    -0.320 N 
HETATM    9  O   UNL     1      42.692 -13.608   1.766  1.00  0.00    -0.247 OA
HETATM   10  C   UNL     1      42.906 -16.359   3.923  1.00  0.00     0.144 C 
HETATM   11  H   UNL     1      44.392 -15.335   2.676  1.00  0.00     0.165 HD
HETATM   12  C   UNL     1      43.195 -17.810   3.585  1.00  0.00    -0.014 A 
HETATM   13  C   UNL     1      41.402 -15.997   3.831  1.00  0.00     0.261 C 
HETATM   14  C   UNL     1      43.447 -15.905   5.294  1.00  0.00     0.047 C 
HETATM   15  C   UNL     1      43.745 -18.689   4.543  1.00  0.00    -0.049 A 
HETATM   16  C   UNL     1      42.891 -18.318   2.308  1.00  0.00     0.011 A 
HETATM   17  C   UNL     1      44.024 -20.019   4.191  1.00  0.00     0.007 A 
HETATM   18  C   UNL     1      44.090 -18.229   5.938  1.00  0.00     0.039 C 
HETATM   19  C   UNL     1      43.732 -20.495   2.915  1.00  0.00     0.001 A 
HETATM   20  C   UNL     1      43.161 -19.645   1.976  1.00  0.00     0.001 A 
HETATM   21  C   UNL     1      43.305 -16.991   6.353  1.00  0.00     0.008 C 
HETATM   22  O   UNL     1      40.514 -16.438   4.551  1.00  0.00    -0.270 OA
ENDBRANCH   5   6
ENDBRANCH   1   5
BRANCH   2  23
HETATM   23  C   UNL     1      40.468 -10.543   3.605  1.00  0.00     0.050 A 
HETATM   24  C   UNL     1      41.541  -9.925   4.265  1.00  0.00     0.058 A 
HETATM   25  C   UNL     1      41.441  -8.566   4.632  1.00  0.00     0.019 A 
HETATM   26  C   UNL     1      40.280  -7.832   4.393  1.00  0.00     0.001 A 
HETATM   27  C   UNL     1      39.196  -8.452   3.794  1.00  0.00     0.002 A 
HETATM   28  C   UNL     1      39.288  -9.792   3.411  1.00  0.00     0.030 A 
BRANCH  24  29
HETATM   29  C   UNL     1      42.776 -10.580   4.761  1.00  0.00     0.254 C 
HETATM   30  N   UNL     1      43.038 -10.469   6.112  1.00  0.00    -0.351 N 
HETATM   31  H   UNL     1      42.290 -10.193   6.740  1.00  0.00     0.163 HD
HETATM   32  O   UNL     1      43.562 -11.070   3.954  1.00  0.00    -0.268 OA
BRANCH  30  33
HETATM   33  C   UNL     1      44.150 -11.202   6.665  1.00  0.00     0.187 C 
BRANCH  33  34
HETATM   34  C   UNL     1      44.609 -10.554   7.916  1.00  0.00     0.070 A 
HETATM   35  O   UNL     1      44.088 -11.029   9.084  1.00  0.00    -0.325 OA
HETATM   36  C   UNL     1      44.679 -10.344  10.095  1.00  0.00     0.142 A 
HETATM   37  C   UNL     1      45.566  -9.421   9.595  1.00  0.00     0.027 A 
HETATM   38  C   UNL     1      45.521  -9.554   8.186  1.00  0.00     0.036 A 
ENDBRANCH  33  34
ENDBRANCH  30  33
ENDBRANCH  24  29
ENDBRANCH   2  23
TORSDOF 6
ENDMDL
MODEL 3
REMARK VINA RESULT:      -9.5      3.866      7.027
REMARK  6 active torsions:
REMARK  status: ('A' for Active; 'I' for Inactive)
REMARK    1  A    between atoms: N_9  and  C_10 
REMARK    2  A    between atoms: C_10  and  C_11 
REMARK       I    between atoms: C_11  and  N_12 
REMARK    3  A    between atoms: N_12  and  C_13 
REMARK    4  A    between atoms: C_14  and  C_15 
REMARK       I    between atoms: C_15  and  N_16 
REMARK    5  A    between atoms: N_16  and  C_17 
REMARK    6  A    between atoms: C_17  and  C_18 
ROOT
HETATM    1  C   UNL     1      42.676 -12.432   2.765  1.00  0.00     0.240 C 
HETATM    2  N   UNL     1      42.091 -13.669   2.538  1.00  0.00    -0.325 N 
HETATM    3  O   UNL     1      43.744 -12.224   3.325  1.00  0.00    -0.271 OA
HETATM    4  H   UNL     1      41.132 -13.647   2.215  1.00  0.00     0.169 HD
ENDROOT
BRANCH   1   5
HETATM    5  C   UNL     1      41.836 -11.283   2.198  1.00  0.00     0.240 C 
BRANCH   5   6
HETATM    6  N   UNL     1      40.660 -11.766   1.514  1.00  0.00    -0.259 N 
HETATM    7  C   UNL     1      39.522 -12.145   2.156  1.00  0.00     0.326 C 
HETATM    8  N   UNL     1      38.538 -12.348   1.225  1.00  0.00    -0.320 N 
HETATM    9  O   UNL     1      39.362 -12.252   3.361  1.00  0.00    -0.247 OA
HETATM   10  C   UNL     1      38.911 -11.873  -0.092  1.00  0.00     0.144 C 
HETATM   11  H   UNL     1      37.615 -12.656   1.494  1.00  0.00     0.165 HD
HETATM   12  C   UNL     1      38.754 -12.946  -1.153  1.00  0.00    -0.014 A 
HETATM   13  C   UNL     1      40.390 -11.508   0.194  1.00  0.00     0.261 C 
HETATM   14  C   UNL     1      38.123 -10.577  -0.375  1.00  0.00     0.047 C 
HETATM   15  C   UNL     1      38.089 -12.681  -2.370  1.00  0.00    -0.049 A 
HETATM   16  C   UNL     1      39.295 -14.230  -0.953  1.00  0.00     0.011 A 
HETATM   17  C   UNL     1      37.937 -13.702  -3.320  1.00  0.00     0.007 A 
HETATM   18  C   UNL     1      37.489 -11.329  -2.668  1.00  0.00     0.039 C 
HETATM   19  C   UNL     1      38.466 -14.971  -3.093  1.00  0.00     0.001 A 
HETATM   20  C   UNL     1      39.149 -15.233  -1.911  1.00  0.00     0.001 A 
HETATM   21  C   UNL     1      38.133 -10.213  -1.854  1.00  0.00     0.008 C 
HETATM   22  O   UNL     1      41.161 -10.974  -0.594  1.00  0.00    -0.270 OA
ENDBRANCH   5   6
ENDBRANCH   1   5
BRANCH   2  23
HETATM   23  C   UNL     1      42.571 -14.958   2.867  1.00  0.00     0.050 A 
HETATM   24  C   UNL     1      42.626 -15.571   4.128  1.00  0.00     0.058 A 
HETATM   25  C   UNL     1      43.058 -16.911   4.231  1.00  0.00     0.019 A 
HETATM   26  C   UNL     1      43.475 -17.628   3.112  1.00  0.00     0.001 A 
HETATM   27  C   UNL     1      43.478 -17.011   1.871  1.00  0.00     0.002 A 
HETATM   28  C   UNL     1      43.037 -15.690   1.753  1.00  0.00     0.030 A 
BRANCH  24  29
HETATM   29  C   UNL     1      42.397 -14.923   5.443  1.00  0.00     0.254 C 
HETATM   30  N   UNL     1      43.404 -14.107   5.917  1.00  0.00    -0.351 N 
HETATM   31  H   UNL     1      44.115 -13.774   5.274  1.00  0.00     0.163 HD
HETATM   32  O   UNL     1      41.405 -15.230   6.099  1.00  0.00    -0.268 OA
BRANCH  30  33
HETATM   33  C   UNL     1      43.172 -13.347   7.121  1.00  0.00     0.187 C 
BRANCH  33  34
HETATM   34  C   UNL     1      44.159 -12.246   7.220  1.00  0.00     0.070 A 
HETATM   35  O   UNL     1      45.207 -12.277   6.347  1.00  0.00    -0.325 OA
HETATM   36  C   UNL     1      45.947 -11.161   6.569  1.00  0.00     0.142 A 
HETATM   37  C   UNL     1      45.397 -10.416   7.584  1.00  0.00     0.027 A 
HETATM   38  C   UNL     1      44.242 -11.116   8.008  1.00  0.00     0.036 A 
ENDBRANCH  33  34
ENDBRANCH  30  33
ENDBRANCH  24  29
ENDBRANCH   2  23
TORSDOF 6
ENDMDL
MODEL 4
REMARK VINA RESULT:      -9.4      3.218      5.008
REMARK  6 active torsions:
REMARK  status: ('A' for Active; 'I' for Inactive)
REMARK    1  A    between atoms: N_9  and  C_10 
REMARK    2  A    between atoms: C_10  and  C_11 
REMARK       I    between atoms: C_11  and  N_12 
REMARK    3  A    between atoms: N_12  and  C_13 
REMARK    4  A    between atoms: C_14  and  C_15 
REMARK       I    between atoms: C_15  and  N_16 
REMARK    5  A    between atoms: N_16  and  C_17 
REMARK    6  A    between atoms: C_17  and  C_18 
ROOT
HETATM    1  C   UNL     1      41.485 -11.283   1.814  1.00  0.00     0.240 C 
HETATM    2  N   UNL     1      40.240 -10.753   2.122  1.00  0.00    -0.325 N 
HETATM    3  O   UNL     1      42.570 -10.756   2.019  1.00  0.00    -0.271 OA
HETATM    4  H   UNL     1      39.446 -11.245   1.731  1.00  0.00     0.169 HD
ENDROOT
BRANCH   1   5
HETATM    5  C   UNL     1      41.380 -12.675   1.183  1.00  0.00     0.240 C 
BRANCH   5   6
HETATM    6  N   UNL     1      41.445 -13.719   2.177  1.00  0.00    -0.259 N 
HETATM    7  C   UNL     1      40.354 -14.206   2.827  1.00  0.00     0.326 C 
HETATM    8  N   UNL     1      40.723 -15.316   3.538  1.00  0.00    -0.320 N 
HETATM    9  O   UNL     1      39.214 -13.773   2.769  1.00  0.00    -0.247 OA
HETATM   10  C   UNL     1      42.055 -15.776   3.201  1.00  0.00     0.144 C 
HETATM   11  H   UNL     1      40.060 -15.820   4.110  1.00  0.00     0.165 HD
HETATM   12  C   UNL     1      42.936 -15.923   4.427  1.00  0.00    -0.014 A 
HETATM   13  C   UNL     1      42.484 -14.610   2.275  1.00  0.00     0.261 C 
HETATM   14  C   UNL     1      41.920 -17.061   2.357  1.00  0.00     0.047 C 
HETATM   15  C   UNL     1      43.700 -17.090   4.645  1.00  0.00    -0.049 A 
HETATM   16  C   UNL     1      43.030 -14.878   5.366  1.00  0.00     0.011 A 
HETATM   17  C   UNL     1      44.486 -17.205   5.802  1.00  0.00     0.007 A 
HETATM   18  C   UNL     1      43.666 -18.252   3.683  1.00  0.00     0.039 C 
HETATM   19  C   UNL     1      44.549 -16.165   6.727  1.00  0.00     0.001 A 
HETATM   20  C   UNL     1      43.824 -14.999   6.505  1.00  0.00     0.001 A 
HETATM   21  C   UNL     1      43.228 -17.837   2.284  1.00  0.00     0.008 C 
HETATM   22  O   UNL     1      43.533 -14.545   1.644  1.00  0.00    -0.270 OA
ENDBRANCH   5   6
ENDBRANCH   1   5
BRANCH   2  23
HETATM   23  C   UNL     1      39.921  -9.525   2.746  1.00  0.00     0.050 A 
HETATM   24  C   UNL     1      40.215  -9.112   4.055  1.00  0.00     0.058 A 
HETATM   25  C   UNL     1      39.888  -7.799   4.459  1.00  0.00     0.019 A 
HETATM   26  C   UNL     1      39.240  -6.914   3.600  1.00  0.00     0.001 A 
HETATM   27  C   UNL     1      38.896  -7.335   2.325  1.00  0.00     0.002 A 
HETATM   28  C   UNL     1      39.227  -8.626   1.907  1.00  0.00     0.030 A 
BRANCH  24  29
HETATM   29  C   UNL     1      40.735  -9.956   5.159  1.00  0.00     0.254 C 
HETATM   30  N   UNL     1      41.723  -9.404   5.949  1.00  0.00    -0.351 N 
HETATM   31  H   UNL     1      41.870  -8.400   5.929  1.00  0.00     0.163 HD
HETATM   32  O   UNL     1      40.369 -11.125   5.245  1.00  0.00    -0.268 OA
BRANCH  30  33
HETATM   33  C   UNL     1      42.162 -10.128   7.116  1.00  0.00     0.187 C 
BRANCH  33  34
HETATM   34  C   UNL     1      43.556 -10.596   6.924  1.00  0.00     0.070 A 
HETATM   35  O   UNL     1      44.440 -10.326   7.927  1.00  0.00    -0.325 OA
HETATM   36  C   UNL     1      45.626 -10.886   7.577  1.00  0.00     0.142 A 
HETATM   37  C   UNL     1      45.522 -11.502   6.354  1.00  0.00     0.027 A 
HETATM   38  C   UNL     1      44.185 -11.315   5.929  1.00  0.00     0.036 A 
ENDBRANCH  33  34
ENDBRANCH  30  33
ENDBRANCH  24  29
ENDBRANCH   2  23
TORSDOF 6
ENDMDL
MODEL 5
REMARK VINA RESULT:      -9.4      1.460      2.660
REMARK  6 active torsions:
REMARK  status: ('A' for Active; 'I' for Inactive)
REMARK    1  A    between atoms: N_9  and  C_10 
REMARK    2  A    between atoms: C_10  and  C_11 
REMARK       I    between atoms: C_11  and  N_12 
REMARK    3  A    between atoms: N_12  and  C_13 
REMARK    4  A    between atoms: C_14  and  C_15 
REMARK       I    between atoms: C_15  and  N_16 
REMARK    5  A    between atoms: N_16  and  C_17 
REMARK    6  A    between atoms: C_17  and  C_18 
ROOT
HETATM    1  C   UNL     1      41.617 -10.168   6.785  1.00  0.00     0.240 C 
HETATM    2  N   UNL     1      42.532 -10.781   7.630  1.00  0.00    -0.325 N 
HETATM    3  O   UNL     1      41.434  -8.964   6.662  1.00  0.00    -0.271 OA
HETATM    4  H   UNL     1      42.432 -11.784   7.730  1.00  0.00     0.169 HD
ENDROOT
BRANCH   1   5
HETATM    5  C   UNL     1      40.829 -11.184   5.953  1.00  0.00     0.240 C 
BRANCH   5   6
HETATM    6  N   UNL     1      41.700 -12.135   5.304  1.00  0.00    -0.259 N 
HETATM    7  C   UNL     1      42.800 -11.778   4.588  1.00  0.00     0.326 C 
HETATM    8  N   UNL     1      43.515 -12.906   4.288  1.00  0.00    -0.320 N 
HETATM    9  O   UNL     1      43.141 -10.646   4.287  1.00  0.00    -0.247 OA
HETATM   10  C   UNL     1      43.046 -14.072   5.009  1.00  0.00     0.144 C 
HETATM   11  H   UNL     1      44.363 -12.862   3.740  1.00  0.00     0.165 HD
HETATM   12  C   UNL     1      42.731 -15.230   4.080  1.00  0.00    -0.014 A 
HETATM   13  C   UNL     1      41.785 -13.455   5.666  1.00  0.00     0.261 C 
HETATM   14  C   UNL     1      44.074 -14.401   6.111  1.00  0.00     0.047 C 
HETATM   15  C   UNL     1      43.211 -16.531   4.344  1.00  0.00    -0.049 A 
HETATM   16  C   UNL     1      41.926 -15.033   2.943  1.00  0.00     0.011 A 
HETATM   17  C   UNL     1      42.924 -17.576   3.451  1.00  0.00     0.007 A 
HETATM   18  C   UNL     1      44.072 -16.831   5.546  1.00  0.00     0.039 C 
HETATM   19  C   UNL     1      42.140 -17.353   2.322  1.00  0.00     0.001 A 
HETATM   20  C   UNL     1      41.637 -16.082   2.071  1.00  0.00     0.001 A 
HETATM   21  C   UNL     1      43.892 -15.809   6.661  1.00  0.00     0.008 C 
HETATM   22  O   UNL     1      41.047 -14.019   6.466  1.00  0.00    -0.270 OA
ENDBRANCH   5   6
ENDBRANCH   1   5
BRANCH   2  23
HETATM   23  C   UNL     1      43.464 -10.192   8.515  1.00  0.00     0.050 A 
HETATM   24  C   UNL     1      43.258  -9.759   9.834  1.00  0.00     0.058 A 
HETATM   25  C   UNL     1      44.352  -9.280  10.587  1.00  0.00     0.019 A 
HETATM   26  C   UNL     1      45.628  -9.186  10.036  1.00  0.00     0.001 A 
HETATM   27  C   UNL     1      45.827  -9.558   8.716  1.00  0.00     0.002 A 
HETATM   28  C   UNL     1      44.756 -10.049   7.965  1.00  0.00     0.030 A 
BRANCH  24  29
HETATM   29  C   UNL     1      41.956  -9.616  10.531  1.00  0.00     0.254 C 
HETATM   30  N   UNL     1      41.816 -10.288  11.729  1.00  0.00    -0.351 N 
HETATM   31  H   UNL     1      42.645 -10.621  12.209  1.00  0.00     0.163 HD
HETATM   32  O   UNL     1      41.035  -9.029   9.969  1.00  0.00    -0.268 OA
BRANCH  30  33
HETATM   33  C   UNL     1      40.623 -10.069  12.510  1.00  0.00     0.187 C 
BRANCH  33  34
HETATM   34  C   UNL     1      40.866  -9.006  13.514  1.00  0.00     0.070 A 
HETATM   35  O   UNL     1      39.985  -7.965  13.534  1.00  0.00    -0.325 OA
HETATM   36  C   UNL     1      40.355  -7.147  14.553  1.00  0.00     0.142 A 
HETATM   37  C   UNL     1      41.472  -7.641  15.183  1.00  0.00     0.027 A 
HETATM   38  C   UNL     1      41.805  -8.842  14.512  1.00  0.00     0.036 A 
ENDBRANCH  33  34
ENDBRANCH  30  33
ENDBRANCH  24  29
ENDBRANCH   2  23
TORSDOF 6
ENDMDL
MODEL 6
REMARK VINA RESULT:      -9.3      1.864      2.066
REMARK  6 active torsions:
REMARK  status: ('A' for Active; 'I' for Inactive)
REMARK    1  A    between atoms: N_9  and  C_10 
REMARK    2  A    between atoms: C_10  and  C_11 
REMARK       I    between atoms: C_11  and  N_12 
REMARK    3  A    between atoms: N_12  and  C_13 
REMARK    4  A    between atoms: C_14  and  C_15 
REMARK       I    between atoms: C_15  and  N_16 
REMARK    5  A    between atoms: N_16  and  C_17 
REMARK    6  A    between atoms: C_17  and  C_18 
ROOT
HETATM    1  C   UNL     1      42.181 -10.813   3.935  1.00  0.00     0.240 C 
HETATM    2  N   UNL     1      42.621 -11.572   5.010  1.00  0.00    -0.325 N 
HETATM    3  O   UNL     1      42.362  -9.614   3.769  1.00  0.00    -0.271 OA
HETATM    4  H   UNL     1      42.238 -12.508   5.070  1.00  0.00     0.169 HD
ENDROOT
BRANCH   1   5
HETATM    5  C   UNL     1      41.427 -11.656   2.901  1.00  0.00     0.240 C 
BRANCH   5   6
HETATM    6  N   UNL     1      41.305 -13.032   3.320  1.00  0.00    -0.259 N 
HETATM    7  C   UNL     1      40.113 -13.674   3.451  1.00  0.00     0.326 C 
HETATM    8  N   UNL     1      40.350 -15.007   3.654  1.00  0.00    -0.320 N 
HETATM    9  O   UNL     1      39.001 -13.178   3.363  1.00  0.00    -0.247 OA
HETATM   10  C   UNL     1      41.735 -15.368   3.424  1.00  0.00     0.144 C 
HETATM   11  H   UNL     1      39.594 -15.660   3.797  1.00  0.00     0.165 HD
HETATM   12  C   UNL     1      42.339 -16.100   4.608  1.00  0.00    -0.014 A 
HETATM   13  C   UNL     1      42.322 -13.948   3.219  1.00  0.00     0.261 C 
HETATM   14  C   UNL     1      41.814 -16.139   2.090  1.00  0.00     0.047 C 
HETATM   15  C   UNL     1      43.068 -17.296   4.434  1.00  0.00    -0.049 A 
HETATM   16  C   UNL     1      42.205 -15.583   5.909  1.00  0.00     0.011 A 
HETATM   17  C   UNL     1      43.592 -17.964   5.552  1.00  0.00     0.007 A 
HETATM   18  C   UNL     1      43.268 -17.913   3.071  1.00  0.00     0.039 C 
HETATM   19  C   UNL     1      43.432 -17.442   6.833  1.00  0.00     0.001 A 
HETATM   20  C   UNL     1      42.742 -16.248   7.011  1.00  0.00     0.001 A 
HETATM   21  C   UNL     1      43.127 -16.897   1.945  1.00  0.00     0.008 C 
HETATM   22  O   UNL     1      43.479 -13.690   2.908  1.00  0.00    -0.270 OA
ENDBRANCH   5   6
ENDBRANCH   1   5
BRANCH   2  23
HETATM   23  C   UNL     1      43.380 -11.174   6.134  1.00  0.00     0.050 A 
HETATM   24  C   UNL     1      42.931 -10.564   7.315  1.00  0.00     0.058 A 
HETATM   25  C   UNL     1      43.844 -10.329   8.366  1.00  0.00     0.019 A 
HETATM   26  C   UNL     1      45.194 -10.650   8.241  1.00  0.00     0.001 A 
HETATM   27  C   UNL     1      45.655 -11.200   7.056  1.00  0.00     0.002 A 
HETATM   28  C   UNL     1      44.759 -11.452   6.014  1.00  0.00     0.030 A 
BRANCH  24  29
HETATM   29  C   UNL     1      41.585  -9.994   7.566  1.00  0.00     0.254 C 
HETATM   30  N   UNL     1      41.249  -9.752   8.883  1.00  0.00    -0.351 N 
HETATM   31  H   UNL     1      41.984  -9.715   9.583  1.00  0.00     0.163 HD
HETATM   32  O   UNL     1      40.795  -9.884   6.633  1.00  0.00    -0.268 OA
BRANCH  30  33
HETATM   33  C   UNL     1      40.010  -9.071   9.169  1.00  0.00     0.187 C 
BRANCH  33  34
HETATM   34  C   UNL     1      39.793  -9.014  10.634  1.00  0.00     0.070 A 
HETATM   35  O   UNL     1      39.915 -10.185  11.322  1.00  0.00    -0.325 OA
HETATM   36  C   UNL     1      39.737  -9.899  12.637  1.00  0.00     0.142 A 
HETATM   37  C   UNL     1      39.488  -8.558  12.806  1.00  0.00     0.027 A 
HETATM   38  C   UNL     1      39.522  -7.984  11.512  1.00  0.00     0.036 A 
ENDBRANCH  33  34
ENDBRANCH  30  33
ENDBRANCH  24  29
ENDBRANCH   2  23
TORSDOF 6
ENDMDL
MODEL 7
REMARK VINA RESULT:      -9.3      2.172      3.180
REMARK  6 active torsions:
REMARK  status: ('A' for Active; 'I' for Inactive)
REMARK    1  A    between atoms: N_9  and  C_10 
REMARK    2  A    between atoms: C_10  and  C_11 
REMARK       I    between atoms: C_11  and  N_12 
REMARK    3  A    between atoms: N_12  and  C_13 
REMARK    4  A    between atoms: C_14  and  C_15 
REMARK       I    between atoms: C_15  and  N_16 
REMARK    5  A    between atoms: N_16  and  C_17 
REMARK    6  A    between atoms: C_17  and  C_18 
ROOT
HETATM    1  C   UNL     1      41.853 -10.446   5.025  1.00  0.00     0.240 C 
HETATM    2  N   UNL     1      42.484 -11.077   6.088  1.00  0.00    -0.325 N 
HETATM    3  O   UNL     1      42.199  -9.400   4.492  1.00  0.00    -0.271 OA
HETATM    4  H   UNL     1      41.969 -11.839   6.512  1.00  0.00     0.169 HD
ENDROOT
BRANCH   1   5
HETATM    5  C   UNL     1      40.632 -11.228   4.531  1.00  0.00     0.240 C 
BRANCH   5   6
HETATM    6  N   UNL     1      40.793 -12.649   4.723  1.00  0.00    -0.259 N 
HETATM    7  C   UNL     1      39.955 -13.404   5.482  1.00  0.00     0.326 C 
HETATM    8  N   UNL     1      40.255 -14.726   5.289  1.00  0.00    -0.320 N 
HETATM    9  O   UNL     1      39.048 -13.001   6.192  1.00  0.00    -0.247 OA
HETATM   10  C   UNL     1      41.170 -14.934   4.185  1.00  0.00     0.144 C 
HETATM   11  H   UNL     1      39.758 -15.456   5.780  1.00  0.00     0.165 HD
HETATM   12  C   UNL     1      42.384 -15.747   4.593  1.00  0.00    -0.014 A 
HETATM   13  C   UNL     1      41.502 -13.454   3.867  1.00  0.00     0.261 C 
HETATM   14  C   UNL     1      40.371 -15.530   3.007  1.00  0.00     0.047 C 
HETATM   15  C   UNL     1      42.823 -16.845   3.823  1.00  0.00    -0.049 A 
HETATM   16  C   UNL     1      43.117 -15.402   5.744  1.00  0.00     0.011 A 
HETATM   17  C   UNL     1      43.935 -17.592   4.242  1.00  0.00     0.007 A 
HETATM   18  C   UNL     1      42.100 -17.275   2.570  1.00  0.00     0.039 C 
HETATM   19  C   UNL     1      44.634 -17.243   5.394  1.00  0.00     0.001 A 
HETATM   20  C   UNL     1      44.228 -16.145   6.142  1.00  0.00     0.001 A 
HETATM   21  C   UNL     1      41.281 -16.148   1.954  1.00  0.00     0.008 C 
HETATM   22  O   UNL     1      42.196 -13.060   2.937  1.00  0.00    -0.270 OA
ENDBRANCH   5   6
ENDBRANCH   1   5
BRANCH   2  23
HETATM   23  C   UNL     1      43.654 -10.698   6.785  1.00  0.00     0.050 A 
HETATM   24  C   UNL     1      43.783  -9.770   7.829  1.00  0.00     0.058 A 
HETATM   25  C   UNL     1      45.035  -9.602   8.459  1.00  0.00     0.019 A 
HETATM   26  C   UNL     1      46.161 -10.307   8.039  1.00  0.00     0.001 A 
HETATM   27  C   UNL     1      46.054 -11.183   6.971  1.00  0.00     0.002 A 
HETATM   28  C   UNL     1      44.817 -11.371   6.349  1.00  0.00     0.030 A 
BRANCH  24  29
HETATM   29  C   UNL     1      42.755  -8.807   8.295  1.00  0.00     0.254 C 
HETATM   30  N   UNL     1      43.155  -7.493   8.438  1.00  0.00    -0.351 N 
HETATM   31  H   UNL     1      44.012  -7.185   7.990  1.00  0.00     0.163 HD
HETATM   32  O   UNL     1      41.656  -9.225   8.650  1.00  0.00    -0.268 OA
BRANCH  30  33
HETATM   33  C   UNL     1      42.161  -6.497   8.754  1.00  0.00     0.187 C 
BRANCH  33  34
HETATM   34  C   UNL     1      41.606  -5.924   7.504  1.00  0.00     0.070 A 
HETATM   35  O   UNL     1      42.362  -6.057   6.377  1.00  0.00    -0.325 OA
HETATM   36  C   UNL     1      41.651  -5.524   5.351  1.00  0.00     0.142 A 
HETATM   37  C   UNL     1      40.450  -5.035   5.805  1.00  0.00     0.027 A 
HETATM   38  C   UNL     1      40.419  -5.292   7.197  1.00  0.00     0.036 A 
ENDBRANCH  33  34
ENDBRANCH  30  33
ENDBRANCH  24  29
ENDBRANCH   2  23
TORSDOF 6
ENDMDL
MODEL 8
REMARK VINA RESULT:      -9.0      2.174      9.290
REMARK  6 active torsions:
REMARK  status: ('A' for Active; 'I' for Inactive)
REMARK    1  A    between atoms: N_9  and  C_10 
REMARK    2  A    between atoms: C_10  and  C_11 
REMARK       I    between atoms: C_11  and  N_12 
REMARK    3  A    between atoms: N_12  and  C_13 
REMARK    4  A    between atoms: C_14  and  C_15 
REMARK       I    between atoms: C_15  and  N_16 
REMARK    5  A    between atoms: N_16  and  C_17 
REMARK    6  A    between atoms: C_17  and  C_18 
ROOT
HETATM    1  C   UNL     1      41.127  -8.971   7.310  1.00  0.00     0.240 C 
HETATM    2  N   UNL     1      41.804 -10.052   7.856  1.00  0.00    -0.325 N 
HETATM    3  O   UNL     1      41.563  -8.184   6.480  1.00  0.00    -0.271 OA
HETATM    4  H   UNL     1      41.355 -10.493   8.650  1.00  0.00     0.169 HD
ENDROOT
BRANCH   1   5
HETATM    5  C   UNL     1      39.695  -8.856   7.843  1.00  0.00     0.240 C 
BRANCH   5   6
HETATM    6  N   UNL     1      39.643  -9.029   9.275  1.00  0.00    -0.259 N 
HETATM    7  C   UNL     1      39.057 -10.097   9.881  1.00  0.00     0.326 C 
HETATM    8  N   UNL     1      39.360 -10.067  11.216  1.00  0.00    -0.320 N 
HETATM    9  O   UNL     1      38.403 -10.975   9.344  1.00  0.00    -0.247 OA
HETATM   10  C   UNL     1      40.383  -9.090  11.534  1.00  0.00     0.144 C 
HETATM   11  H   UNL     1      39.003 -10.765  11.853  1.00  0.00     0.165 HD
HETATM   12  C   UNL     1      39.944  -8.138  12.631  1.00  0.00    -0.014 A 
HETATM   13  C   UNL     1      40.504  -8.411  10.146  1.00  0.00     0.261 C 
HETATM   14  C   UNL     1      41.693  -9.848  11.834  1.00  0.00     0.047 C 
HETATM   15  C   UNL     1      40.780  -7.855  13.732  1.00  0.00    -0.049 A 
HETATM   16  C   UNL     1      38.695  -7.494  12.557  1.00  0.00     0.011 A 
HETATM   17  C   UNL     1      40.334  -6.990  14.743  1.00  0.00     0.007 A 
HETATM   18  C   UNL     1      42.138  -8.495  13.883  1.00  0.00     0.039 C 
HETATM   19  C   UNL     1      39.086  -6.378  14.658  1.00  0.00     0.001 A 
HETATM   20  C   UNL     1      38.269  -6.626  13.562  1.00  0.00     0.001 A 
HETATM   21  C   UNL     1      42.709  -8.971  12.553  1.00  0.00     0.008 C 
HETATM   22  O   UNL     1      41.312  -7.540   9.843  1.00  0.00    -0.270 OA
ENDBRANCH   5   6
ENDBRANCH   1   5
BRANCH   2  23
HETATM   23  C   UNL     1      43.114 -10.513   7.590  1.00  0.00     0.050 A 
HETATM   24  C   UNL     1      43.524 -11.474   6.653  1.00  0.00     0.058 A 
HETATM   25  C   UNL     1      44.901 -11.728   6.475  1.00  0.00     0.019 A 
HETATM   26  C   UNL     1      45.865 -11.075   7.241  1.00  0.00     0.001 A 
HETATM   27  C   UNL     1      45.464 -10.166   8.207  1.00  0.00     0.002 A 
HETATM   28  C   UNL     1      44.105  -9.895   8.382  1.00  0.00     0.030 A 
BRANCH  24  29
HETATM   29  C   UNL     1      42.651 -12.391   5.879  1.00  0.00     0.254 C 
HETATM   30  N   UNL     1      43.255 -13.122   4.876  1.00  0.00    -0.351 N 
HETATM   31  H   UNL     1      44.266 -13.214   4.869  1.00  0.00     0.163 HD
HETATM   32  O   UNL     1      41.438 -12.370   6.069  1.00  0.00    -0.268 OA
BRANCH  30  33
HETATM   33  C   UNL     1      42.481 -14.126   4.188  1.00  0.00     0.187 C 
BRANCH  33  34
HETATM   34  C   UNL     1      43.029 -15.472   4.480  1.00  0.00     0.070 A 
HETATM   35  O   UNL     1      42.976 -16.391   3.474  1.00  0.00    -0.325 OA
HETATM   36  C   UNL     1      43.575 -17.521   3.929  1.00  0.00     0.142 A 
HETATM   37  C   UNL     1      44.003 -17.347   5.224  1.00  0.00     0.027 A 
HETATM   38  C   UNL     1      43.650 -16.024   5.582  1.00  0.00     0.036 A 
ENDBRANCH  33  34
ENDBRANCH  30  33
ENDBRANCH  24  29
ENDBRANCH   2  23
TORSDOF 6
ENDMDL
MODEL 9
REMARK VINA RESULT:      -8.6      5.044      8.195
REMARK  6 active torsions:
REMARK  status: ('A' for Active; 'I' for Inactive)
REMARK    1  A    between atoms: N_9  and  C_10 
REMARK    2  A    between atoms: C_10  and  C_11 
REMARK       I    between atoms: C_11  and  N_12 
REMARK    3  A    between atoms: N_12  and  C_13 
REMARK    4  A    between atoms: C_14  and  C_15 
REMARK       I    between atoms: C_15  and  N_16 
REMARK    5  A    between atoms: N_16  and  C_17 
REMARK    6  A    between atoms: C_17  and  C_18 
ROOT
HETATM    1  C   UNL     1      40.031 -13.267   2.736  1.00  0.00     0.240 C 
HETATM    2  N   UNL     1      40.988 -12.291   2.495  1.00  0.00    -0.325 N 
HETATM    3  O   UNL     1      39.012 -13.137   3.402  1.00  0.00    -0.271 OA
HETATM    4  H   UNL     1      41.846 -12.617   2.068  1.00  0.00     0.169 HD
ENDROOT
BRANCH   1   5
HETATM    5  C   UNL     1      40.364 -14.588   2.036  1.00  0.00     0.240 C 
BRANCH   5   6
HETATM    6  N   UNL     1      41.504 -15.239   2.635  1.00  0.00    -0.259 N 
HETATM    7  C   UNL     1      42.783 -14.804   2.481  1.00  0.00     0.326 C 
HETATM    8  N   UNL     1      43.593 -15.503   3.335  1.00  0.00    -0.320 N 
HETATM    9  O   UNL     1      43.169 -13.911   1.743  1.00  0.00    -0.247 OA
HETATM   10  C   UNL     1      42.844 -16.288   4.295  1.00  0.00     0.144 C 
HETATM   11  H   UNL     1      44.590 -15.345   3.363  1.00  0.00     0.165 HD
HETATM   12  C   UNL     1      43.266 -17.746   4.295  1.00  0.00    -0.014 A 
HETATM   13  C   UNL     1      41.419 -16.064   3.728  1.00  0.00     0.261 C 
HETATM   14  C   UNL     1      42.950 -15.595   5.669  1.00  0.00     0.047 C 
HETATM   15  C   UNL     1      43.546 -18.427   5.499  1.00  0.00    -0.049 A 
HETATM   16  C   UNL     1      43.361 -18.459   3.085  1.00  0.00     0.011 A 
HETATM   17  C   UNL     1      43.959 -19.768   5.463  1.00  0.00     0.007 A 
HETATM   18  C   UNL     1      43.458 -17.740   6.839  1.00  0.00     0.039 C 
HETATM   19  C   UNL     1      44.064 -20.449   4.252  1.00  0.00     0.001 A 
HETATM   20  C   UNL     1      43.760 -19.795   3.064  1.00  0.00     0.001 A 
HETATM   21  C   UNL     1      42.545 -16.520   6.809  1.00  0.00     0.008 C 
HETATM   22  O   UNL     1      40.376 -16.463   4.234  1.00  0.00    -0.270 OA
ENDBRANCH   5   6
ENDBRANCH   1   5
BRANCH   2  23
HETATM   23  C   UNL     1      41.018 -10.944   2.924  1.00  0.00     0.050 A 
HETATM   24  C   UNL     1      40.529  -9.809   2.261  1.00  0.00     0.058 A 
HETATM   25  C   UNL     1      40.573  -8.554   2.908  1.00  0.00     0.019 A 
HETATM   26  C   UNL     1      41.133  -8.409   4.175  1.00  0.00     0.001 A 
HETATM   27  C   UNL     1      41.670  -9.516   4.812  1.00  0.00     0.002 A 
HETATM   28  C   UNL     1      41.618 -10.766   4.190  1.00  0.00     0.030 A 
BRANCH  24  29
HETATM   29  C   UNL     1      40.064  -9.731   0.855  1.00  0.00     0.254 C 
HETATM   30  N   UNL     1      40.937 -10.184  -0.114  1.00  0.00    -0.351 N 
HETATM   31  H   UNL     1      41.717 -10.773   0.160  1.00  0.00     0.163 HD
HETATM   32  O   UNL     1      39.004  -9.164   0.603  1.00  0.00    -0.268 OA
BRANCH  30  33
HETATM   33  C   UNL     1      40.480 -10.258  -1.479  1.00  0.00     0.187 C 
BRANCH  33  34
HETATM   34  C   UNL     1      40.339 -11.676  -1.888  1.00  0.00     0.070 A 
HETATM   35  O   UNL     1      39.460 -12.438  -1.176  1.00  0.00    -0.325 OA
HETATM   36  C   UNL     1      39.443 -13.669  -1.746  1.00  0.00     0.142 A 
HETATM   37  C   UNL     1      40.312 -13.717  -2.810  1.00  0.00     0.027 A 
HETATM   38  C   UNL     1      40.893 -12.429  -2.903  1.00  0.00     0.036 A 
ENDBRANCH  33  34
ENDBRANCH  30  33
ENDBRANCH  24  29
ENDBRANCH   2  23
TORSDOF 6
ENDMDL
MODEL 10
REMARK VINA RESULT:      -8.6     18.309     20.858
REMARK  6 active torsions:
REMARK  status: ('A' for Active; 'I' for Inactive)
REMARK    1  A    between atoms: N_9  and  C_10 
REMARK    2  A    between atoms: C_10  and  C_11 
REMARK       I    between atoms: C_11  and  N_12 
REMARK    3  A    between atoms: N_12  and  C_13 
REMARK    4  A    between atoms: C_14  and  C_15 
REMARK       I    between atoms: C_15  and  N_16 
REMARK    5  A    between atoms: N_16  and  C_17 
REMARK    6  A    between atoms: C_17  and  C_18 
ROOT
HETATM    1  C   UNL     1      45.525 -32.096   3.716  1.00  0.00     0.240 C 
HETATM    2  N   UNL     1      46.811 -32.554   3.465  1.00  0.00    -0.325 N 
HETATM    3  O   UNL     1      45.122 -31.591   4.755  1.00  0.00    -0.271 OA
HETATM    4  H   UNL     1      46.925 -33.095   2.617  1.00  0.00     0.169 HD
ENDROOT
BRANCH   1   5
HETATM    5  C   UNL     1      44.606 -32.261   2.501  1.00  0.00     0.240 C 
BRANCH   5   6
HETATM    6  N   UNL     1      44.569 -31.067   1.691  1.00  0.00    -0.259 N 
HETATM    7  C   UNL     1      43.813 -29.978   1.995  1.00  0.00     0.326 C 
HETATM    8  N   UNL     1      44.160 -28.953   1.156  1.00  0.00    -0.320 N 
HETATM    9  O   UNL     1      42.987 -29.886   2.888  1.00  0.00    -0.247 OA
HETATM   10  C   UNL     1      45.359 -29.238   0.394  1.00  0.00     0.144 C 
HETATM   11  H   UNL     1      43.699 -28.055   1.203  1.00  0.00     0.165 HD
HETATM   12  C   UNL     1      45.145 -29.059  -1.097  1.00  0.00    -0.014 A 
HETATM   13  C   UNL     1      45.560 -30.718   0.809  1.00  0.00     0.261 C 
HETATM   14  C   UNL     1      46.511 -28.394   0.978  1.00  0.00     0.047 C 
HETATM   15  C   UNL     1      46.055 -28.321  -1.885  1.00  0.00    -0.049 A 
HETATM   16  C   UNL     1      44.038 -29.651  -1.734  1.00  0.00     0.011 A 
HETATM   17  C   UNL     1      45.815 -28.152  -3.257  1.00  0.00     0.007 A 
HETATM   18  C   UNL     1      47.272 -27.663  -1.283  1.00  0.00     0.039 C 
HETATM   19  C   UNL     1      44.703 -28.732  -3.862  1.00  0.00     0.001 A 
HETATM   20  C   UNL     1      43.817 -29.486  -3.101  1.00  0.00     0.001 A 
HETATM   21  C   UNL     1      47.698 -28.313   0.027  1.00  0.00     0.008 C 
HETATM   22  O   UNL     1      46.508 -31.428   0.492  1.00  0.00    -0.270 OA
ENDBRANCH   5   6
ENDBRANCH   1   5
BRANCH   2  23
HETATM   23  C   UNL     1      47.945 -32.536   4.309  1.00  0.00     0.050 A 
HETATM   24  C   UNL     1      49.035 -31.654   4.282  1.00  0.00     0.058 A 
HETATM   25  C   UNL     1      50.030 -31.748   5.280  1.00  0.00     0.019 A 
HETATM   26  C   UNL     1      49.977 -32.728   6.269  1.00  0.00     0.001 A 
HETATM   27  C   UNL     1      48.933 -33.639   6.267  1.00  0.00     0.002 A 
HETATM   28  C   UNL     1      47.934 -33.547   5.295  1.00  0.00     0.030 A 
BRANCH  24  29
HETATM   29  C   UNL     1      49.358 -30.669   3.220  1.00  0.00     0.254 C 
HETATM   30  N   UNL     1      50.263 -31.069   2.258  1.00  0.00    -0.351 N 
HETATM   31  H   UNL     1      50.468 -32.057   2.151  1.00  0.00     0.163 HD
HETATM   32  O   UNL     1      48.919 -29.526   3.307  1.00  0.00    -0.268 OA
BRANCH  30  33
HETATM   33  C   UNL     1      50.504 -30.203   1.130  1.00  0.00     0.187 C 
BRANCH  33  34
HETATM   34  C   UNL     1      51.154 -30.966   0.038  1.00  0.00     0.070 A 
HETATM   35  O   UNL     1      51.193 -30.373  -1.190  1.00  0.00    -0.325 OA
HETATM   36  C   UNL     1      51.874 -31.206  -2.016  1.00  0.00     0.142 A 
HETATM   37  C   UNL     1      52.264 -32.338  -1.341  1.00  0.00     0.027 A 
HETATM   38  C   UNL     1      51.799 -32.185  -0.013  1.00  0.00     0.036 A 
ENDBRANCH  33  34
ENDBRANCH  30  33
ENDBRANCH  24  29
ENDBRANCH   2  23
TORSDOF 6
ENDMDL
