MODEL 1
REMARK VINA RESULT:      -8.3      0.000      0.000
REMARK  8 active torsions:
REMARK  status: ('A' for Active; 'I' for Inactive)
REMARK    1  A    between atoms: O_2  and  C_3 
REMARK    2  A    between atoms: C_4  and  O_5 
REMARK    3  A    between atoms: C_7  and  C_8 
REMARK    4  A    between atoms: N_9  and  N_10 
REMARK       I    between atoms: N_10  and  C_11 
REMARK    5  A    between atoms: C_11  and  C_12 
REMARK    6  A    between atoms: C_12  and  N_13 
REMARK       I    between atoms: N_13  and  C_14 
REMARK       I    between atoms: C_14  and  N_15 
REMARK    7  A    between atoms: N_15  and  C_16 
REMARK    8  A    between atoms: C_18  and  C_19 
ROOT
HETATM    1  C   UNL     1      45.367 -10.963   7.395  1.00  0.00     0.228 C 
ENDROOT
BRANCH   1   2
HETATM    2  C   UNL     1      44.687  -9.974   8.353  1.00  0.00     0.255 C 
HETATM    3  N   UNL     1      43.653 -10.532   9.088  1.00  0.00    -0.246 N 
HETATM    4  H   UNL     1      43.457 -11.531   8.990  1.00  0.00     0.192 HD
HETATM    5  O   UNL     1      45.129  -8.836   8.503  1.00  0.00    -0.270 OA
BRANCH   3   6
HETATM    6  N   UNL     1      42.995  -9.804  10.032  1.00  0.00    -0.184 NA
HETATM    7  C   UNL     1      43.315 -10.085  11.255  1.00  0.00     0.150 C 
BRANCH   7   8
HETATM    8  C   UNL     1      42.703  -9.373  12.393  1.00  0.00    -0.014 A 
HETATM    9  C   UNL     1      43.351  -8.256  12.917  1.00  0.00     0.052 A 
HETATM   10  C   UNL     1      42.769  -7.589  13.990  1.00  0.00     0.099 A 
HETATM   11  C   UNL     1      41.555  -8.008  14.553  1.00  0.00     0.101 A 
HETATM   12  C   UNL     1      40.914  -9.125  14.016  1.00  0.00     0.040 A 
HETATM   13  C   UNL     1      41.490  -9.808  12.939  1.00  0.00     0.016 A 
BRANCH  10  14
HETATM   14  O   UNL     1      43.418  -6.496  14.497  1.00  0.00    -0.358 OA
HETATM   15  H   UNL     1      43.578  -6.711  15.437  1.00  0.00     0.218 HD
ENDBRANCH  10  14
BRANCH  11  16
HETATM   16  O   UNL     1      41.112  -7.250  15.605  1.00  0.00    -0.353 OA
HETATM   17  C   UNL     1      41.123  -7.873  16.885  1.00  0.00     0.210 C 
ENDBRANCH  11  16
ENDBRANCH   7   8
ENDBRANCH   3   6
ENDBRANCH   1   2
BRANCH   1  18
HETATM   18  N   UNL     1      44.553 -11.411   6.265  1.00  0.00    -0.334 N 
HETATM   19  C   UNL     1      43.950 -12.646   6.281  1.00  0.00     0.321 C 
HETATM   20  N   UNL     1      43.312 -12.914   5.095  1.00  0.00    -0.309 N 
HETATM   21  O   UNL     1      43.948 -13.344   7.288  1.00  0.00    -0.247 OA
HETATM   22  H   UNL     1      43.155 -12.115   4.498  1.00  0.00     0.170 HD
HETATM   23  H   UNL     1      44.867 -11.098   5.359  1.00  0.00     0.164 HD
BRANCH  20  24
HETATM   24  C   UNL     1      42.634 -14.101   4.751  1.00  0.00     0.037 A 
HETATM   25  C   UNL     1      43.113 -15.017   3.811  1.00  0.00     0.045 A 
HETATM   26  C   UNL     1      42.394 -16.187   3.510  1.00  0.00     0.050 A 
HETATM   27  C   UNL     1      41.184 -16.433   4.175  1.00  0.00     0.016 A 
HETATM   28  C   UNL     1      40.693 -15.516   5.102  1.00  0.00     0.003 A 
HETATM   29  C   UNL     1      41.411 -14.352   5.382  1.00  0.00     0.029 A 
BRANCH  26  30
HETATM   30  C   UNL     1      42.929 -17.185   2.512  1.00  0.00     0.417 C 
HETATM   31  F   UNL     1      42.038 -18.161   2.184  1.00  0.00    -0.166 F 
HETATM   32  F   UNL     1      43.294 -16.599   1.339  1.00  0.00    -0.166 F 
HETATM   33  F   UNL     1      44.038 -17.836   2.965  1.00  0.00    -0.166 F 
ENDBRANCH  26  30
ENDBRANCH  20  24
ENDBRANCH   1  18
TORSDOF 8
ENDMDL
MODEL 2
REMARK VINA RESULT:      -8.2      5.332      6.995
REMARK  8 active torsions:
REMARK  status: ('A' for Active; 'I' for Inactive)
REMARK    1  A    between atoms: O_2  and  C_3 
REMARK    2  A    between atoms: C_4  and  O_5 
REMARK    3  A    between atoms: C_7  and  C_8 
REMARK    4  A    between atoms: N_9  and  N_10 
REMARK       I    between atoms: N_10  and  C_11 
REMARK    5  A    between atoms: C_11  and  C_12 
REMARK    6  A    between atoms: C_12  and  N_13 
REMARK       I    between atoms: N_13  and  C_14 
REMARK       I    between atoms: C_14  and  N_15 
REMARK    7  A    between atoms: N_15  and  C_16 
REMARK    8  A    between atoms: C_18  and  C_19 
ROOT
HETATM    1  C   UNL     1      39.934 -13.452  -0.286  1.00  0.00     0.228 C 
ENDROOT
BRANCH   1   2
HETATM    2  C   UNL     1      39.495 -12.353   0.693  1.00  0.00     0.255 C 
HETATM    3  N   UNL     1      39.116 -12.833   1.937  1.00  0.00    -0.246 N 
HETATM    4  H   UNL     1      39.202 -13.833   2.130  1.00  0.00     0.192 HD
HETATM    5  O   UNL     1      39.598 -11.164   0.394  1.00  0.00    -0.270 OA
BRANCH   3   6
HETATM    6  N   UNL     1      38.766 -11.980   2.938  1.00  0.00    -0.184 NA
HETATM    7  C   UNL     1      39.711 -11.720   3.785  1.00  0.00     0.150 C 
BRANCH   7   8
HETATM    8  C   UNL     1      39.498 -10.800   4.918  1.00  0.00    -0.014 A 
HETATM    9  C   UNL     1      39.195 -11.331   6.171  1.00  0.00     0.052 A 
HETATM   10  C   UNL     1      38.995 -10.458   7.235  1.00  0.00     0.099 A 
HETATM   11  C   UNL     1      39.091  -9.068   7.082  1.00  0.00     0.101 A 
HETATM   12  C   UNL     1      39.400  -8.549   5.824  1.00  0.00     0.040 A 
HETATM   13  C   UNL     1      39.601  -9.416   4.743  1.00  0.00     0.016 A 
BRANCH  10  14
HETATM   14  O   UNL     1      38.694 -10.994   8.458  1.00  0.00    -0.358 OA
HETATM   15  H   UNL     1      37.919 -11.569   8.299  1.00  0.00     0.218 HD
ENDBRANCH  10  14
BRANCH  11  16
HETATM   16  O   UNL     1      38.865  -8.342   8.222  1.00  0.00    -0.353 OA
HETATM   17  C   UNL     1      39.999  -7.708   8.805  1.00  0.00     0.210 C 
ENDBRANCH  11  16
ENDBRANCH   7   8
ENDBRANCH   3   6
ENDBRANCH   1   2
BRANCH   1  18
HETATM   18  N   UNL     1      41.200 -14.112   0.029  1.00  0.00    -0.334 N 
HETATM   19  C   UNL     1      41.256 -15.110   0.974  1.00  0.00     0.321 C 
HETATM   20  N   UNL     1      42.544 -15.532   1.188  1.00  0.00    -0.309 N 
HETATM   21  O   UNL     1      40.238 -15.578   1.469  1.00  0.00    -0.247 OA
HETATM   22  H   UNL     1      43.214 -15.258   0.483  1.00  0.00     0.170 HD
HETATM   23  H   UNL     1      42.016 -13.520  -0.018  1.00  0.00     0.164 HD
BRANCH  20  24
HETATM   24  C   UNL     1      42.970 -16.504   2.117  1.00  0.00     0.037 A 
HETATM   25  C   UNL     1      42.996 -17.874   1.842  1.00  0.00     0.045 A 
HETATM   26  C   UNL     1      43.435 -18.797   2.807  1.00  0.00     0.050 A 
HETATM   27  C   UNL     1      43.857 -18.325   4.058  1.00  0.00     0.016 A 
HETATM   28  C   UNL     1      43.820 -16.962   4.345  1.00  0.00     0.003 A 
HETATM   29  C   UNL     1      43.370 -16.057   3.381  1.00  0.00     0.029 A 
BRANCH  26  30
HETATM   30  C   UNL     1      43.484 -20.273   2.496  1.00  0.00     0.417 C 
HETATM   31  F   UNL     1      43.578 -21.062   3.601  1.00  0.00    -0.166 F 
HETATM   32  F   UNL     1      42.379 -20.697   1.823  1.00  0.00    -0.166 F 
HETATM   33  F   UNL     1      44.548 -20.608   1.712  1.00  0.00    -0.166 F 
ENDBRANCH  26  30
ENDBRANCH  20  24
ENDBRANCH   1  18
TORSDOF 8
ENDMDL
MODEL 3
REMARK VINA RESULT:      -8.1      1.527      1.718
REMARK  8 active torsions:
REMARK  status: ('A' for Active; 'I' for Inactive)
REMARK    1  A    between atoms: O_2  and  C_3 
REMARK    2  A    between atoms: C_4  and  O_5 
REMARK    3  A    between atoms: C_7  and  C_8 
REMARK    4  A    between atoms: N_9  and  N_10 
REMARK       I    between atoms: N_10  and  C_11 
REMARK    5  A    between atoms: C_11  and  C_12 
REMARK    6  A    between atoms: C_12  and  N_13 
REMARK       I    between atoms: N_13  and  C_14 
REMARK       I    between atoms: C_14  and  N_15 
REMARK    7  A    between atoms: N_15  and  C_16 
REMARK    8  A    between atoms: C_18  and  C_19 
ROOT
HETATM    1  C   UNL     1      43.643 -10.783   7.443  1.00  0.00     0.228 C 
ENDROOT
BRANCH   1   2
HETATM    2  C   UNL     1      43.814 -10.473   8.937  1.00  0.00     0.255 C 
HETATM    3  N   UNL     1      42.662 -10.002   9.544  1.00  0.00    -0.246 N 
HETATM    4  H   UNL     1      41.799  -9.946   8.997  1.00  0.00     0.192 HD
HETATM    5  O   UNL     1      44.863 -10.743   9.520  1.00  0.00    -0.270 OA
BRANCH   3   6
HETATM    6  N   UNL     1      42.631  -9.746  10.881  1.00  0.00    -0.184 NA
HETATM    7  C   UNL     1      42.298  -8.534  11.194  1.00  0.00     0.150 C 
BRANCH   7   8
HETATM    8  C   UNL     1      42.201  -8.102  12.601  1.00  0.00    -0.014 A 
HETATM    9  C   UNL     1      42.271  -6.741  12.896  1.00  0.00     0.052 A 
HETATM   10  C   UNL     1      42.179  -6.340  14.224  1.00  0.00     0.099 A 
HETATM   11  C   UNL     1      42.018  -7.263  15.268  1.00  0.00     0.101 A 
HETATM   12  C   UNL     1      41.944  -8.622  14.959  1.00  0.00     0.040 A 
HETATM   13  C   UNL     1      42.039  -9.040  13.627  1.00  0.00     0.016 A 
BRANCH  10  14
HETATM   14  O   UNL     1      42.253  -5.001  14.499  1.00  0.00    -0.358 OA
HETATM   15  H   UNL     1      41.425  -4.624  14.141  1.00  0.00     0.218 HD
ENDBRANCH  10  14
BRANCH  11  16
HETATM   16  O   UNL     1      41.946  -6.713  16.521  1.00  0.00    -0.353 OA
HETATM   17  C   UNL     1      41.117  -7.388  17.462  1.00  0.00     0.210 C 
ENDBRANCH  11  16
ENDBRANCH   7   8
ENDBRANCH   3   6
ENDBRANCH   1   2
BRANCH   1  18
HETATM   18  N   UNL     1      42.931 -12.021   7.130  1.00  0.00    -0.334 N 
HETATM   19  C   UNL     1      43.593 -13.090   6.573  1.00  0.00     0.321 C 
HETATM   20  N   UNL     1      42.733 -14.117   6.272  1.00  0.00    -0.309 N 
HETATM   21  O   UNL     1      44.813 -13.098   6.460  1.00  0.00    -0.247 OA
HETATM   22  H   UNL     1      41.824 -14.064   6.709  1.00  0.00     0.170 HD
HETATM   23  H   UNL     1      41.976 -11.903   6.827  1.00  0.00     0.164 HD
BRANCH  20  24
HETATM   24  C   UNL     1      43.063 -15.339   5.652  1.00  0.00     0.037 A 
HETATM   25  C   UNL     1      42.741 -15.643   4.326  1.00  0.00     0.045 A 
HETATM   26  C   UNL     1      43.100 -16.879   3.760  1.00  0.00     0.050 A 
HETATM   27  C   UNL     1      43.798 -17.809   4.542  1.00  0.00     0.016 A 
HETATM   28  C   UNL     1      44.110 -17.520   5.869  1.00  0.00     0.003 A 
HETATM   29  C   UNL     1      43.736 -16.293   6.423  1.00  0.00     0.029 A 
BRANCH  26  30
HETATM   30  C   UNL     1      42.770 -17.191   2.320  1.00  0.00     0.417 C 
HETATM   31  F   UNL     1      41.447 -17.067   2.023  1.00  0.00    -0.166 F 
HETATM   32  F   UNL     1      43.429 -16.377   1.450  1.00  0.00    -0.166 F 
HETATM   33  F   UNL     1      43.110 -18.463   1.969  1.00  0.00    -0.166 F 
ENDBRANCH  26  30
ENDBRANCH  20  24
ENDBRANCH   1  18
TORSDOF 8
ENDMDL
MODEL 4
REMARK VINA RESULT:      -8.0      5.712     11.561
REMARK  8 active torsions:
REMARK  status: ('A' for Active; 'I' for Inactive)
REMARK    1  A    between atoms: O_2  and  C_3 
REMARK    2  A    between atoms: C_4  and  O_5 
REMARK    3  A    between atoms: C_7  and  C_8 
REMARK    4  A    between atoms: N_9  and  N_10 
REMARK       I    between atoms: N_10  and  C_11 
REMARK    5  A    between atoms: C_11  and  C_12 
REMARK    6  A    between atoms: C_12  and  N_13 
REMARK       I    between atoms: N_13  and  C_14 
REMARK       I    between atoms: C_14  and  N_15 
REMARK    7  A    between atoms: N_15  and  C_16 
REMARK    8  A    between atoms: C_18  and  C_19 
ROOT
HETATM    1  C   UNL     1      44.200 -10.481   8.106  1.00  0.00     0.228 C 
ENDROOT
BRANCH   1   2
HETATM    2  C   UNL     1      44.570 -11.727   7.289  1.00  0.00     0.255 C 
HETATM    3  N   UNL     1      43.616 -12.731   7.341  1.00  0.00    -0.246 N 
HETATM    4  H   UNL     1      42.745 -12.562   7.851  1.00  0.00     0.192 HD
HETATM    5  O   UNL     1      45.574 -11.740   6.579  1.00  0.00    -0.270 OA
BRANCH   3   6
HETATM    6  N   UNL     1      43.763 -13.873   6.615  1.00  0.00    -0.184 NA
HETATM    7  C   UNL     1      42.998 -13.956   5.574  1.00  0.00     0.150 C 
BRANCH   7   8
HETATM    8  C   UNL     1      43.048 -15.124   4.673  1.00  0.00    -0.014 A 
HETATM    9  C   UNL     1      43.099 -14.913   3.296  1.00  0.00     0.052 A 
HETATM   10  C   UNL     1      43.147 -16.018   2.454  1.00  0.00     0.099 A 
HETATM   11  C   UNL     1      43.147 -17.330   2.949  1.00  0.00     0.101 A 
HETATM   12  C   UNL     1      43.102 -17.527   4.329  1.00  0.00     0.040 A 
HETATM   13  C   UNL     1      43.050 -16.424   5.190  1.00  0.00     0.016 A 
BRANCH  10  14
HETATM   14  O   UNL     1      43.191 -15.795   1.104  1.00  0.00    -0.358 OA
HETATM   15  H   UNL     1      44.059 -15.374   0.945  1.00  0.00     0.218 HD
ENDBRANCH  10  14
BRANCH  11  16
HETATM   16  O   UNL     1      43.195 -18.310   1.993  1.00  0.00    -0.353 OA
HETATM   17  C   UNL     1      43.563 -19.611   2.438  1.00  0.00     0.210 C 
ENDBRANCH  11  16
ENDBRANCH   7   8
ENDBRANCH   3   6
ENDBRANCH   1   2
BRANCH   1  18
HETATM   18  N   UNL     1      43.210 -10.687   9.163  1.00  0.00    -0.334 N 
HETATM   19  C   UNL     1      42.940  -9.694  10.075  1.00  0.00     0.321 C 
HETATM   20  N   UNL     1      42.055 -10.116  11.035  1.00  0.00    -0.309 N 
HETATM   21  O   UNL     1      43.401  -8.566   9.947  1.00  0.00    -0.247 OA
HETATM   22  H   UNL     1      41.547 -10.961  10.816  1.00  0.00     0.170 HD
HETATM   23  H   UNL     1      43.158 -11.627   9.524  1.00  0.00     0.164 HD
BRANCH  20  24
HETATM   24  C   UNL     1      41.596  -9.376  12.144  1.00  0.00     0.037 A 
HETATM   25  C   UNL     1      40.488  -8.525  12.096  1.00  0.00     0.045 A 
HETATM   26  C   UNL     1      40.074  -7.813  13.236  1.00  0.00     0.050 A 
HETATM   27  C   UNL     1      40.785  -7.974  14.434  1.00  0.00     0.016 A 
HETATM   28  C   UNL     1      41.899  -8.809  14.485  1.00  0.00     0.003 A 
HETATM   29  C   UNL     1      42.307  -9.500  13.342  1.00  0.00     0.029 A 
BRANCH  26  30
HETATM   30  C   UNL     1      38.863  -6.914  13.186  1.00  0.00     0.417 C 
HETATM   31  F   UNL     1      39.123  -5.674  12.689  1.00  0.00    -0.166 F 
HETATM   32  F   UNL     1      37.869  -7.429  12.410  1.00  0.00    -0.166 F 
HETATM   33  F   UNL     1      38.309  -6.711  14.414  1.00  0.00    -0.166 F 
ENDBRANCH  26  30
ENDBRANCH  20  24
ENDBRANCH   1  18
TORSDOF 8
ENDMDL
MODEL 5
REMARK VINA RESULT:      -8.0      5.827     11.649
REMARK  8 active torsions:
REMARK  status: ('A' for Active; 'I' for Inactive)
REMARK    1  A    between atoms: O_2  and  C_3 
REMARK    2  A    between atoms: C_4  and  O_5 
REMARK    3  A    between atoms: C_7  and  C_8 
REMARK    4  A    between atoms: N_9  and  N_10 
REMARK       I    between atoms: N_10  and  C_11 
REMARK    5  A    between atoms: C_11  and  C_12 
REMARK    6  A    between atoms: C_12  and  N_13 
REMARK       I    between atoms: N_13  and  C_14 
REMARK       I    between atoms: C_14  and  N_15 
REMARK    7  A    between atoms: N_15  and  C_16 
REMARK    8  A    between atoms: C_18  and  C_19 
ROOT
HETATM    1  C   UNL     1      44.391 -10.581   8.049  1.00  0.00     0.228 C 
ENDROOT
BRANCH   1   2
HETATM    2  C   UNL     1      44.715 -11.812   7.191  1.00  0.00     0.255 C 
HETATM    3  N   UNL     1      43.764 -12.815   7.274  1.00  0.00    -0.246 N 
HETATM    4  H   UNL     1      42.921 -12.656   7.832  1.00  0.00     0.192 HD
HETATM    5  O   UNL     1      45.681 -11.813   6.429  1.00  0.00    -0.270 OA
BRANCH   3   6
HETATM    6  N   UNL     1      43.870 -13.944   6.520  1.00  0.00    -0.184 NA
HETATM    7  C   UNL     1      42.888 -14.143   5.699  1.00  0.00     0.150 C 
BRANCH   7   8
HETATM    8  C   UNL     1      42.862 -15.311   4.799  1.00  0.00    -0.014 A 
HETATM    9  C   UNL     1      41.955 -15.329   3.741  1.00  0.00     0.052 A 
HETATM   10  C   UNL     1      41.936 -16.434   2.897  1.00  0.00     0.099 A 
HETATM   11  C   UNL     1      42.801 -17.522   3.080  1.00  0.00     0.101 A 
HETATM   12  C   UNL     1      43.709 -17.490   4.139  1.00  0.00     0.040 A 
HETATM   13  C   UNL     1      43.736 -16.386   4.999  1.00  0.00     0.016 A 
BRANCH  10  14
HETATM   14  O   UNL     1      41.036 -16.440   1.866  1.00  0.00    -0.358 OA
HETATM   15  H   UNL     1      40.651 -15.541   1.861  1.00  0.00     0.218 HD
ENDBRANCH  10  14
BRANCH  11  16
HETATM   16  O   UNL     1      42.659 -18.535   2.167  1.00  0.00    -0.353 OA
HETATM   17  C   UNL     1      43.497 -19.671   2.347  1.00  0.00     0.210 C 
ENDBRANCH  11  16
ENDBRANCH   7   8
ENDBRANCH   3   6
ENDBRANCH   1   2
BRANCH   1  18
HETATM   18  N   UNL     1      43.510 -10.820   9.192  1.00  0.00    -0.334 N 
HETATM   19  C   UNL     1      43.018  -9.769   9.930  1.00  0.00     0.321 C 
HETATM   20  N   UNL     1      42.290 -10.206  11.009  1.00  0.00    -0.309 N 
HETATM   21  O   UNL     1      43.176  -8.608   9.574  1.00  0.00    -0.247 OA
HETATM   22  H   UNL     1      42.007 -11.175  10.978  1.00  0.00     0.170 HD
HETATM   23  H   UNL     1      43.705 -11.659   9.716  1.00  0.00     0.164 HD
BRANCH  20  24
HETATM   24  C   UNL     1      41.684  -9.405  11.998  1.00  0.00     0.037 A 
HETATM   25  C   UNL     1      42.403  -8.597  12.883  1.00  0.00     0.045 A 
HETATM   26  C   UNL     1      41.742  -7.816  13.848  1.00  0.00     0.050 A 
HETATM   27  C   UNL     1      40.342  -7.849  13.908  1.00  0.00     0.016 A 
HETATM   28  C   UNL     1      39.619  -8.664  13.040  1.00  0.00     0.003 A 
HETATM   29  C   UNL     1      40.289  -9.444  12.094  1.00  0.00     0.029 A 
BRANCH  26  30
HETATM   30  C   UNL     1      42.523  -6.926  14.785  1.00  0.00     0.417 C 
HETATM   31  F   UNL     1      43.858  -6.890  14.518  1.00  0.00    -0.166 F 
HETATM   32  F   UNL     1      42.096  -5.634  14.747  1.00  0.00    -0.166 F 
HETATM   33  F   UNL     1      42.417  -7.316  16.087  1.00  0.00    -0.166 F 
ENDBRANCH  26  30
ENDBRANCH  20  24
ENDBRANCH   1  18
TORSDOF 8
ENDMDL
MODEL 6
REMARK VINA RESULT:      -7.9      9.148     12.079
REMARK  8 active torsions:
REMARK  status: ('A' for Active; 'I' for Inactive)
REMARK    1  A    between atoms: O_2  and  C_3 
REMARK    2  A    between atoms: C_4  and  O_5 
REMARK    3  A    between atoms: C_7  and  C_8 
REMARK    4  A    between atoms: N_9  and  N_10 
REMARK       I    between atoms: N_10  and  C_11 
REMARK    5  A    between atoms: C_11  and  C_12 
REMARK    6  A    between atoms: C_12  and  N_13 
REMARK       I    between atoms: N_13  and  C_14 
REMARK       I    between atoms: C_14  and  N_15 
REMARK    7  A    between atoms: N_15  and  C_16 
REMARK    8  A    between atoms: C_18  and  C_19 
ROOT
HETATM    1  C   UNL     1      40.043 -13.415  -0.160  1.00  0.00     0.228 C 
ENDROOT
BRANCH   1   2
HETATM    2  C   UNL     1      40.117 -12.494  -1.387  1.00  0.00     0.255 C 
HETATM    3  N   UNL     1      40.181 -11.147  -1.070  1.00  0.00    -0.246 N 
HETATM    4  H   UNL     1      40.229 -10.870  -0.086  1.00  0.00     0.192 HD
HETATM    5  O   UNL     1      40.223 -12.961  -2.520  1.00  0.00    -0.270 OA
BRANCH   3   6
HETATM    6  N   UNL     1      40.320 -10.206  -2.044  1.00  0.00    -0.184 NA
HETATM    7  C   UNL     1      41.286  -9.364  -1.852  1.00  0.00     0.150 C 
BRANCH   7   8
HETATM    8  C   UNL     1      41.578  -8.294  -2.824  1.00  0.00    -0.014 A 
HETATM    9  C   UNL     1      42.222  -7.139  -2.383  1.00  0.00     0.052 A 
HETATM   10  C   UNL     1      42.496  -6.134  -3.305  1.00  0.00     0.099 A 
HETATM   11  C   UNL     1      42.144  -6.252  -4.657  1.00  0.00     0.101 A 
HETATM   12  C   UNL     1      41.505  -7.416  -5.087  1.00  0.00     0.040 A 
HETATM   13  C   UNL     1      41.220  -8.434  -4.169  1.00  0.00     0.016 A 
BRANCH  10  14
HETATM   14  O   UNL     1      43.124  -5.004  -2.856  1.00  0.00    -0.358 OA
HETATM   15  H   UNL     1      42.665  -4.773  -2.024  1.00  0.00     0.218 HD
ENDBRANCH  10  14
BRANCH  11  16
HETATM   16  O   UNL     1      42.478  -5.178  -5.439  1.00  0.00    -0.353 OA
HETATM   17  C   UNL     1      42.236  -5.310  -6.835  1.00  0.00     0.210 C 
ENDBRANCH  11  16
ENDBRANCH   7   8
ENDBRANCH   3   6
ENDBRANCH   1   2
BRANCH   1  18
HETATM   18  N   UNL     1      41.318 -13.971   0.292  1.00  0.00    -0.334 N 
HETATM   19  C   UNL     1      41.351 -15.086   1.096  1.00  0.00     0.321 C 
HETATM   20  N   UNL     1      42.632 -15.391   1.485  1.00  0.00    -0.309 N 
HETATM   21  O   UNL     1      40.338 -15.732   1.335  1.00  0.00    -0.247 OA
HETATM   22  H   UNL     1      43.365 -14.944   0.953  1.00  0.00     0.170 HD
HETATM   23  H   UNL     1      42.043 -13.293   0.469  1.00  0.00     0.164 HD
BRANCH  20  24
HETATM   24  C   UNL     1      43.026 -16.438   2.344  1.00  0.00     0.037 A 
HETATM   25  C   UNL     1      43.024 -17.784   1.970  1.00  0.00     0.045 A 
HETATM   26  C   UNL     1      43.431 -18.785   2.869  1.00  0.00     0.050 A 
HETATM   27  C   UNL     1      43.852 -18.415   4.154  1.00  0.00     0.016 A 
HETATM   28  C   UNL     1      43.843 -17.076   4.539  1.00  0.00     0.003 A 
HETATM   29  C   UNL     1      43.424 -16.093   3.640  1.00  0.00     0.029 A 
BRANCH  26  30
HETATM   30  C   UNL     1      43.450 -20.235   2.451  1.00  0.00     0.417 C 
HETATM   31  F   UNL     1      43.587 -21.102   3.492  1.00  0.00    -0.166 F 
HETATM   32  F   UNL     1      42.310 -20.602   1.804  1.00  0.00    -0.166 F 
HETATM   33  F   UNL     1      44.472 -20.521   1.596  1.00  0.00    -0.166 F 
ENDBRANCH  26  30
ENDBRANCH  20  24
ENDBRANCH   1  18
TORSDOF 8
ENDMDL
MODEL 7
REMARK VINA RESULT:      -7.9      5.682     11.835
REMARK  8 active torsions:
REMARK  status: ('A' for Active; 'I' for Inactive)
REMARK    1  A    between atoms: O_2  and  C_3 
REMARK    2  A    between atoms: C_4  and  O_5 
REMARK    3  A    between atoms: C_7  and  C_8 
REMARK    4  A    between atoms: N_9  and  N_10 
REMARK       I    between atoms: N_10  and  C_11 
REMARK    5  A    between atoms: C_11  and  C_12 
REMARK    6  A    between atoms: C_12  and  N_13 
REMARK       I    between atoms: N_13  and  C_14 
REMARK       I    between atoms: C_14  and  N_15 
REMARK    7  A    between atoms: N_15  and  C_16 
REMARK    8  A    between atoms: C_18  and  C_19 
ROOT
HETATM    1  C   UNL     1      43.002 -10.521   6.703  1.00  0.00     0.228 C 
ENDROOT
BRANCH   1   2
HETATM    2  C   UNL     1      43.312 -12.025   6.708  1.00  0.00     0.255 C 
HETATM    3  N   UNL     1      42.718 -12.720   5.668  1.00  0.00    -0.246 N 
HETATM    4  H   UNL     1      42.183 -12.203   4.966  1.00  0.00     0.192 HD
HETATM    5  O   UNL     1      44.112 -12.501   7.513  1.00  0.00    -0.270 OA
BRANCH   3   6
HETATM    6  N   UNL     1      42.951 -14.050   5.493  1.00  0.00    -0.184 NA
HETATM    7  C   UNL     1      42.897 -14.454   4.263  1.00  0.00     0.150 C 
BRANCH   7   8
HETATM    8  C   UNL     1      43.144 -15.863   3.905  1.00  0.00    -0.014 A 
HETATM    9  C   UNL     1      43.483 -16.767   4.910  1.00  0.00     0.052 A 
HETATM   10  C   UNL     1      43.713 -18.094   4.565  1.00  0.00     0.099 A 
HETATM   11  C   UNL     1      43.612 -18.544   3.241  1.00  0.00     0.101 A 
HETATM   12  C   UNL     1      43.266 -17.632   2.244  1.00  0.00     0.040 A 
HETATM   13  C   UNL     1      43.035 -16.291   2.577  1.00  0.00     0.016 A 
BRANCH  10  14
HETATM   14  O   UNL     1      44.050 -18.969   5.563  1.00  0.00    -0.358 OA
HETATM   15  H   UNL     1      43.580 -19.797   5.342  1.00  0.00     0.218 HD
ENDBRANCH  10  14
BRANCH  11  16
HETATM   16  O   UNL     1      43.871 -19.878   3.061  1.00  0.00    -0.353 OA
HETATM   17  C   UNL     1      43.553 -20.418   1.783  1.00  0.00     0.210 C 
ENDBRANCH  11  16
ENDBRANCH   7   8
ENDBRANCH   3   6
ENDBRANCH   1   2
BRANCH   1  18
HETATM   18  N   UNL     1      43.606  -9.746   7.786  1.00  0.00    -0.334 N 
HETATM   19  C   UNL     1      42.819  -9.103   8.713  1.00  0.00     0.321 C 
HETATM   20  N   UNL     1      43.572  -8.359   9.586  1.00  0.00    -0.309 N 
HETATM   21  O   UNL     1      41.607  -9.278   8.753  1.00  0.00    -0.247 OA
HETATM   22  H   UNL     1      44.559  -8.572   9.599  1.00  0.00     0.170 HD
HETATM   23  H   UNL     1      44.463  -9.270   7.547  1.00  0.00     0.164 HD
BRANCH  20  24
HETATM   24  C   UNL     1      43.091  -7.540  10.628  1.00  0.00     0.037 A 
HETATM   25  C   UNL     1      42.971  -7.969  11.953  1.00  0.00     0.045 A 
HETATM   26  C   UNL     1      42.488  -7.106  12.952  1.00  0.00     0.050 A 
HETATM   27  C   UNL     1      42.132  -5.795  12.605  1.00  0.00     0.016 A 
HETATM   28  C   UNL     1      42.234  -5.364  11.284  1.00  0.00     0.003 A 
HETATM   29  C   UNL     1      42.704  -6.236  10.299  1.00  0.00     0.029 A 
BRANCH  26  30
HETATM   30  C   UNL     1      42.383  -7.568  14.385  1.00  0.00     0.417 C 
HETATM   31  F   UNL     1      41.202  -7.244  14.979  1.00  0.00    -0.166 F 
HETATM   32  F   UNL     1      42.506  -8.919  14.503  1.00  0.00    -0.166 F 
HETATM   33  F   UNL     1      43.354  -7.035  15.179  1.00  0.00    -0.166 F 
ENDBRANCH  26  30
ENDBRANCH  20  24
ENDBRANCH   1  18
TORSDOF 8
ENDMDL
MODEL 8
REMARK VINA RESULT:      -7.9      5.793     11.743
REMARK  8 active torsions:
REMARK  status: ('A' for Active; 'I' for Inactive)
REMARK    1  A    between atoms: O_2  and  C_3 
REMARK    2  A    between atoms: C_4  and  O_5 
REMARK    3  A    between atoms: C_7  and  C_8 
REMARK    4  A    between atoms: N_9  and  N_10 
REMARK       I    between atoms: N_10  and  C_11 
REMARK    5  A    between atoms: C_11  and  C_12 
REMARK    6  A    between atoms: C_12  and  N_13 
REMARK       I    between atoms: N_13  and  C_14 
REMARK       I    between atoms: C_14  and  N_15 
REMARK    7  A    between atoms: N_15  and  C_16 
REMARK    8  A    between atoms: C_18  and  C_19 
ROOT
HETATM    1  C   UNL     1      43.604 -10.596   7.310  1.00  0.00     0.228 C 
ENDROOT
BRANCH   1   2
HETATM    2  C   UNL     1      44.181 -11.960   6.904  1.00  0.00     0.255 C 
HETATM    3  N   UNL     1      43.225 -12.954   6.777  1.00  0.00    -0.246 N 
HETATM    4  H   UNL     1      42.239 -12.713   6.900  1.00  0.00     0.192 HD
HETATM    5  O   UNL     1      45.372 -12.081   6.619  1.00  0.00    -0.270 OA
BRANCH   3   6
HETATM    6  N   UNL     1      43.567 -14.203   6.357  1.00  0.00    -0.184 NA
HETATM    7  C   UNL     1      42.935 -14.614   5.304  1.00  0.00     0.150 C 
BRANCH   7   8
HETATM    8  C   UNL     1      43.203 -15.939   4.713  1.00  0.00    -0.014 A 
HETATM    9  C   UNL     1      43.423 -17.024   5.560  1.00  0.00     0.052 A 
HETATM   10  C   UNL     1      43.674 -18.270   4.997  1.00  0.00     0.099 A 
HETATM   11  C   UNL     1      43.713 -18.463   3.608  1.00  0.00     0.101 A 
HETATM   12  C   UNL     1      43.485 -17.370   2.771  1.00  0.00     0.040 A 
HETATM   13  C   UNL     1      43.234 -16.109   3.324  1.00  0.00     0.016 A 
BRANCH  10  14
HETATM   14  O   UNL     1      43.893 -19.326   5.840  1.00  0.00    -0.358 OA
HETATM   15  H   UNL     1      43.874 -18.939   6.739  1.00  0.00     0.218 HD
ENDBRANCH  10  14
BRANCH  11  16
HETATM   16  O   UNL     1      43.975 -19.747   3.208  1.00  0.00    -0.353 OA
HETATM   17  C   UNL     1      43.415 -20.148   1.962  1.00  0.00     0.210 C 
ENDBRANCH  11  16
ENDBRANCH   7   8
ENDBRANCH   3   6
ENDBRANCH   1   2
BRANCH   1  18
HETATM   18  N   UNL     1      42.844 -10.577   8.559  1.00  0.00    -0.334 N 
HETATM   19  C   UNL     1      42.926  -9.503   9.414  1.00  0.00     0.321 C 
HETATM   20  N   UNL     1      42.215  -9.719  10.568  1.00  0.00    -0.309 N 
HETATM   21  O   UNL     1      43.513  -8.476   9.096  1.00  0.00    -0.247 OA
HETATM   22  H   UNL     1      41.550 -10.479  10.532  1.00  0.00     0.170 HD
HETATM   23  H   UNL     1      42.730 -11.474   9.006  1.00  0.00     0.164 HD
BRANCH  20  24
HETATM   24  C   UNL     1      42.119  -8.852  11.676  1.00  0.00     0.037 A 
HETATM   25  C   UNL     1      40.919  -8.283  12.107  1.00  0.00     0.045 A 
HETATM   26  C   UNL     1      40.885  -7.426  13.222  1.00  0.00     0.050 A 
HETATM   27  C   UNL     1      42.077  -7.154  13.908  1.00  0.00     0.016 A 
HETATM   28  C   UNL     1      43.280  -7.706  13.475  1.00  0.00     0.003 A 
HETATM   29  C   UNL     1      43.301  -8.545  12.358  1.00  0.00     0.029 A 
BRANCH  26  30
HETATM   30  C   UNL     1      39.581  -6.834  13.699  1.00  0.00     0.417 C 
HETATM   31  F   UNL     1      39.514  -6.674  15.049  1.00  0.00    -0.166 F 
HETATM   32  F   UNL     1      39.345  -5.605  13.163  1.00  0.00    -0.166 F 
HETATM   33  F   UNL     1      38.504  -7.599  13.364  1.00  0.00    -0.166 F 
ENDBRANCH  26  30
ENDBRANCH  20  24
ENDBRANCH   1  18
TORSDOF 8
ENDMDL
MODEL 9
REMARK VINA RESULT:      -7.6      2.018      2.289
REMARK  8 active torsions:
REMARK  status: ('A' for Active; 'I' for Inactive)
REMARK    1  A    between atoms: O_2  and  C_3 
REMARK    2  A    between atoms: C_4  and  O_5 
REMARK    3  A    between atoms: C_7  and  C_8 
REMARK    4  A    between atoms: N_9  and  N_10 
REMARK       I    between atoms: N_10  and  C_11 
REMARK    5  A    between atoms: C_11  and  C_12 
REMARK    6  A    between atoms: C_12  and  N_13 
REMARK       I    between atoms: N_13  and  C_14 
REMARK       I    between atoms: C_14  and  N_15 
REMARK    7  A    between atoms: N_15  and  C_16 
REMARK    8  A    between atoms: C_18  and  C_19 
ROOT
HETATM    1  C   UNL     1      41.432 -10.708   6.351  1.00  0.00     0.228 C 
ENDROOT
BRANCH   1   2
HETATM    2  C   UNL     1      40.921  -9.976   7.600  1.00  0.00     0.255 C 
HETATM    3  N   UNL     1      41.913  -9.693   8.526  1.00  0.00    -0.246 N 
HETATM    4  H   UNL     1      42.882  -9.930   8.303  1.00  0.00     0.192 HD
HETATM    5  O   UNL     1      39.753  -9.595   7.674  1.00  0.00    -0.270 OA
BRANCH   3   6
HETATM    6  N   UNL     1      41.633  -8.988   9.656  1.00  0.00    -0.184 NA
HETATM    7  C   UNL     1      42.141  -9.478  10.742  1.00  0.00     0.150 C 
BRANCH   7   8
HETATM    8  C   UNL     1      41.944  -8.821  12.048  1.00  0.00    -0.014 A 
HETATM    9  C   UNL     1      42.995  -8.091  12.602  1.00  0.00     0.052 A 
HETATM   10  C   UNL     1      42.803  -7.474  13.833  1.00  0.00     0.099 A 
HETATM   11  C   UNL     1      41.588  -7.566  14.527  1.00  0.00     0.101 A 
HETATM   12  C   UNL     1      40.542  -8.295  13.960  1.00  0.00     0.040 A 
HETATM   13  C   UNL     1      40.722  -8.924  12.722  1.00  0.00     0.016 A 
BRANCH  10  14
HETATM   14  O   UNL     1      43.845  -6.765  14.366  1.00  0.00    -0.358 OA
HETATM   15  H   UNL     1      43.425  -6.089  14.935  1.00  0.00     0.218 HD
ENDBRANCH  10  14
BRANCH  11  16
HETATM   16  O   UNL     1      41.555  -6.906  15.727  1.00  0.00    -0.353 OA
HETATM   17  C   UNL     1      41.269  -7.695  16.877  1.00  0.00     0.210 C 
ENDBRANCH  11  16
ENDBRANCH   7   8
ENDBRANCH   3   6
ENDBRANCH   1   2
BRANCH   1  18
HETATM   18  N   UNL     1      41.070 -12.122   6.254  1.00  0.00    -0.334 N 
HETATM   19  C   UNL     1      42.035 -13.083   6.067  1.00  0.00     0.321 C 
HETATM   20  N   UNL     1      41.484 -14.330   5.908  1.00  0.00    -0.309 N 
HETATM   21  O   UNL     1      43.228 -12.810   6.126  1.00  0.00    -0.247 OA
HETATM   22  H   UNL     1      40.519 -14.417   6.192  1.00  0.00     0.170 HD
HETATM   23  H   UNL     1      40.186 -12.308   5.804  1.00  0.00     0.164 HD
BRANCH  20  24
HETATM   24  C   UNL     1      42.176 -15.532   5.653  1.00  0.00     0.037 A 
HETATM   25  C   UNL     1      42.432 -16.015   4.367  1.00  0.00     0.045 A 
HETATM   26  C   UNL     1      43.130 -17.220   4.173  1.00  0.00     0.050 A 
HETATM   27  C   UNL     1      43.579 -17.934   5.293  1.00  0.00     0.016 A 
HETATM   28  C   UNL     1      43.315 -17.466   6.578  1.00  0.00     0.003 A 
HETATM   29  C   UNL     1      42.609 -16.274   6.756  1.00  0.00     0.029 A 
BRANCH  26  30
HETATM   30  C   UNL     1      43.425 -17.724   2.781  1.00  0.00     0.417 C 
HETATM   31  F   UNL     1      43.732 -16.737   1.895  1.00  0.00    -0.166 F 
HETATM   32  F   UNL     1      44.474 -18.592   2.757  1.00  0.00    -0.166 F 
HETATM   33  F   UNL     1      42.373 -18.396   2.234  1.00  0.00    -0.166 F 
ENDBRANCH  26  30
ENDBRANCH  20  24
ENDBRANCH   1  18
TORSDOF 8
ENDMDL
MODEL 10
REMARK VINA RESULT:      -7.6      7.065     10.203
REMARK  8 active torsions:
REMARK  status: ('A' for Active; 'I' for Inactive)
REMARK    1  A    between atoms: O_2  and  C_3 
REMARK    2  A    between atoms: C_4  and  O_5 
REMARK    3  A    between atoms: C_7  and  C_8 
REMARK    4  A    between atoms: N_9  and  N_10 
REMARK       I    between atoms: N_10  and  C_11 
REMARK    5  A    between atoms: C_11  and  C_12 
REMARK    6  A    between atoms: C_12  and  N_13 
REMARK       I    between atoms: N_13  and  C_14 
REMARK       I    between atoms: C_14  and  N_15 
REMARK    7  A    between atoms: N_15  and  C_16 
REMARK    8  A    between atoms: C_18  and  C_19 
ROOT
HETATM    1  C   UNL     1      39.271 -10.996   4.530  1.00  0.00     0.228 C 
ENDROOT
BRANCH   1   2
HETATM    2  C   UNL     1      40.342 -12.085   4.690  1.00  0.00     0.255 C 
HETATM    3  N   UNL     1      39.826 -13.369   4.751  1.00  0.00    -0.246 N 
HETATM    4  H   UNL     1      38.820 -13.506   4.635  1.00  0.00     0.192 HD
HETATM    5  O   UNL     1      41.539 -11.802   4.648  1.00  0.00    -0.270 OA
BRANCH   3   6
HETATM    6  N   UNL     1      40.651 -14.450   4.824  1.00  0.00    -0.184 NA
HETATM    7  C   UNL     1      40.921 -15.004   3.685  1.00  0.00     0.150 C 
BRANCH   7   8
HETATM    8  C   UNL     1      41.813 -16.175   3.592  1.00  0.00    -0.014 A 
HETATM    9  C   UNL     1      42.565 -16.542   4.707  1.00  0.00     0.052 A 
HETATM   10  C   UNL     1      43.404 -17.647   4.612  1.00  0.00     0.099 A 
HETATM   11  C   UNL     1      43.512 -18.398   3.433  1.00  0.00     0.101 A 
HETATM   12  C   UNL     1      42.749 -18.024   2.325  1.00  0.00     0.040 A 
HETATM   13  C   UNL     1      41.903 -16.911   2.405  1.00  0.00     0.016 A 
BRANCH  10  14
HETATM   14  O   UNL     1      44.139 -17.993   5.713  1.00  0.00    -0.358 OA
HETATM   15  H   UNL     1      43.715 -17.522   6.458  1.00  0.00     0.218 HD
ENDBRANCH  10  14
BRANCH  11  16
HETATM   16  O   UNL     1      44.381 -19.455   3.496  1.00  0.00    -0.353 OA
HETATM   17  C   UNL     1      43.839 -20.739   3.205  1.00  0.00     0.210 C 
ENDBRANCH  11  16
ENDBRANCH   7   8
ENDBRANCH   3   6
ENDBRANCH   1   2
BRANCH   1  18
HETATM   18  N   UNL     1      39.063 -10.508   3.167  1.00  0.00    -0.334 N 
HETATM   19  C   UNL     1      38.634 -11.358   2.174  1.00  0.00     0.321 C 
HETATM   20  N   UNL     1      38.592 -10.731   0.955  1.00  0.00    -0.309 N 
HETATM   21  O   UNL     1      38.273 -12.502   2.425  1.00  0.00    -0.247 OA
HETATM   22  H   UNL     1      38.626  -9.722   0.984  1.00  0.00     0.170 HD
HETATM   23  H   UNL     1      39.701  -9.786   2.868  1.00  0.00     0.164 HD
BRANCH  20  24
HETATM   24  C   UNL     1      38.244 -11.313  -0.282  1.00  0.00     0.037 A 
HETATM   25  C   UNL     1      38.808 -12.498  -0.761  1.00  0.00     0.045 A 
HETATM   26  C   UNL     1      38.419 -13.034  -2.002  1.00  0.00     0.050 A 
HETATM   27  C   UNL     1      37.445 -12.365  -2.757  1.00  0.00     0.016 A 
HETATM   28  C   UNL     1      36.889 -11.175  -2.292  1.00  0.00     0.003 A 
HETATM   29  C   UNL     1      37.294 -10.648  -1.064  1.00  0.00     0.029 A 
BRANCH  26  30
HETATM   30  C   UNL     1      39.014 -14.327  -2.503  1.00  0.00     0.417 C 
HETATM   31  F   UNL     1      38.997 -15.330  -1.582  1.00  0.00    -0.166 F 
HETATM   32  F   UNL     1      38.360 -14.808  -3.596  1.00  0.00    -0.166 F 
HETATM   33  F   UNL     1      40.318 -14.194  -2.878  1.00  0.00    -0.166 F 
ENDBRANCH  26  30
ENDBRANCH  20  24
ENDBRANCH   1  18
TORSDOF 8
ENDMDL
