MODEL 1
REMARK VINA RESULT:      -7.8      0.000      0.000
REMARK  8 active torsions:
REMARK  status: ('A' for Active; 'I' for Inactive)
REMARK    1  A    between atoms: C_7  and  N_8 
REMARK    2  A    between atoms: N_8  and  C_9 
REMARK    3  A    between atoms: C_9  and  C_10 
REMARK    4  A    between atoms: C_18  and  N_19 
REMARK    5  A    between atoms: N_19  and  C_20 
REMARK    6  A    between atoms: C_20  and  C_21 
REMARK    7  A    between atoms: C_21  and  C_22 
REMARK    8  A    between atoms: C_22  and  O_23 
ROOT
HETATM    1  C   UNL     1      44.015 -20.357   4.542  1.00  0.00     0.001 A 
HETATM    2  C   UNL     1      43.996 -19.027   4.967  1.00  0.00     0.017 A 
HETATM    3  C   UNL     1      43.717 -17.975   4.063  1.00  0.00     0.036 A 
HETATM    4  C   UNL     1      43.437 -18.321   2.724  1.00  0.00     0.048 A 
HETATM    5  N   UNL     1      43.121 -17.353   1.861  1.00  0.00    -0.330 N 
HETATM    6  H   UNL     1      42.939 -17.539   0.883  1.00  0.00     0.168 HD
HETATM    7  C   UNL     1      43.048 -16.086   2.247  1.00  0.00     0.182 A 
HETATM    8  N   UNL     1      43.341 -15.665   3.481  1.00  0.00    -0.202 NA
HETATM    9  C   UNL     1      43.684 -16.598   4.390  1.00  0.00     0.139 A 
HETATM   10  C   UNL     1      43.467 -19.657   2.300  1.00  0.00     0.030 A 
HETATM   11  C   UNL     1      43.757 -20.672   3.212  1.00  0.00     0.002 A 
ENDROOT
BRANCH   7  12
HETATM   12  N   UNL     1      42.669 -15.148   1.291  1.00  0.00    -0.258 NA
HETATM   13  H   UNL     1      43.354 -14.392   1.393  1.00  0.00     0.130 HD
BRANCH  12  14
HETATM   14  C   UNL     1      41.358 -14.581   1.625  1.00  0.00     0.134 C 
BRANCH  14  15
HETATM   15  C   UNL     1      40.699 -14.067   0.370  1.00  0.00    -0.045 A 
HETATM   16  C   UNL     1      39.820 -14.877  -0.366  1.00  0.00     0.011 A 
HETATM   17  C   UNL     1      39.215 -14.388  -1.526  1.00  0.00     0.043 A 
HETATM   18  C   UNL     1      39.495 -13.097  -1.956  1.00  0.00     0.116 A 
HETATM   19  F   UNL     1      38.912 -12.630  -3.066  1.00  0.00    -0.206 F 
HETATM   20  C   UNL     1      40.373 -12.284  -1.250  1.00  0.00     0.043 A 
HETATM   21  C   UNL     1      40.978 -12.768  -0.089  1.00  0.00     0.011 A 
ENDBRANCH  14  15
ENDBRANCH  12  14
ENDBRANCH   7  12
BRANCH   9  22
HETATM   22  N   UNL     1      43.925 -16.196   5.705  1.00  0.00    -0.374 N 
HETATM   23  H   UNL     1      44.885 -15.892   5.853  1.00  0.00     0.161 HD
BRANCH  22  24
HETATM   24  C   UNL     1      42.968 -15.334   6.399  1.00  0.00     0.123 C 
BRANCH  24  25
HETATM   25  C   UNL     1      41.742 -16.107   6.881  1.00  0.00     0.045 C 
BRANCH  25  26
HETATM   26  C   UNL     1      40.516 -15.905   6.003  1.00  0.00     0.165 C 
BRANCH  26  27
HETATM   27  O   UNL     1      39.690 -14.889   6.553  1.00  0.00    -0.401 OA
HETATM   28  H   UNL     1      40.203 -14.063   6.595  1.00  0.00     0.209 HD
ENDBRANCH  26  27
ENDBRANCH  25  26
ENDBRANCH  24  25
ENDBRANCH  22  24
ENDBRANCH   9  22
TORSDOF 8
ENDMDL
MODEL 2
REMARK VINA RESULT:      -7.6      2.552      5.012
REMARK  8 active torsions:
REMARK  status: ('A' for Active; 'I' for Inactive)
REMARK    1  A    between atoms: C_7  and  N_8 
REMARK    2  A    between atoms: N_8  and  C_9 
REMARK    3  A    between atoms: C_9  and  C_10 
REMARK    4  A    between atoms: C_18  and  N_19 
REMARK    5  A    between atoms: N_19  and  C_20 
REMARK    6  A    between atoms: C_20  and  C_21 
REMARK    7  A    between atoms: C_21  and  C_22 
REMARK    8  A    between atoms: C_22  and  O_23 
ROOT
HETATM    1  C   UNL     1      43.606 -20.568   2.409  1.00  0.00     0.001 A 
HETATM    2  C   UNL     1      43.386 -19.211   2.160  1.00  0.00     0.017 A 
HETATM    3  C   UNL     1      43.503 -18.250   3.192  1.00  0.00     0.036 A 
HETATM    4  C   UNL     1      43.871 -18.709   4.474  1.00  0.00     0.048 A 
HETATM    5  N   UNL     1      44.037 -17.818   5.454  1.00  0.00    -0.330 N 
HETATM    6  H   UNL     1      44.273 -18.093   6.400  1.00  0.00     0.168 HD
HETATM    7  C   UNL     1      43.882 -16.520   5.235  1.00  0.00     0.182 A 
HETATM    8  N   UNL     1      43.491 -16.002   4.066  1.00  0.00    -0.202 NA
HETATM    9  C   UNL     1      43.291 -16.858   3.045  1.00  0.00     0.139 A 
HETATM   10  C   UNL     1      44.081 -20.073   4.721  1.00  0.00     0.030 A 
HETATM   11  C   UNL     1      43.947 -20.999   3.687  1.00  0.00     0.002 A 
ENDROOT
BRANCH   7  12
HETATM   12  N   UNL     1      44.118 -15.659   6.303  1.00  0.00    -0.258 NA
HETATM   13  H   UNL     1      44.787 -16.166   6.892  1.00  0.00     0.130 HD
BRANCH  12  14
HETATM   14  C   UNL     1      42.898 -15.485   7.098  1.00  0.00     0.134 C 
BRANCH  14  15
HETATM   15  C   UNL     1      42.112 -14.316   6.561  1.00  0.00    -0.045 A 
HETATM   16  C   UNL     1      42.732 -13.079   6.323  1.00  0.00     0.011 A 
HETATM   17  C   UNL     1      41.992 -12.005   5.823  1.00  0.00     0.043 A 
HETATM   18  C   UNL     1      40.634 -12.162   5.572  1.00  0.00     0.116 A 
HETATM   19  F   UNL     1      39.929 -11.132   5.091  1.00  0.00    -0.206 F 
HETATM   20  C   UNL     1      39.999 -13.373   5.816  1.00  0.00     0.043 A 
HETATM   21  C   UNL     1      40.734 -14.450   6.312  1.00  0.00     0.011 A 
ENDBRANCH  14  15
ENDBRANCH  12  14
ENDBRANCH   7  12
BRANCH   9  22
HETATM   22  N   UNL     1      42.952 -16.341   1.794  1.00  0.00    -0.374 N 
HETATM   23  H   UNL     1      42.581 -17.049   1.164  1.00  0.00     0.161 HD
BRANCH  22  24
HETATM   24  C   UNL     1      42.214 -15.081   1.693  1.00  0.00     0.123 C 
BRANCH  24  25
HETATM   25  C   UNL     1      40.785 -15.290   1.198  1.00  0.00     0.045 C 
BRANCH  25  26
HETATM   26  C   UNL     1      39.792 -15.566   2.317  1.00  0.00     0.165 C 
BRANCH  26  27
HETATM   27  O   UNL     1      38.994 -14.415   2.551  1.00  0.00    -0.401 OA
HETATM   28  H   UNL     1      39.505 -13.790   3.094  1.00  0.00     0.209 HD
ENDBRANCH  26  27
ENDBRANCH  25  26
ENDBRANCH  24  25
ENDBRANCH  22  24
ENDBRANCH   9  22
TORSDOF 8
ENDMDL
MODEL 3
REMARK VINA RESULT:      -7.5      4.391      6.855
REMARK  8 active torsions:
REMARK  status: ('A' for Active; 'I' for Inactive)
REMARK    1  A    between atoms: C_7  and  N_8 
REMARK    2  A    between atoms: N_8  and  C_9 
REMARK    3  A    between atoms: C_9  and  C_10 
REMARK    4  A    between atoms: C_18  and  N_19 
REMARK    5  A    between atoms: N_19  and  C_20 
REMARK    6  A    between atoms: C_20  and  C_21 
REMARK    7  A    between atoms: C_21  and  C_22 
REMARK    8  A    between atoms: C_22  and  O_23 
ROOT
HETATM    1  C   UNL     1      43.790 -18.920   2.737  1.00  0.00     0.001 A 
HETATM    2  C   UNL     1      43.124 -17.769   2.311  1.00  0.00     0.017 A 
HETATM    3  C   UNL     1      42.972 -16.653   3.168  1.00  0.00     0.036 A 
HETATM    4  C   UNL     1      43.536 -16.738   4.458  1.00  0.00     0.048 A 
HETATM    5  N   UNL     1      43.451 -15.681   5.270  1.00  0.00    -0.330 N 
HETATM    6  H   UNL     1      43.813 -15.696   6.215  1.00  0.00     0.168 HD
HETATM    7  C   UNL     1      42.866 -14.558   4.875  1.00  0.00     0.182 A 
HETATM    8  N   UNL     1      42.267 -14.406   3.690  1.00  0.00    -0.202 NA
HETATM    9  C   UNL     1      42.307 -15.448   2.836  1.00  0.00     0.139 A 
HETATM   10  C   UNL     1      44.195 -17.900   4.884  1.00  0.00     0.030 A 
HETATM   11  C   UNL     1      44.320 -18.989   4.021  1.00  0.00     0.002 A 
ENDROOT
BRANCH   7  12
HETATM   12  N   UNL     1      42.862 -13.492   5.770  1.00  0.00    -0.258 NA
HETATM   13  H   UNL     1      41.869 -13.266   5.887  1.00  0.00     0.130 HD
BRANCH  12  14
HETATM   14  C   UNL     1      43.498 -12.316   5.166  1.00  0.00     0.134 C 
BRANCH  14  15
HETATM   15  C   UNL     1      44.138 -11.482   6.246  1.00  0.00    -0.045 A 
HETATM   16  C   UNL     1      43.360 -10.658   7.076  1.00  0.00     0.011 A 
HETATM   17  C   UNL     1      43.965  -9.891   8.074  1.00  0.00     0.043 A 
HETATM   18  C   UNL     1      45.344  -9.938   8.236  1.00  0.00     0.116 A 
HETATM   19  F   UNL     1      45.921  -9.204   9.194  1.00  0.00    -0.206 F 
HETATM   20  C   UNL     1      46.133 -10.734   7.415  1.00  0.00     0.043 A 
HETATM   21  C   UNL     1      45.533 -11.504   6.419  1.00  0.00     0.011 A 
ENDBRANCH  14  15
ENDBRANCH  12  14
ENDBRANCH   7  12
BRANCH   9  22
HETATM   22  N   UNL     1      41.752 -15.294   1.565  1.00  0.00    -0.374 N 
HETATM   23  H   UNL     1      42.263 -15.807   0.849  1.00  0.00     0.161 HD
BRANCH  22  24
HETATM   24  C   UNL     1      40.305 -15.391   1.376  1.00  0.00     0.123 C 
BRANCH  24  25
HETATM   25  C   UNL     1      39.874 -14.929  -0.015  1.00  0.00     0.045 C 
BRANCH  25  26
HETATM   26  C   UNL     1      39.974 -13.424  -0.210  1.00  0.00     0.165 C 
BRANCH  26  27
HETATM   27  O   UNL     1      41.339 -13.031  -0.241  1.00  0.00    -0.401 OA
HETATM   28  H   UNL     1      41.846 -13.629   0.337  1.00  0.00     0.209 HD
ENDBRANCH  26  27
ENDBRANCH  25  26
ENDBRANCH  24  25
ENDBRANCH  22  24
ENDBRANCH   9  22
TORSDOF 8
ENDMDL
MODEL 4
REMARK VINA RESULT:      -7.5      3.818      7.920
REMARK  8 active torsions:
REMARK  status: ('A' for Active; 'I' for Inactive)
REMARK    1  A    between atoms: C_7  and  N_8 
REMARK    2  A    between atoms: N_8  and  C_9 
REMARK    3  A    between atoms: C_9  and  C_10 
REMARK    4  A    between atoms: C_18  and  N_19 
REMARK    5  A    between atoms: N_19  and  C_20 
REMARK    6  A    between atoms: C_20  and  C_21 
REMARK    7  A    between atoms: C_21  and  C_22 
REMARK    8  A    between atoms: C_22  and  O_23 
ROOT
HETATM    1  C   UNL     1      38.740 -11.202   2.778  1.00  0.00     0.001 A 
HETATM    2  C   UNL     1      38.886 -12.126   1.741  1.00  0.00     0.017 A 
HETATM    3  C   UNL     1      39.992 -13.009   1.699  1.00  0.00     0.036 A 
HETATM    4  C   UNL     1      40.927 -12.935   2.752  1.00  0.00     0.048 A 
HETATM    5  N   UNL     1      41.953 -13.789   2.764  1.00  0.00    -0.330 N 
HETATM    6  H   UNL     1      42.669 -13.764   3.478  1.00  0.00     0.168 HD
HETATM    7  C   UNL     1      42.091 -14.709   1.818  1.00  0.00     0.182 A 
HETATM    8  N   UNL     1      41.279 -14.820   0.762  1.00  0.00    -0.202 NA
HETATM    9  C   UNL     1      40.236 -13.971   0.689  1.00  0.00     0.139 A 
HETATM   10  C   UNL     1      40.781 -11.999   3.786  1.00  0.00     0.030 A 
HETATM   11  C   UNL     1      39.687 -11.134   3.795  1.00  0.00     0.002 A 
ENDROOT
BRANCH   7  12
HETATM   12  N   UNL     1      43.165 -15.587   1.933  1.00  0.00    -0.258 NA
HETATM   13  H   UNL     1      42.878 -16.408   1.390  1.00  0.00     0.130 HD
BRANCH  12  14
HETATM   14  C   UNL     1      43.317 -16.029   3.323  1.00  0.00     0.134 C 
BRANCH  14  15
HETATM   15  C   UNL     1      43.498 -17.525   3.357  1.00  0.00    -0.045 A 
HETATM   16  C   UNL     1      44.055 -18.158   4.480  1.00  0.00     0.011 A 
HETATM   17  C   UNL     1      44.216 -19.545   4.500  1.00  0.00     0.043 A 
HETATM   18  C   UNL     1      43.831 -20.297   3.396  1.00  0.00     0.116 A 
HETATM   19  F   UNL     1      43.984 -21.626   3.419  1.00  0.00    -0.206 F 
HETATM   20  C   UNL     1      43.293 -19.689   2.270  1.00  0.00     0.043 A 
HETATM   21  C   UNL     1      43.127 -18.304   2.247  1.00  0.00     0.011 A 
ENDBRANCH  14  15
ENDBRANCH  12  14
ENDBRANCH   7  12
BRANCH   9  22
HETATM   22  N   UNL     1      39.331 -14.110  -0.364  1.00  0.00    -0.374 N 
HETATM   23  H   UNL     1      38.533 -13.482  -0.281  1.00  0.00     0.161 HD
BRANCH  22  24
HETATM   24  C   UNL     1      39.812 -14.199  -1.743  1.00  0.00     0.123 C 
BRANCH  24  25
HETATM   25  C   UNL     1      39.618 -12.890  -2.505  1.00  0.00     0.045 C 
BRANCH  25  26
HETATM   26  C   UNL     1      40.911 -12.323  -3.072  1.00  0.00     0.165 C 
BRANCH  26  27
HETATM   27  O   UNL     1      41.763 -13.382  -3.485  1.00  0.00    -0.401 OA
HETATM   28  H   UNL     1      42.683 -13.134  -3.285  1.00  0.00     0.209 HD
ENDBRANCH  26  27
ENDBRANCH  25  26
ENDBRANCH  24  25
ENDBRANCH  22  24
ENDBRANCH   9  22
TORSDOF 8
ENDMDL
MODEL 5
REMARK VINA RESULT:      -7.5      2.219      3.932
REMARK  8 active torsions:
REMARK  status: ('A' for Active; 'I' for Inactive)
REMARK    1  A    between atoms: C_7  and  N_8 
REMARK    2  A    between atoms: N_8  and  C_9 
REMARK    3  A    between atoms: C_9  and  C_10 
REMARK    4  A    between atoms: C_18  and  N_19 
REMARK    5  A    between atoms: N_19  and  C_20 
REMARK    6  A    between atoms: C_20  and  C_21 
REMARK    7  A    between atoms: C_21  and  C_22 
REMARK    8  A    between atoms: C_22  and  O_23 
ROOT
HETATM    1  C   UNL     1      43.632 -16.603   7.060  1.00  0.00     0.001 A 
HETATM    2  C   UNL     1      43.621 -17.046   5.735  1.00  0.00     0.017 A 
HETATM    3  C   UNL     1      42.591 -16.661   4.845  1.00  0.00     0.036 A 
HETATM    4  C   UNL     1      41.591 -15.797   5.337  1.00  0.00     0.048 A 
HETATM    5  N   UNL     1      40.634 -15.378   4.504  1.00  0.00    -0.330 N 
HETATM    6  H   UNL     1      39.876 -14.781   4.810  1.00  0.00     0.168 HD
HETATM    7  C   UNL     1      40.626 -15.743   3.230  1.00  0.00     0.182 A 
HETATM    8  N   UNL     1      41.507 -16.592   2.692  1.00  0.00    -0.202 NA
HETATM    9  C   UNL     1      42.484 -17.062   3.491  1.00  0.00     0.139 A 
HETATM   10  C   UNL     1      41.601 -15.363   6.670  1.00  0.00     0.030 A 
HETATM   11  C   UNL     1      42.622 -15.768   7.529  1.00  0.00     0.002 A 
ENDROOT
BRANCH   7  12
HETATM   12  N   UNL     1      39.617 -15.223   2.423  1.00  0.00    -0.258 NA
HETATM   13  H   UNL     1      38.752 -15.588   2.835  1.00  0.00     0.130 HD
BRANCH  12  14
HETATM   14  C   UNL     1      39.710 -15.779   1.069  1.00  0.00     0.134 C 
BRANCH  14  15
HETATM   15  C   UNL     1      39.943 -14.662   0.083  1.00  0.00    -0.045 A 
HETATM   16  C   UNL     1      39.469 -14.754  -1.235  1.00  0.00     0.011 A 
HETATM   17  C   UNL     1      39.690 -13.711  -2.137  1.00  0.00     0.043 A 
HETATM   18  C   UNL     1      40.393 -12.584  -1.728  1.00  0.00     0.116 A 
HETATM   19  F   UNL     1      40.601 -11.586  -2.594  1.00  0.00    -0.206 F 
HETATM   20  C   UNL     1      40.884 -12.481  -0.433  1.00  0.00     0.043 A 
HETATM   21  C   UNL     1      40.663 -13.519   0.473  1.00  0.00     0.011 A 
ENDBRANCH  14  15
ENDBRANCH  12  14
ENDBRANCH   7  12
BRANCH   9  22
HETATM   22  N   UNL     1      43.459 -17.893   2.940  1.00  0.00    -0.374 N 
HETATM   23  H   UNL     1      44.252 -18.036   3.563  1.00  0.00     0.161 HD
BRANCH  22  24
HETATM   24  C   UNL     1      43.075 -19.130   2.258  1.00  0.00     0.123 C 
BRANCH  24  25
HETATM   25  C   UNL     1      43.848 -20.339   2.779  1.00  0.00     0.045 C 
BRANCH  25  26
HETATM   26  C   UNL     1      44.051 -20.323   4.286  1.00  0.00     0.165 C 
BRANCH  26  27
HETATM   27  O   UNL     1      44.024 -21.650   4.792  1.00  0.00    -0.401 OA
HETATM   28  H   UNL     1      44.940 -21.945   4.933  1.00  0.00     0.209 HD
ENDBRANCH  26  27
ENDBRANCH  25  26
ENDBRANCH  24  25
ENDBRANCH  22  24
ENDBRANCH   9  22
TORSDOF 8
ENDMDL
MODEL 6
REMARK VINA RESULT:      -7.4      1.808      2.159
REMARK  8 active torsions:
REMARK  status: ('A' for Active; 'I' for Inactive)
REMARK    1  A    between atoms: C_7  and  N_8 
REMARK    2  A    between atoms: N_8  and  C_9 
REMARK    3  A    between atoms: C_9  and  C_10 
REMARK    4  A    between atoms: C_18  and  N_19 
REMARK    5  A    between atoms: N_19  and  C_20 
REMARK    6  A    between atoms: C_20  and  C_21 
REMARK    7  A    between atoms: C_21  and  C_22 
REMARK    8  A    between atoms: C_22  and  O_23 
ROOT
HETATM    1  C   UNL     1      44.367 -18.509   4.234  1.00  0.00     0.001 A 
HETATM    2  C   UNL     1      43.840 -17.255   4.551  1.00  0.00     0.017 A 
HETATM    3  C   UNL     1      42.883 -16.631   3.716  1.00  0.00     0.036 A 
HETATM    4  C   UNL     1      42.464 -17.332   2.566  1.00  0.00     0.048 A 
HETATM    5  N   UNL     1      41.526 -16.789   1.786  1.00  0.00    -0.330 N 
HETATM    6  H   UNL     1      41.208 -17.233   0.934  1.00  0.00     0.168 HD
HETATM    7  C   UNL     1      40.973 -15.622   2.089  1.00  0.00     0.182 A 
HETATM    8  N   UNL     1      41.341 -14.872   3.132  1.00  0.00    -0.202 NA
HETATM    9  C   UNL     1      42.298 -15.362   3.943  1.00  0.00     0.139 A 
HETATM   10  C   UNL     1      43.003 -18.586   2.246  1.00  0.00     0.030 A 
HETATM   11  C   UNL     1      43.954 -19.171   3.082  1.00  0.00     0.002 A 
ENDROOT
BRANCH   7  12
HETATM   12  N   UNL     1      39.971 -15.152   1.245  1.00  0.00    -0.258 NA
HETATM   13  H   UNL     1      39.614 -15.996   0.784  1.00  0.00     0.130 HD
BRANCH  12  14
HETATM   14  C   UNL     1      40.544 -14.303   0.195  1.00  0.00     0.134 C 
BRANCH  14  15
HETATM   15  C   UNL     1      39.455 -13.879  -0.757  1.00  0.00    -0.045 A 
HETATM   16  C   UNL     1      39.130 -14.662  -1.876  1.00  0.00     0.011 A 
HETATM   17  C   UNL     1      38.118 -14.258  -2.749  1.00  0.00     0.043 A 
HETATM   18  C   UNL     1      37.439 -13.069  -2.512  1.00  0.00     0.116 A 
HETATM   19  F   UNL     1      36.468 -12.686  -3.348  1.00  0.00    -0.206 F 
HETATM   20  C   UNL     1      37.755 -12.272  -1.419  1.00  0.00     0.043 A 
HETATM   21  C   UNL     1      38.764 -12.673  -0.542  1.00  0.00     0.011 A 
ENDBRANCH  14  15
ENDBRANCH  12  14
ENDBRANCH   7  12
BRANCH   9  22
HETATM   22  N   UNL     1      42.651 -14.634   5.080  1.00  0.00    -0.374 N 
HETATM   23  H   UNL     1      43.092 -13.744   4.855  1.00  0.00     0.161 HD
BRANCH  22  24
HETATM   24  C   UNL     1      41.714 -14.510   6.197  1.00  0.00     0.123 C 
BRANCH  24  25
HETATM   25  C   UNL     1      41.818 -15.683   7.168  1.00  0.00     0.045 C 
BRANCH  25  26
HETATM   26  C   UNL     1      43.126 -15.711   7.944  1.00  0.00     0.165 C 
BRANCH  26  27
HETATM   27  O   UNL     1      43.587 -17.049   8.067  1.00  0.00    -0.401 OA
HETATM   28  H   UNL     1      44.200 -17.096   8.822  1.00  0.00     0.209 HD
ENDBRANCH  26  27
ENDBRANCH  25  26
ENDBRANCH  24  25
ENDBRANCH  22  24
ENDBRANCH   9  22
TORSDOF 8
ENDMDL
MODEL 7
REMARK VINA RESULT:      -7.4      2.247      2.792
REMARK  8 active torsions:
REMARK  status: ('A' for Active; 'I' for Inactive)
REMARK    1  A    between atoms: C_7  and  N_8 
REMARK    2  A    between atoms: N_8  and  C_9 
REMARK    3  A    between atoms: C_9  and  C_10 
REMARK    4  A    between atoms: C_18  and  N_19 
REMARK    5  A    between atoms: N_19  and  C_20 
REMARK    6  A    between atoms: C_20  and  C_21 
REMARK    7  A    between atoms: C_21  and  C_22 
REMARK    8  A    between atoms: C_22  and  O_23 
ROOT
HETATM    1  C   UNL     1      44.465 -18.630   4.213  1.00  0.00     0.001 A 
HETATM    2  C   UNL     1      44.061 -17.399   4.735  1.00  0.00     0.017 A 
HETATM    3  C   UNL     1      43.105 -16.599   4.065  1.00  0.00     0.036 A 
HETATM    4  C   UNL     1      42.559 -17.100   2.865  1.00  0.00     0.048 A 
HETATM    5  N   UNL     1      41.619 -16.390   2.238  1.00  0.00    -0.330 N 
HETATM    6  H   UNL     1      41.214 -16.686   1.359  1.00  0.00     0.168 HD
HETATM    7  C   UNL     1      41.182 -15.241   2.735  1.00  0.00     0.182 A 
HETATM    8  N   UNL     1      41.674 -14.671   3.840  1.00  0.00    -0.202 NA
HETATM    9  C   UNL     1      42.638 -15.336   4.504  1.00  0.00     0.139 A 
HETATM   10  C   UNL     1      42.976 -18.332   2.339  1.00  0.00     0.030 A 
HETATM   11  C   UNL     1      43.928 -19.094   3.016  1.00  0.00     0.002 A 
ENDROOT
BRANCH   7  12
HETATM   12  N   UNL     1      40.168 -14.588   2.039  1.00  0.00    -0.258 NA
HETATM   13  H   UNL     1      39.328 -14.752   2.605  1.00  0.00     0.130 HD
BRANCH  12  14
HETATM   14  C   UNL     1      39.941 -15.235   0.743  1.00  0.00     0.134 C 
BRANCH  14  15
HETATM   15  C   UNL     1      40.141 -14.229  -0.362  1.00  0.00    -0.045 A 
HETATM   16  C   UNL     1      40.791 -13.009  -0.116  1.00  0.00     0.011 A 
HETATM   17  C   UNL     1      40.972 -12.086  -1.149  1.00  0.00     0.043 A 
HETATM   18  C   UNL     1      40.496 -12.376  -2.421  1.00  0.00     0.116 A 
HETATM   19  F   UNL     1      40.673 -11.492  -3.409  1.00  0.00    -0.206 F 
HETATM   20  C   UNL     1      39.837 -13.571  -2.682  1.00  0.00     0.043 A 
HETATM   21  C   UNL     1      39.657 -14.497  -1.654  1.00  0.00     0.011 A 
ENDBRANCH  14  15
ENDBRANCH  12  14
ENDBRANCH   7  12
BRANCH   9  22
HETATM   22  N   UNL     1      43.120 -14.801   5.699  1.00  0.00    -0.374 N 
HETATM   23  H   UNL     1      44.034 -15.173   5.956  1.00  0.00     0.161 HD
BRANCH  22  24
HETATM   24  C   UNL     1      43.027 -13.364   5.954  1.00  0.00     0.123 C 
BRANCH  24  25
HETATM   25  C   UNL     1      44.362 -12.769   6.394  1.00  0.00     0.045 C 
BRANCH  25  26
HETATM   26  C   UNL     1      44.530 -11.307   6.008  1.00  0.00     0.165 C 
BRANCH  26  27
HETATM   27  O   UNL     1      45.876 -11.060   5.627  1.00  0.00    -0.401 OA
HETATM   28  H   UNL     1      46.079 -11.601   4.843  1.00  0.00     0.209 HD
ENDBRANCH  26  27
ENDBRANCH  25  26
ENDBRANCH  24  25
ENDBRANCH  22  24
ENDBRANCH   9  22
TORSDOF 8
ENDMDL
MODEL 8
REMARK VINA RESULT:      -7.3     13.689     14.712
REMARK  8 active torsions:
REMARK  status: ('A' for Active; 'I' for Inactive)
REMARK    1  A    between atoms: C_7  and  N_8 
REMARK    2  A    between atoms: N_8  and  C_9 
REMARK    3  A    between atoms: C_9  and  C_10 
REMARK    4  A    between atoms: C_18  and  N_19 
REMARK    5  A    between atoms: N_19  and  C_20 
REMARK    6  A    between atoms: C_20  and  C_21 
REMARK    7  A    between atoms: C_21  and  C_22 
REMARK    8  A    between atoms: C_22  and  O_23 
ROOT
HETATM    1  C   UNL     1      50.174 -31.472   4.847  1.00  0.00     0.001 A 
HETATM    2  C   UNL     1      48.786 -31.325   4.788  1.00  0.00     0.017 A 
HETATM    3  C   UNL     1      48.186 -30.388   3.914  1.00  0.00     0.036 A 
HETATM    4  C   UNL     1      49.039 -29.624   3.090  1.00  0.00     0.048 A 
HETATM    5  N   UNL     1      48.498 -28.768   2.220  1.00  0.00    -0.330 N 
HETATM    6  H   UNL     1      49.061 -28.175   1.624  1.00  0.00     0.168 HD
HETATM    7  C   UNL     1      47.182 -28.642   2.109  1.00  0.00     0.182 A 
HETATM    8  N   UNL     1      46.304 -29.291   2.880  1.00  0.00    -0.202 NA
HETATM    9  C   UNL     1      46.795 -30.156   3.789  1.00  0.00     0.139 A 
HETATM   10  C   UNL     1      50.432 -29.768   3.159  1.00  0.00     0.030 A 
HETATM   11  C   UNL     1      50.996 -30.693   4.038  1.00  0.00     0.002 A 
ENDROOT
BRANCH   7  12
HETATM   12  N   UNL     1      46.704 -27.759   1.146  1.00  0.00    -0.258 NA
HETATM   13  H   UNL     1      45.704 -27.977   1.078  1.00  0.00     0.130 HD
BRANCH  12  14
HETATM   14  C   UNL     1      47.295 -28.060  -0.162  1.00  0.00     0.134 C 
BRANCH  14  15
HETATM   15  C   UNL     1      46.200 -28.392  -1.143  1.00  0.00    -0.045 A 
HETATM   16  C   UNL     1      45.003 -28.987  -0.714  1.00  0.00     0.011 A 
HETATM   17  C   UNL     1      43.996 -29.287  -1.634  1.00  0.00     0.043 A 
HETATM   18  C   UNL     1      44.188 -29.003  -2.980  1.00  0.00     0.116 A 
HETATM   19  F   UNL     1      43.219 -29.289  -3.859  1.00  0.00    -0.206 F 
HETATM   20  C   UNL     1      45.370 -28.428  -3.428  1.00  0.00     0.043 A 
HETATM   21  C   UNL     1      46.378 -28.124  -2.513  1.00  0.00     0.011 A 
ENDBRANCH  14  15
ENDBRANCH  12  14
ENDBRANCH   7  12
BRANCH   9  22
HETATM   22  N   UNL     1      45.900 -30.900   4.558  1.00  0.00    -0.374 N 
HETATM   23  H   UNL     1      45.270 -30.315   5.103  1.00  0.00     0.161 HD
BRANCH  22  24
HETATM   24  C   UNL     1      45.209 -32.051   3.977  1.00  0.00     0.123 C 
BRANCH  24  25
HETATM   25  C   UNL     1      43.691 -31.921   4.077  1.00  0.00     0.045 C 
BRANCH  25  26
HETATM   26  C   UNL     1      43.089 -31.024   3.006  1.00  0.00     0.165 C 
BRANCH  26  27
HETATM   27  O   UNL     1      43.360 -29.663   3.307  1.00  0.00    -0.401 OA
HETATM   28  H   UNL     1      42.979 -29.109   2.603  1.00  0.00     0.209 HD
ENDBRANCH  26  27
ENDBRANCH  25  26
ENDBRANCH  24  25
ENDBRANCH  22  24
ENDBRANCH   9  22
TORSDOF 8
ENDMDL
MODEL 9
REMARK VINA RESULT:      -7.3      3.218      6.833
REMARK  8 active torsions:
REMARK  status: ('A' for Active; 'I' for Inactive)
REMARK    1  A    between atoms: C_7  and  N_8 
REMARK    2  A    between atoms: N_8  and  C_9 
REMARK    3  A    between atoms: C_9  and  C_10 
REMARK    4  A    between atoms: C_18  and  N_19 
REMARK    5  A    between atoms: N_19  and  C_20 
REMARK    6  A    between atoms: C_20  and  C_21 
REMARK    7  A    between atoms: C_21  and  C_22 
REMARK    8  A    between atoms: C_22  and  O_23 
ROOT
HETATM    1  C   UNL     1      38.915 -12.136  -0.155  1.00  0.00     0.001 A 
HETATM    2  C   UNL     1      39.725 -11.969   0.971  1.00  0.00     0.017 A 
HETATM    3  C   UNL     1      40.669 -12.954   1.346  1.00  0.00     0.036 A 
HETATM    4  C   UNL     1      40.778 -14.099   0.528  1.00  0.00     0.048 A 
HETATM    5  N   UNL     1      41.695 -15.021   0.830  1.00  0.00    -0.330 N 
HETATM    6  H   UNL     1      41.798 -15.875   0.296  1.00  0.00     0.168 HD
HETATM    7  C   UNL     1      42.509 -14.866   1.865  1.00  0.00     0.182 A 
HETATM    8  N   UNL     1      42.446 -13.838   2.716  1.00  0.00    -0.202 NA
HETATM    9  C   UNL     1      41.526 -12.885   2.471  1.00  0.00     0.139 A 
HETATM   10  C   UNL     1      39.956 -14.266  -0.596  1.00  0.00     0.030 A 
HETATM   11  C   UNL     1      39.026 -13.283  -0.934  1.00  0.00     0.002 A 
ENDROOT
BRANCH   7  12
HETATM   12  N   UNL     1      43.465 -15.856   2.079  1.00  0.00    -0.258 NA
HETATM   13  H   UNL     1      44.206 -15.640   1.405  1.00  0.00     0.130 HD
BRANCH  12  14
HETATM   14  C   UNL     1      42.928 -17.171   1.715  1.00  0.00     0.134 C 
BRANCH  14  15
HETATM   15  C   UNL     1      43.372 -18.193   2.730  1.00  0.00    -0.045 A 
HETATM   16  C   UNL     1      43.441 -19.556   2.399  1.00  0.00     0.011 A 
HETATM   17  C   UNL     1      43.856 -20.492   3.348  1.00  0.00     0.043 A 
HETATM   18  C   UNL     1      44.192 -20.070   4.629  1.00  0.00     0.116 A 
HETATM   19  F   UNL     1      44.592 -20.969   5.536  1.00  0.00    -0.206 F 
HETATM   20  C   UNL     1      44.117 -18.729   4.982  1.00  0.00     0.043 A 
HETATM   21  C   UNL     1      43.705 -17.789   4.036  1.00  0.00     0.011 A 
ENDBRANCH  14  15
ENDBRANCH  12  14
ENDBRANCH   7  12
BRANCH   9  22
HETATM   22  N   UNL     1      41.483 -11.764   3.301  1.00  0.00    -0.374 N 
HETATM   23  H   UNL     1      40.750 -11.108   3.038  1.00  0.00     0.161 HD
BRANCH  22  24
HETATM   24  C   UNL     1      41.581 -11.918   4.753  1.00  0.00     0.123 C 
BRANCH  24  25
HETATM   25  C   UNL     1      40.361 -12.624   5.340  1.00  0.00     0.045 C 
BRANCH  25  26
HETATM   26  C   UNL     1      40.698 -13.934   6.036  1.00  0.00     0.165 C 
BRANCH  26  27
HETATM   27  O   UNL     1      39.508 -14.548   6.511  1.00  0.00    -0.401 OA
HETATM   28  H   UNL     1      38.788 -14.349   5.887  1.00  0.00     0.209 HD
ENDBRANCH  26  27
ENDBRANCH  25  26
ENDBRANCH  24  25
ENDBRANCH  22  24
ENDBRANCH   9  22
TORSDOF 8
ENDMDL
MODEL 10
REMARK VINA RESULT:      -7.3     14.157     15.340
REMARK  8 active torsions:
REMARK  status: ('A' for Active; 'I' for Inactive)
REMARK    1  A    between atoms: C_7  and  N_8 
REMARK    2  A    between atoms: N_8  and  C_9 
REMARK    3  A    between atoms: C_9  and  C_10 
REMARK    4  A    between atoms: C_18  and  N_19 
REMARK    5  A    between atoms: N_19  and  C_20 
REMARK    6  A    between atoms: C_20  and  C_21 
REMARK    7  A    between atoms: C_21  and  C_22 
REMARK    8  A    between atoms: C_22  and  O_23 
ROOT
HETATM    1  C   UNL     1      47.413 -27.956  -1.914  1.00  0.00     0.001 A 
HETATM    2  C   UNL     1      47.744 -28.066  -0.561  1.00  0.00     0.017 A 
HETATM    3  C   UNL     1      46.767 -28.398   0.406  1.00  0.00     0.036 A 
HETATM    4  C   UNL     1      45.452 -28.634  -0.047  1.00  0.00     0.048 A 
HETATM    5  N   UNL     1      44.520 -28.997   0.838  1.00  0.00    -0.330 N 
HETATM    6  H   UNL     1      43.556 -29.151   0.574  1.00  0.00     0.168 HD
HETATM    7  C   UNL     1      44.817 -29.156   2.120  1.00  0.00     0.182 A 
HETATM    8  N   UNL     1      46.023 -28.910   2.642  1.00  0.00    -0.202 NA
HETATM    9  C   UNL     1      46.998 -28.523   1.798  1.00  0.00     0.139 A 
HETATM   10  C   UNL     1      45.122 -28.512  -1.405  1.00  0.00     0.030 A 
HETATM   11  C   UNL     1      46.104 -28.173  -2.335  1.00  0.00     0.002 A 
ENDROOT
BRANCH   7  12
HETATM   12  N   UNL     1      43.795 -29.579   2.965  1.00  0.00    -0.258 NA
HETATM   13  H   UNL     1      44.013 -30.564   3.151  1.00  0.00     0.130 HD
BRANCH  12  14
HETATM   14  C   UNL     1      42.508 -29.554   2.261  1.00  0.00     0.134 C 
BRANCH  14  15
HETATM   15  C   UNL     1      41.550 -30.504   2.933  1.00  0.00    -0.045 A 
HETATM   16  C   UNL     1      40.796 -31.419   2.181  1.00  0.00     0.011 A 
HETATM   17  C   UNL     1      39.912 -32.294   2.817  1.00  0.00     0.043 A 
HETATM   18  C   UNL     1      39.775 -32.249   4.199  1.00  0.00     0.116 A 
HETATM   19  F   UNL     1      38.930 -33.091   4.805  1.00  0.00    -0.206 F 
HETATM   20  C   UNL     1      40.500 -31.341   4.959  1.00  0.00     0.043 A 
HETATM   21  C   UNL     1      41.386 -30.467   4.329  1.00  0.00     0.011 A 
ENDBRANCH  14  15
ENDBRANCH  12  14
ENDBRANCH   7  12
BRANCH   9  22
HETATM   22  N   UNL     1      48.284 -28.329   2.302  1.00  0.00    -0.374 N 
HETATM   23  H   UNL     1      48.583 -27.356   2.251  1.00  0.00     0.161 HD
BRANCH  22  24
HETATM   24  C   UNL     1      48.684 -28.956   3.562  1.00  0.00     0.123 C 
BRANCH  24  25
HETATM   25  C   UNL     1      49.478 -30.240   3.339  1.00  0.00     0.045 C 
BRANCH  25  26
HETATM   26  C   UNL     1      50.858 -30.003   2.744  1.00  0.00     0.165 C 
BRANCH  26  27
HETATM   27  O   UNL     1      50.742 -29.705   1.359  1.00  0.00    -0.401 OA
HETATM   28  H   UNL     1      51.427 -29.055   1.125  1.00  0.00     0.209 HD
ENDBRANCH  26  27
ENDBRANCH  25  26
ENDBRANCH  24  25
ENDBRANCH  22  24
ENDBRANCH   9  22
TORSDOF 8
ENDMDL
