MODEL 1
REMARK VINA RESULT:      -8.3      0.000      0.000
REMARK  4 active torsions:
REMARK  status: ('A' for Active; 'I' for Inactive)
REMARK    1  A    between atoms: O_2  and  C_3 
REMARK    2  A    between atoms: C_4  and  O_5 
REMARK    3  A    between atoms: C_9  and  C_10 
REMARK    4  A    between atoms: C_10  and  N_11 
ROOT
HETATM    1  N   UNL     1      41.340 -15.110   1.637  1.00  0.00    -0.066 N 
HETATM    2  H   UNL     1      41.150 -15.949   1.075  1.00  0.00     0.280 HD
HETATM    3  C   UNL     1      40.440 -15.268   2.853  1.00  0.00     0.246 C 
HETATM    4  C   UNL     1      40.085 -13.938   3.546  1.00  0.00     0.062 C 
HETATM    5  C   UNL     1      39.486 -12.973   2.532  1.00  0.00     0.020 C 
HETATM    6  C   UNL     1      40.560 -12.676   1.497  1.00  0.00     0.031 C 
HETATM    7  C   UNL     1      41.732 -11.962   2.176  1.00  0.00     0.138 C 
HETATM    8  N   UNL     1      42.096 -12.440   3.511  1.00  0.00    -0.317 N 
HETATM    9  C   UNL     1      41.285 -13.320   4.231  1.00  0.00     0.020 A 
HETATM   10  C   UNL     1      41.583 -13.610   5.510  1.00  0.00     0.026 A 
HETATM   11  C   UNL     1      43.244 -11.856   4.069  1.00  0.00     0.247 A 
HETATM   12  O   UNL     1      43.995 -11.108   3.452  1.00  0.00    -0.268 OA
HETATM   13  C   UNL     1      43.548 -12.211   5.477  1.00  0.00     0.074 A 
HETATM   14  C   UNL     1      42.743 -13.042   6.146  1.00  0.00     0.007 A 
HETATM   15  C   UNL     1      40.961 -13.950   0.744  1.00  0.00     0.241 C 
ENDROOT
BRANCH   1  16
HETATM   16  C   UNL     1      42.837 -15.225   1.875  1.00  0.00     0.273 C 
BRANCH  16  17
HETATM   17  C   UNL     1      43.245 -16.415   2.704  1.00  0.00    -0.028 A 
HETATM   18  C   UNL     1      43.293 -17.695   2.126  1.00  0.00     0.031 A 
HETATM   19  C   UNL     1      43.637 -18.812   2.893  1.00  0.00     0.047 A 
HETATM   20  C   UNL     1      43.926 -18.667   4.248  1.00  0.00     0.116 A 
HETATM   21 BR   UNL     1      43.657 -20.506   2.044  1.00  0.00    -0.048 Br
HETATM   22  C   UNL     1      43.927 -17.393   4.821  1.00  0.00     0.103 A 
HETATM   23  C   UNL     1      43.568 -16.275   4.062  1.00  0.00     0.048 A 
BRANCH  20  24
HETATM   24  O   UNL     1      44.165 -19.771   5.017  1.00  0.00    -0.357 OA
HETATM   25  H   UNL     1      43.300 -20.127   5.292  1.00  0.00     0.218 HD
ENDBRANCH  20  24
BRANCH  22  26
HETATM   26  O   UNL     1      44.193 -17.180   6.147  1.00  0.00    -0.353 OA
HETATM   27  C   UNL     1      43.002 -16.983   6.918  1.00  0.00     0.210 C 
ENDBRANCH  22  26
ENDBRANCH  16  17
ENDBRANCH   1  16
TORSDOF 4
ENDMDL
MODEL 2
REMARK VINA RESULT:      -7.9      1.426      2.215
REMARK  4 active torsions:
REMARK  status: ('A' for Active; 'I' for Inactive)
REMARK    1  A    between atoms: O_2  and  C_3 
REMARK    2  A    between atoms: C_4  and  O_5 
REMARK    3  A    between atoms: C_9  and  C_10 
REMARK    4  A    between atoms: C_10  and  N_11 
ROOT
HETATM    1  N   UNL     1      41.509 -15.194   1.770  1.00  0.00    -0.066 N 
HETATM    2  H   UNL     1      41.295 -16.044   1.235  1.00  0.00     0.280 HD
HETATM    3  C   UNL     1      40.536 -15.236   2.938  1.00  0.00     0.246 C 
HETATM    4  C   UNL     1      40.231 -13.856   3.550  1.00  0.00     0.062 C 
HETATM    5  C   UNL     1      39.752 -12.904   2.461  1.00  0.00     0.020 C 
HETATM    6  C   UNL     1      40.898 -12.724   1.478  1.00  0.00     0.031 C 
HETATM    7  C   UNL     1      42.076 -12.054   2.191  1.00  0.00     0.138 C 
HETATM    8  N   UNL     1      42.335 -12.490   3.564  1.00  0.00    -0.317 N 
HETATM    9  C   UNL     1      41.430 -13.282   4.275  1.00  0.00     0.020 A 
HETATM   10  C   UNL     1      41.638 -13.528   5.580  1.00  0.00     0.026 A 
HETATM   11  C   UNL     1      43.486 -11.952   4.161  1.00  0.00     0.247 A 
HETATM   12  O   UNL     1      44.316 -11.283   3.555  1.00  0.00    -0.268 OA
HETATM   13  C   UNL     1      43.689 -12.259   5.598  1.00  0.00     0.074 A 
HETATM   14  C   UNL     1      42.796 -13.004   6.256  1.00  0.00     0.007 A 
HETATM   15  C   UNL     1      41.256 -14.056   0.806  1.00  0.00     0.241 C 
ENDROOT
BRANCH   1  16
HETATM   16  C   UNL     1      42.980 -15.391   2.099  1.00  0.00     0.273 C 
BRANCH  16  17
HETATM   17  C   UNL     1      43.261 -16.540   3.031  1.00  0.00    -0.028 A 
HETATM   18  C   UNL     1      43.365 -16.317   4.414  1.00  0.00     0.031 A 
HETATM   19  C   UNL     1      43.660 -17.369   5.286  1.00  0.00     0.047 A 
HETATM   20  C   UNL     1      43.865 -18.654   4.787  1.00  0.00     0.116 A 
HETATM   21 BR   UNL     1      43.806 -16.983   7.136  1.00  0.00    -0.048 Br
HETATM   22  C   UNL     1      43.716 -18.895   3.419  1.00  0.00     0.103 A 
HETATM   23  C   UNL     1      43.438 -17.843   2.541  1.00  0.00     0.048 A 
BRANCH  20  24
HETATM   24  O   UNL     1      44.249 -19.660   5.628  1.00  0.00    -0.357 OA
HETATM   25  H   UNL     1      44.508 -20.420   5.074  1.00  0.00     0.218 HD
ENDBRANCH  20  24
BRANCH  22  26
HETATM   26  O   UNL     1      43.912 -20.130   2.861  1.00  0.00    -0.353 OA
HETATM   27  C   UNL     1      43.174 -20.303   1.645  1.00  0.00     0.210 C 
ENDBRANCH  22  26
ENDBRANCH  16  17
ENDBRANCH   1  16
TORSDOF 4
ENDMDL
MODEL 3
REMARK VINA RESULT:      -7.4      3.719      6.358
REMARK  4 active torsions:
REMARK  status: ('A' for Active; 'I' for Inactive)
REMARK    1  A    between atoms: O_2  and  C_3 
REMARK    2  A    between atoms: C_4  and  O_5 
REMARK    3  A    between atoms: C_9  and  C_10 
REMARK    4  A    between atoms: C_10  and  N_11 
ROOT
HETATM    1  N   UNL     1      41.000 -15.640   1.845  1.00  0.00    -0.066 N 
HETATM    2  H   UNL     1      40.756 -16.263   1.065  1.00  0.00     0.280 HD
HETATM    3  C   UNL     1      42.478 -15.347   1.636  1.00  0.00     0.246 C 
HETATM    4  C   UNL     1      43.224 -14.942   2.922  1.00  0.00     0.062 C 
HETATM    5  C   UNL     1      43.014 -16.002   3.994  1.00  0.00     0.020 C 
HETATM    6  C   UNL     1      41.528 -16.033   4.319  1.00  0.00     0.031 C 
HETATM    7  C   UNL     1      41.113 -14.685   4.915  1.00  0.00     0.138 C 
HETATM    8  N   UNL     1      41.720 -13.496   4.314  1.00  0.00    -0.317 N 
HETATM    9  C   UNL     1      42.791 -13.580   3.421  1.00  0.00     0.020 A 
HETATM   10  C   UNL     1      43.412 -12.459   3.015  1.00  0.00     0.026 A 
HETATM   11  C   UNL     1      41.241 -12.266   4.793  1.00  0.00     0.247 A 
HETATM   12  O   UNL     1      40.281 -12.159   5.549  1.00  0.00    -0.268 OA
HETATM   13  C   UNL     1      41.942 -11.052   4.310  1.00  0.00     0.074 A 
HETATM   14  C   UNL     1      42.975 -11.165   3.470  1.00  0.00     0.007 A 
HETATM   15  C   UNL     1      40.709 -16.447   3.091  1.00  0.00     0.241 C 
ENDROOT
BRANCH   1  16
HETATM   16  C   UNL     1      40.037 -14.483   1.635  1.00  0.00     0.273 C 
BRANCH  16  17
HETATM   17  C   UNL     1      40.260 -13.711   0.361  1.00  0.00    -0.028 A 
HETATM   18  C   UNL     1      40.753 -12.397   0.410  1.00  0.00     0.031 A 
HETATM   19  C   UNL     1      40.931 -11.657  -0.763  1.00  0.00     0.047 A 
HETATM   20  C   UNL     1      40.609 -12.217  -1.998  1.00  0.00     0.116 A 
HETATM   21 BR   UNL     1      41.580  -9.883  -0.611  1.00  0.00    -0.048 Br
HETATM   22  C   UNL     1      40.163 -13.540  -2.060  1.00  0.00     0.103 A 
HETATM   23  C   UNL     1      39.968 -14.277  -0.889  1.00  0.00     0.048 A 
BRANCH  20  24
HETATM   24  O   UNL     1      40.691 -11.461  -3.133  1.00  0.00    -0.357 OA
HETATM   25  H   UNL     1      39.783 -11.346  -3.472  1.00  0.00     0.218 HD
ENDBRANCH  20  24
BRANCH  22  26
HETATM   26  O   UNL     1      39.821 -14.148  -3.238  1.00  0.00    -0.353 OA
HETATM   27  C   UNL     1      38.469 -14.623  -3.235  1.00  0.00     0.210 C 
ENDBRANCH  22  26
ENDBRANCH  16  17
ENDBRANCH   1  16
TORSDOF 4
ENDMDL
MODEL 4
REMARK VINA RESULT:      -7.2      1.424      2.245
REMARK  4 active torsions:
REMARK  status: ('A' for Active; 'I' for Inactive)
REMARK    1  A    between atoms: O_2  and  C_3 
REMARK    2  A    between atoms: C_4  and  O_5 
REMARK    3  A    between atoms: C_9  and  C_10 
REMARK    4  A    between atoms: C_10  and  N_11 
ROOT
HETATM    1  N   UNL     1      41.638 -14.924   1.715  1.00  0.00    -0.066 N 
HETATM    2  H   UNL     1      41.611 -15.511   0.872  1.00  0.00     0.280 HD
HETATM    3  C   UNL     1      40.761 -13.732   1.365  1.00  0.00     0.246 C 
HETATM    4  C   UNL     1      41.080 -12.461   2.175  1.00  0.00     0.062 C 
HETATM    5  C   UNL     1      42.559 -12.122   2.040  1.00  0.00     0.020 C 
HETATM    6  C   UNL     1      43.346 -13.267   2.659  1.00  0.00     0.031 C 
HETATM    7  C   UNL     1      43.026 -13.350   4.154  1.00  0.00     0.138 C 
HETATM    8  N   UNL     1      41.631 -13.114   4.533  1.00  0.00    -0.317 N 
HETATM    9  C   UNL     1      40.693 -12.606   3.631  1.00  0.00     0.020 A 
HETATM   10  C   UNL     1      39.467 -12.263   4.063  1.00  0.00     0.026 A 
HETATM   11  C   UNL     1      41.333 -13.309   5.890  1.00  0.00     0.247 A 
HETATM   12  O   UNL     1      42.123 -13.786   6.698  1.00  0.00    -0.268 OA
HETATM   13  C   UNL     1      39.966 -12.934   6.327  1.00  0.00     0.074 A 
HETATM   14  C   UNL     1      39.096 -12.432   5.444  1.00  0.00     0.007 A 
HETATM   15  C   UNL     1      43.098 -14.575   1.898  1.00  0.00     0.241 C 
ENDROOT
BRANCH   1  16
HETATM   16  C   UNL     1      41.106 -15.875   2.776  1.00  0.00     0.273 C 
BRANCH  16  17
HETATM   17  C   UNL     1      42.110 -16.887   3.263  1.00  0.00    -0.028 A 
HETATM   18  C   UNL     1      42.469 -17.973   2.448  1.00  0.00     0.031 A 
HETATM   19  C   UNL     1      43.373 -18.939   2.902  1.00  0.00     0.047 A 
HETATM   20  C   UNL     1      43.921 -18.837   4.179  1.00  0.00     0.116 A 
HETATM   21 BR   UNL     1      43.789 -20.385   1.750  1.00  0.00    -0.048 Br
HETATM   22  C   UNL     1      43.606 -17.736   4.979  1.00  0.00     0.103 A 
HETATM   23  C   UNL     1      42.690 -16.777   4.536  1.00  0.00     0.048 A 
BRANCH  20  24
HETATM   24  O   UNL     1      44.726 -19.831   4.658  1.00  0.00    -0.357 OA
HETATM   25  H   UNL     1      45.593 -19.433   4.859  1.00  0.00     0.218 HD
ENDBRANCH  20  24
BRANCH  22  26
HETATM   26  O   UNL     1      44.100 -17.579   6.246  1.00  0.00    -0.353 OA
HETATM   27  C   UNL     1      44.600 -16.256   6.477  1.00  0.00     0.210 C 
ENDBRANCH  22  26
ENDBRANCH  16  17
ENDBRANCH   1  16
TORSDOF 4
ENDMDL
MODEL 5
REMARK VINA RESULT:      -7.0      3.722      6.741
REMARK  4 active torsions:
REMARK  status: ('A' for Active; 'I' for Inactive)
REMARK    1  A    between atoms: O_2  and  C_3 
REMARK    2  A    between atoms: C_4  and  O_5 
REMARK    3  A    between atoms: C_9  and  C_10 
REMARK    4  A    between atoms: C_10  and  N_11 
ROOT
HETATM    1  N   UNL     1      41.795 -13.900   6.421  1.00  0.00    -0.066 N 
HETATM    2  H   UNL     1      41.636 -13.383   7.295  1.00  0.00     0.280 HD
HETATM    3  C   UNL     1      40.543 -14.748   6.259  1.00  0.00     0.246 C 
HETATM    4  C   UNL     1      40.748 -16.008   5.397  1.00  0.00     0.062 C 
HETATM    5  C   UNL     1      41.906 -16.828   5.950  1.00  0.00     0.020 C 
HETATM    6  C   UNL     1      43.163 -15.981   5.825  1.00  0.00     0.031 C 
HETATM    7  C   UNL     1      43.450 -15.717   4.344  1.00  0.00     0.138 C 
HETATM    8  N   UNL     1      42.287 -15.453   3.496  1.00  0.00    -0.317 N 
HETATM    9  C   UNL     1      40.980 -15.665   3.941  1.00  0.00     0.020 A 
HETATM   10  C   UNL     1      39.953 -15.556   3.079  1.00  0.00     0.026 A 
HETATM   11  C   UNL     1      42.575 -15.099   2.169  1.00  0.00     0.247 A 
HETATM   12  O   UNL     1      43.708 -14.871   1.757  1.00  0.00    -0.268 OA
HETATM   13  C   UNL     1      41.416 -14.972   1.252  1.00  0.00     0.074 A 
HETATM   14  C   UNL     1      40.179 -15.200   1.702  1.00  0.00     0.007 A 
HETATM   15  C   UNL     1      43.050 -14.707   6.671  1.00  0.00     0.241 C 
ENDROOT
BRANCH   1  16
HETATM   16  C   UNL     1      41.992 -12.772   5.421  1.00  0.00     0.273 C 
BRANCH  16  17
HETATM   17  C   UNL     1      40.783 -11.894   5.229  1.00  0.00    -0.028 A 
HETATM   18  C   UNL     1      40.149 -11.832   3.977  1.00  0.00     0.031 A 
HETATM   19  C   UNL     1      39.047 -10.995   3.775  1.00  0.00     0.047 A 
HETATM   20  C   UNL     1      38.573 -10.201   4.818  1.00  0.00     0.116 A 
HETATM   21 BR   UNL     1      38.260 -10.952   2.052  1.00  0.00    -0.048 Br
HETATM   22  C   UNL     1      39.168 -10.291   6.079  1.00  0.00     0.103 A 
HETATM   23  C   UNL     1      40.280 -11.114   6.280  1.00  0.00     0.048 A 
BRANCH  20  24
HETATM   24  O   UNL     1      37.561  -9.312   4.593  1.00  0.00    -0.357 OA
HETATM   25  H   UNL     1      36.819  -9.807   4.199  1.00  0.00     0.218 HD
ENDBRANCH  20  24
BRANCH  22  26
HETATM   26  O   UNL     1      38.759  -9.533   7.144  1.00  0.00    -0.353 OA
HETATM   27  C   UNL     1      39.834  -8.791   7.731  1.00  0.00     0.210 C 
ENDBRANCH  22  26
ENDBRANCH  16  17
ENDBRANCH   1  16
TORSDOF 4
ENDMDL
MODEL 6
REMARK VINA RESULT:      -7.0      3.615      6.824
REMARK  4 active torsions:
REMARK  status: ('A' for Active; 'I' for Inactive)
REMARK    1  A    between atoms: O_2  and  C_3 
REMARK    2  A    between atoms: C_4  and  O_5 
REMARK    3  A    between atoms: C_9  and  C_10 
REMARK    4  A    between atoms: C_10  and  N_11 
ROOT
HETATM    1  N   UNL     1      43.520 -14.918   6.701  1.00  0.00    -0.066 N 
HETATM    2  H   UNL     1      43.759 -14.405   7.558  1.00  0.00     0.280 HD
HETATM    3  C   UNL     1      42.151 -15.513   6.996  1.00  0.00     0.246 C 
HETATM    4  C   UNL     1      41.820 -16.765   6.162  1.00  0.00     0.062 C 
HETATM    5  C   UNL     1      42.924 -17.801   6.329  1.00  0.00     0.020 C 
HETATM    6  C   UNL     1      44.201 -17.201   5.762  1.00  0.00     0.031 C 
HETATM    7  C   UNL     1      44.021 -16.956   4.261  1.00  0.00     0.138 C 
HETATM    8  N   UNL     1      42.712 -16.456   3.839  1.00  0.00    -0.317 N 
HETATM    9  C   UNL     1      41.612 -16.433   4.700  1.00  0.00     0.020 A 
HETATM   10  C   UNL     1      40.397 -16.111   4.225  1.00  0.00     0.026 A 
HETATM   11  C   UNL     1      42.601 -16.127   2.479  1.00  0.00     0.247 A 
HETATM   12  O   UNL     1      43.554 -16.103   1.705  1.00  0.00    -0.268 OA
HETATM   13  C   UNL     1      41.248 -15.762   1.995  1.00  0.00     0.074 A 
HETATM   14  C   UNL     1      40.212 -15.766   2.839  1.00  0.00     0.007 A 
HETATM   15  C   UNL     1      44.614 -15.951   6.550  1.00  0.00     0.241 C 
ENDROOT
BRANCH   1  16
HETATM   16  C   UNL     1      43.576 -13.820   5.651  1.00  0.00     0.273 C 
BRANCH  16  17
HETATM   17  C   UNL     1      43.416 -12.427   6.199  1.00  0.00    -0.028 A 
HETATM   18  C   UNL     1      44.494 -11.791   6.837  1.00  0.00     0.031 A 
HETATM   19  C   UNL     1      44.349 -10.511   7.381  1.00  0.00     0.047 A 
HETATM   20  C   UNL     1      43.121  -9.855   7.304  1.00  0.00     0.116 A 
HETATM   21 BR   UNL     1      45.844  -9.732   8.245  1.00  0.00    -0.048 Br
HETATM   22  C   UNL     1      42.057 -10.459   6.630  1.00  0.00     0.103 A 
HETATM   23  C   UNL     1      42.194 -11.745   6.100  1.00  0.00     0.048 A 
BRANCH  20  24
HETATM   24  O   UNL     1      42.953  -8.648   7.921  1.00  0.00    -0.357 OA
HETATM   25  H   UNL     1      42.876  -7.972   7.223  1.00  0.00     0.218 HD
ENDBRANCH  20  24
BRANCH  22  26
HETATM   26  O   UNL     1      40.823  -9.875   6.525  1.00  0.00    -0.353 OA
HETATM   27  C   UNL     1      39.757 -10.811   6.725  1.00  0.00     0.210 C 
ENDBRANCH  22  26
ENDBRANCH  16  17
ENDBRANCH   1  16
TORSDOF 4
ENDMDL
MODEL 7
REMARK VINA RESULT:      -6.8     15.018     16.506
REMARK  4 active torsions:
REMARK  status: ('A' for Active; 'I' for Inactive)
REMARK    1  A    between atoms: O_2  and  C_3 
REMARK    2  A    between atoms: C_4  and  O_5 
REMARK    3  A    between atoms: C_9  and  C_10 
REMARK    4  A    between atoms: C_10  and  N_11 
ROOT
HETATM    1  N   UNL     1      43.928 -31.139  -2.391  1.00  0.00    -0.066 N 
HETATM    2  H   UNL     1      42.958 -31.451  -2.256  1.00  0.00     0.280 HD
HETATM    3  C   UNL     1      43.823 -29.623  -2.448  1.00  0.00     0.246 C 
HETATM    4  C   UNL     1      44.981 -28.943  -3.203  1.00  0.00     0.062 C 
HETATM    5  C   UNL     1      45.110 -29.544  -4.596  1.00  0.00     0.020 C 
HETATM    6  C   UNL     1      45.475 -31.011  -4.427  1.00  0.00     0.031 C 
HETATM    7  C   UNL     1      46.844 -31.117  -3.750  1.00  0.00     0.138 C 
HETATM    8  N   UNL     1      47.115 -30.153  -2.681  1.00  0.00    -0.317 N 
HETATM    9  C   UNL     1      46.289 -29.051  -2.448  1.00  0.00     0.020 A 
HETATM   10  C   UNL     1      46.659 -28.113  -1.559  1.00  0.00     0.026 A 
HETATM   11  C   UNL     1      48.325 -30.338  -1.994  1.00  0.00     0.247 A 
HETATM   12  O   UNL     1      49.053 -31.312  -2.150  1.00  0.00    -0.268 OA
HETATM   13  C   UNL     1      48.692 -29.291  -1.010  1.00  0.00     0.074 A 
HETATM   14  C   UNL     1      47.890 -28.238  -0.822  1.00  0.00     0.007 A 
HETATM   15  C   UNL     1      44.361 -31.770  -3.695  1.00  0.00     0.241 C 
ENDROOT
BRANCH   1  16
HETATM   16  C   UNL     1      44.620 -31.731  -1.174  1.00  0.00     0.273 C 
BRANCH  16  17
HETATM   17  C   UNL     1      44.087 -31.239   0.146  1.00  0.00    -0.028 A 
HETATM   18  C   UNL     1      42.824 -31.658   0.596  1.00  0.00     0.031 A 
HETATM   19  C   UNL     1      42.302 -31.182   1.803  1.00  0.00     0.047 A 
HETATM   20  C   UNL     1      43.030 -30.274   2.569  1.00  0.00     0.116 A 
HETATM   21 BR   UNL     1      40.582 -31.777   2.330  1.00  0.00    -0.048 Br
HETATM   22  C   UNL     1      44.307 -29.888   2.153  1.00  0.00     0.103 A 
HETATM   23  C   UNL     1      44.825 -30.348   0.940  1.00  0.00     0.048 A 
BRANCH  20  24
HETATM   24  O   UNL     1      42.478 -29.734   3.697  1.00  0.00    -0.357 OA
HETATM   25  H   UNL     1      42.345 -28.783   3.530  1.00  0.00     0.218 HD
ENDBRANCH  20  24
BRANCH  22  26
HETATM   26  O   UNL     1      45.072 -28.993   2.853  1.00  0.00    -0.353 OA
HETATM   27  C   UNL     1      46.462 -29.085   2.518  1.00  0.00     0.210 C 
ENDBRANCH  22  26
ENDBRANCH  16  17
ENDBRANCH   1  16
TORSDOF 4
ENDMDL
MODEL 8
REMARK VINA RESULT:      -6.7      3.572      6.403
REMARK  4 active torsions:
REMARK  status: ('A' for Active; 'I' for Inactive)
REMARK    1  A    between atoms: O_2  and  C_3 
REMARK    2  A    between atoms: C_4  and  O_5 
REMARK    3  A    between atoms: C_9  and  C_10 
REMARK    4  A    between atoms: C_10  and  N_11 
ROOT
HETATM    1  N   UNL     1      41.359 -15.034   1.651  1.00  0.00    -0.066 N 
HETATM    2  H   UNL     1      41.343 -15.250   0.647  1.00  0.00     0.280 HD
HETATM    3  C   UNL     1      42.808 -14.663   1.927  1.00  0.00     0.246 C 
HETATM    4  C   UNL     1      43.237 -14.860   3.393  1.00  0.00     0.062 C 
HETATM    5  C   UNL     1      42.935 -16.288   3.830  1.00  0.00     0.020 C 
HETATM    6  C   UNL     1      41.427 -16.474   3.767  1.00  0.00     0.031 C 
HETATM    7  C   UNL     1      40.759 -15.532   4.772  1.00  0.00     0.138 C 
HETATM    8  N   UNL     1      41.340 -14.194   4.892  1.00  0.00    -0.317 N 
HETATM    9  C   UNL     1      42.569 -13.864   4.316  1.00  0.00     0.020 A 
HETATM   10  C   UNL     1      43.133 -12.672   4.581  1.00  0.00     0.026 A 
HETATM   11  C   UNL     1      40.646 -13.307   5.730  1.00  0.00     0.247 A 
HETATM   12  O   UNL     1      39.549 -13.554   6.222  1.00  0.00    -0.268 OA
HETATM   13  C   UNL     1      41.292 -11.997   5.986  1.00  0.00     0.074 A 
HETATM   14  C   UNL     1      42.477 -11.717   5.435  1.00  0.00     0.007 A 
HETATM   15  C   UNL     1      40.916 -16.310   2.330  1.00  0.00     0.241 C 
ENDROOT
BRANCH   1  16
HETATM   16  C   UNL     1      40.337 -13.913   1.746  1.00  0.00     0.273 C 
BRANCH  16  17
HETATM   17  C   UNL     1      39.897 -13.357   0.417  1.00  0.00    -0.028 A 
HETATM   18  C   UNL     1      39.429 -14.219  -0.588  1.00  0.00     0.031 A 
HETATM   19  C   UNL     1      39.051 -13.719  -1.838  1.00  0.00     0.047 A 
HETATM   20  C   UNL     1      39.146 -12.354  -2.103  1.00  0.00     0.116 A 
HETATM   21 BR   UNL     1      38.450 -14.950  -3.148  1.00  0.00    -0.048 Br
HETATM   22  C   UNL     1      39.566 -11.484  -1.094  1.00  0.00     0.103 A 
HETATM   23  C   UNL     1      39.961 -11.981   0.151  1.00  0.00     0.048 A 
BRANCH  20  24
HETATM   24  O   UNL     1      38.870 -11.881  -3.354  1.00  0.00    -0.357 OA
HETATM   25  H   UNL     1      38.931 -12.634  -3.971  1.00  0.00     0.218 HD
ENDBRANCH  20  24
BRANCH  22  26
HETATM   26  O   UNL     1      39.691 -10.134  -1.289  1.00  0.00    -0.353 OA
HETATM   27  C   UNL     1      41.051  -9.693  -1.195  1.00  0.00     0.210 C 
ENDBRANCH  22  26
ENDBRANCH  16  17
ENDBRANCH   1  16
TORSDOF 4
ENDMDL
MODEL 9
REMARK VINA RESULT:      -6.7      3.592      5.823
REMARK  4 active torsions:
REMARK  status: ('A' for Active; 'I' for Inactive)
REMARK    1  A    between atoms: O_2  and  C_3 
REMARK    2  A    between atoms: C_4  and  O_5 
REMARK    3  A    between atoms: C_9  and  C_10 
REMARK    4  A    between atoms: C_10  and  N_11 
ROOT
HETATM    1  N   UNL     1      42.316 -15.675   3.142  1.00  0.00    -0.066 N 
HETATM    2  H   UNL     1      42.477 -16.251   2.307  1.00  0.00     0.280 HD
HETATM    3  C   UNL     1      43.350 -16.172   4.141  1.00  0.00     0.246 C 
HETATM    4  C   UNL     1      42.973 -15.917   5.613  1.00  0.00     0.062 C 
HETATM    5  C   UNL     1      41.596 -16.503   5.900  1.00  0.00     0.020 C 
HETATM    6  C   UNL     1      40.594 -15.754   5.036  1.00  0.00     0.031 C 
HETATM    7  C   UNL     1      40.565 -14.282   5.455  1.00  0.00     0.138 C 
HETATM    8  N   UNL     1      41.857 -13.679   5.791  1.00  0.00    -0.317 N 
HETATM    9  C   UNL     1      43.012 -14.445   5.960  1.00  0.00     0.020 A 
HETATM   10  C   UNL     1      44.137 -13.867   6.416  1.00  0.00     0.026 A 
HETATM   11  C   UNL     1      41.828 -12.301   6.060  1.00  0.00     0.247 A 
HETATM   12  O   UNL     1      40.840 -11.595   5.888  1.00  0.00    -0.268 OA
HETATM   13  C   UNL     1      43.092 -11.697   6.547  1.00  0.00     0.074 A 
HETATM   14  C   UNL     1      44.176 -12.459   6.716  1.00  0.00     0.007 A 
HETATM   15  C   UNL     1      40.888 -15.969   3.546  1.00  0.00     0.241 C 
ENDROOT
BRANCH   1  16
HETATM   16  C   UNL     1      42.512 -14.270   2.597  1.00  0.00     0.273 C 
BRANCH  16  17
HETATM   17  C   UNL     1      41.352 -13.748   1.792  1.00  0.00    -0.028 A 
HETATM   18  C   UNL     1      40.607 -12.650   2.256  1.00  0.00     0.031 A 
HETATM   19  C   UNL     1      39.506 -12.178   1.535  1.00  0.00     0.047 A 
HETATM   20  C   UNL     1      39.129 -12.802   0.347  1.00  0.00     0.116 A 
HETATM   21 BR   UNL     1      38.542 -10.707   2.239  1.00  0.00    -0.048 Br
HETATM   22  C   UNL     1      39.891 -13.864  -0.146  1.00  0.00     0.103 A 
HETATM   23  C   UNL     1      40.982 -14.350   0.579  1.00  0.00     0.048 A 
BRANCH  20  24
HETATM   24  O   UNL     1      37.996 -12.402  -0.304  1.00  0.00    -0.357 OA
HETATM   25  H   UNL     1      38.266 -11.772  -0.998  1.00  0.00     0.218 HD
ENDBRANCH  20  24
BRANCH  22  26
HETATM   26  O   UNL     1      39.571 -14.528  -1.300  1.00  0.00    -0.353 OA
HETATM   27  C   UNL     1      40.203 -13.956  -2.452  1.00  0.00     0.210 C 
ENDBRANCH  22  26
ENDBRANCH  16  17
ENDBRANCH   1  16
TORSDOF 4
ENDMDL
MODEL 10
REMARK VINA RESULT:      -6.6      2.781      6.383
REMARK  4 active torsions:
REMARK  status: ('A' for Active; 'I' for Inactive)
REMARK    1  A    between atoms: O_2  and  C_3 
REMARK    2  A    between atoms: C_4  and  O_5 
REMARK    3  A    between atoms: C_9  and  C_10 
REMARK    4  A    between atoms: C_10  and  N_11 
ROOT
HETATM    1  N   UNL     1      42.172 -13.780   6.449  1.00  0.00    -0.066 N 
HETATM    2  H   UNL     1      42.202 -12.949   7.052  1.00  0.00     0.280 HD
HETATM    3  C   UNL     1      40.697 -13.941   6.114  1.00  0.00     0.246 C 
HETATM    4  C   UNL     1      40.294 -15.378   5.734  1.00  0.00     0.062 C 
HETATM    5  C   UNL     1      40.723 -16.341   6.834  1.00  0.00     0.020 C 
HETATM    6  C   UNL     1      42.241 -16.298   6.910  1.00  0.00     0.031 C 
HETATM    7  C   UNL     1      42.829 -16.811   5.592  1.00  0.00     0.138 C 
HETATM    8  N   UNL     1      42.133 -16.405   4.370  1.00  0.00    -0.317 N 
HETATM    9  C   UNL     1      40.876 -15.794   4.400  1.00  0.00     0.020 A 
HETATM   10  C   UNL     1      40.210 -15.579   3.252  1.00  0.00     0.026 A 
HETATM   11  C   UNL     1      42.749 -16.786   3.169  1.00  0.00     0.247 A 
HETATM   12  O   UNL     1      43.866 -17.291   3.108  1.00  0.00    -0.268 OA
HETATM   13  C   UNL     1      41.991 -16.518   1.922  1.00  0.00     0.074 A 
HETATM   14  C   UNL     1      40.783 -15.949   1.984  1.00  0.00     0.007 A 
HETATM   15  C   UNL     1      42.729 -14.898   7.303  1.00  0.00     0.241 C 
ENDROOT
BRANCH   1  16
HETATM   16  C   UNL     1      43.092 -13.375   5.309  1.00  0.00     0.273 C 
BRANCH  16  17
HETATM   17  C   UNL     1      42.536 -12.299   4.413  1.00  0.00    -0.028 A 
HETATM   18  C   UNL     1      42.167 -12.602   3.092  1.00  0.00     0.031 A 
HETATM   19  C   UNL     1      41.682 -11.605   2.239  1.00  0.00     0.047 A 
HETATM   20  C   UNL     1      41.570 -10.292   2.693  1.00  0.00     0.116 A 
HETATM   21 BR   UNL     1      41.227 -12.091   0.465  1.00  0.00    -0.048 Br
HETATM   22  C   UNL     1      41.890  -9.991   4.019  1.00  0.00     0.103 A 
HETATM   23  C   UNL     1      42.390 -10.980   4.869  1.00  0.00     0.048 A 
BRANCH  20  24
HETATM   24  O   UNL     1      41.190  -9.303   1.831  1.00  0.00    -0.357 OA
HETATM   25  H   UNL     1      41.830  -8.573   1.925  1.00  0.00     0.218 HD
ENDBRANCH  20  24
BRANCH  22  26
HETATM   26  O   UNL     1      41.811  -8.721   4.526  1.00  0.00    -0.353 OA
HETATM   27  C   UNL     1      40.761  -8.582   5.490  1.00  0.00     0.210 C 
ENDBRANCH  22  26
ENDBRANCH  16  17
ENDBRANCH   1  16
TORSDOF 4
ENDMDL
