MODEL 1
REMARK VINA RESULT:      -8.0      0.000      0.000
REMARK  6 active torsions:
REMARK  status: ('A' for Active; 'I' for Inactive)
REMARK    1  A    between atoms: C_2  and  N_3 
REMARK    2  A    between atoms: C_2  and  C_24 
REMARK       I    between atoms: N_3  and  C_4 
REMARK    3  A    between atoms: C_4  and  C_5 
REMARK    4  A    between atoms: C_5  and  N_6 
REMARK    5  A    between atoms: C_10  and  N_11 
REMARK       I    between atoms: N_11  and  C_12 
REMARK       I    between atoms: C_12  and  N_13 
REMARK    6  A    between atoms: N_13  and  C_14 
ROOT
HETATM    1  N   UNL     1      40.918 -11.745   4.176  1.00  0.00    -0.063 N 
HETATM    2  H   UNL     1      40.569 -10.925   4.697  1.00  0.00     0.280 HD
HETATM    3  C   UNL     1      40.123 -12.959   4.558  1.00  0.00     0.237 C 
HETATM    4  C   UNL     1      40.495 -13.476   5.932  1.00  0.00     0.053 C 
HETATM    5  C   UNL     1      41.991 -13.699   6.113  1.00  0.00     0.089 C 
HETATM    6  C   UNL     1      42.775 -12.441   5.747  1.00  0.00     0.053 C 
HETATM    7  C   UNL     1      42.409 -11.811   4.414  1.00  0.00     0.237 C 
ENDROOT
BRANCH   1   8
HETATM    8  C   UNL     1      40.641 -11.415   2.690  1.00  0.00     0.337 C 
BRANCH   8   9
HETATM    9  C   UNL     1      39.255 -11.886   2.266  1.00  0.00     0.244 C 
HETATM   10  N   UNL     1      39.075 -13.030   1.558  1.00  0.00    -0.351 N 
HETATM   11  H   UNL     1      38.097 -13.210   1.352  1.00  0.00     0.163 HD
HETATM   12  O   UNL     1      38.272 -11.205   2.579  1.00  0.00    -0.272 OA
BRANCH  10  13
HETATM   13  C   UNL     1      40.030 -13.931   0.906  1.00  0.00     0.120 C 
HETATM   14  C   UNL     1      39.990 -15.339   1.491  1.00  0.00     0.038 C 
BRANCH  13  15
HETATM   15  C   UNL     1      39.928 -13.804  -0.596  1.00  0.00     0.005 A 
HETATM   16  S   UNL     1      40.530 -12.451  -1.467  1.00  0.00    -0.104 SA
HETATM   17  C   UNL     1      39.978 -13.063  -2.959  1.00  0.00     0.050 A 
HETATM   18  C   UNL     1      39.330 -14.266  -2.813  1.00  0.00     0.008 A 
HETATM   19  C   UNL     1      39.302 -14.694  -1.455  1.00  0.00     0.017 A 
ENDBRANCH  13  15
ENDBRANCH  10  13
ENDBRANCH   8   9
ENDBRANCH   1   8
BRANCH   5  20
HETATM   20  N   UNL     1      42.481 -14.947   5.525  1.00  0.00    -0.338 N 
HETATM   21  C   UNL     1      42.149 -16.214   5.874  1.00  0.00     0.316 C 
HETATM   22  N   UNL     1      42.806 -17.218   5.259  1.00  0.00    -0.339 N 
HETATM   23  O   UNL     1      41.316 -16.489   6.730  1.00  0.00    -0.247 OA
HETATM   24  H   UNL     1      42.456 -18.127   5.541  1.00  0.00     0.164 HD
HETATM   25  H   UNL     1      43.092 -14.854   4.727  1.00  0.00     0.164 HD
BRANCH  22  26
HETATM   26  C   UNL     1      43.877 -17.202   4.262  1.00  0.00     0.086 C 
HETATM   27  C   UNL     1      44.664 -18.520   4.306  1.00  0.00     0.025 C 
HETATM   28  C   UNL     1      43.881 -19.702   3.731  1.00  0.00     0.002 C 
HETATM   29  C   UNL     1      43.361 -19.403   2.329  1.00  0.00     0.000 C 
HETATM   30  C   UNL     1      42.544 -18.115   2.292  1.00  0.00     0.002 C 
HETATM   31  C   UNL     1      43.330 -16.931   2.855  1.00  0.00     0.025 C 
ENDBRANCH  22  26
ENDBRANCH   5  20
TORSDOF 6
ENDMDL
MODEL 2
REMARK VINA RESULT:      -7.8      2.617      7.108
REMARK  6 active torsions:
REMARK  status: ('A' for Active; 'I' for Inactive)
REMARK    1  A    between atoms: C_2  and  N_3 
REMARK    2  A    between atoms: C_2  and  C_24 
REMARK       I    between atoms: N_3  and  C_4 
REMARK    3  A    between atoms: C_4  and  C_5 
REMARK    4  A    between atoms: C_5  and  N_6 
REMARK    5  A    between atoms: C_10  and  N_11 
REMARK       I    between atoms: N_11  and  C_12 
REMARK       I    between atoms: C_12  and  N_13 
REMARK    6  A    between atoms: N_13  and  C_14 
ROOT
HETATM    1  N   UNL     1      42.220 -13.263   5.063  1.00  0.00    -0.063 N 
HETATM    2  H   UNL     1      42.721 -12.860   5.871  1.00  0.00     0.280 HD
HETATM    3  C   UNL     1      43.082 -13.167   3.838  1.00  0.00     0.237 C 
HETATM    4  C   UNL     1      43.146 -11.755   3.294  1.00  0.00     0.053 C 
HETATM    5  C   UNL     1      41.777 -11.125   3.074  1.00  0.00     0.089 C 
HETATM    6  C   UNL     1      40.932 -11.209   4.342  1.00  0.00     0.053 C 
HETATM    7  C   UNL     1      40.875 -12.578   4.998  1.00  0.00     0.237 C 
ENDROOT
BRANCH   1   8
HETATM    8  C   UNL     1      42.030 -14.755   5.423  1.00  0.00     0.337 C 
BRANCH   8   9
HETATM    9  C   UNL     1      43.368 -15.478   5.518  1.00  0.00     0.244 C 
HETATM   10  N   UNL     1      43.782 -16.345   4.560  1.00  0.00    -0.351 N 
HETATM   11  H   UNL     1      44.692 -16.745   4.764  1.00  0.00     0.163 HD
HETATM   12  O   UNL     1      44.091 -15.266   6.498  1.00  0.00    -0.272 OA
BRANCH  10  13
HETATM   13  C   UNL     1      43.088 -16.921   3.403  1.00  0.00     0.120 C 
HETATM   14  C   UNL     1      43.285 -16.092   2.138  1.00  0.00     0.038 C 
BRANCH  13  15
HETATM   15  C   UNL     1      43.370 -18.402   3.309  1.00  0.00     0.005 A 
HETATM   16  S   UNL     1      44.042 -19.314   4.601  1.00  0.00    -0.104 SA
HETATM   17  C   UNL     1      44.073 -20.748   3.679  1.00  0.00     0.050 A 
HETATM   18  C   UNL     1      43.600 -20.551   2.404  1.00  0.00     0.008 A 
HETATM   19  C   UNL     1      43.194 -19.202   2.191  1.00  0.00     0.017 A 
ENDBRANCH  13  15
ENDBRANCH  10  13
ENDBRANCH   8   9
ENDBRANCH   1   8
BRANCH   5  20
HETATM   20  N   UNL     1      41.118 -11.556   1.840  1.00  0.00    -0.338 N 
HETATM   21  C   UNL     1      41.202 -10.988   0.613  1.00  0.00     0.316 C 
HETATM   22  N   UNL     1      40.421 -11.499  -0.362  1.00  0.00    -0.339 N 
HETATM   23  O   UNL     1      41.918 -10.028   0.354  1.00  0.00    -0.247 OA
HETATM   24  H   UNL     1      40.590 -11.050  -1.255  1.00  0.00     0.164 HD
HETATM   25  H   UNL     1      40.584 -12.412   1.895  1.00  0.00     0.164 HD
BRANCH  22  26
HETATM   26  C   UNL     1      39.435 -12.580  -0.340  1.00  0.00     0.086 C 
HETATM   27  C   UNL     1      38.170 -12.159  -1.103  1.00  0.00     0.025 C 
HETATM   28  C   UNL     1      38.374 -12.113  -2.618  1.00  0.00     0.002 C 
HETATM   29  C   UNL     1      38.942 -13.424  -3.150  1.00  0.00     0.000 C 
HETATM   30  C   UNL     1      40.223 -13.822  -2.421  1.00  0.00     0.002 C 
HETATM   31  C   UNL     1      40.017 -13.881  -0.908  1.00  0.00     0.025 C 
ENDBRANCH  22  26
ENDBRANCH   5  20
TORSDOF 6
ENDMDL
MODEL 3
REMARK VINA RESULT:      -7.6      2.476      5.652
REMARK  6 active torsions:
REMARK  status: ('A' for Active; 'I' for Inactive)
REMARK    1  A    between atoms: C_2  and  N_3 
REMARK    2  A    between atoms: C_2  and  C_24 
REMARK       I    between atoms: N_3  and  C_4 
REMARK    3  A    between atoms: C_4  and  C_5 
REMARK    4  A    between atoms: C_5  and  N_6 
REMARK    5  A    between atoms: C_10  and  N_11 
REMARK       I    between atoms: N_11  and  C_12 
REMARK       I    between atoms: C_12  and  N_13 
REMARK    6  A    between atoms: N_13  and  C_14 
ROOT
HETATM    1  N   UNL     1      41.752 -16.074   2.545  1.00  0.00    -0.063 N 
HETATM    2  H   UNL     1      41.471 -17.035   2.290  1.00  0.00     0.280 HD
HETATM    3  C   UNL     1      43.195 -16.064   2.957  1.00  0.00     0.237 C 
HETATM    4  C   UNL     1      43.399 -16.658   4.335  1.00  0.00     0.053 C 
HETATM    5  C   UNL     1      42.502 -16.042   5.401  1.00  0.00     0.089 C 
HETATM    6  C   UNL     1      41.038 -16.092   4.972  1.00  0.00     0.053 C 
HETATM    7  C   UNL     1      40.753 -15.585   3.568  1.00  0.00     0.237 C 
ENDROOT
BRANCH   1   8
HETATM    8  C   UNL     1      41.601 -15.261   1.238  1.00  0.00     0.337 C 
BRANCH   8   9
HETATM    9  C   UNL     1      40.156 -15.254   0.752  1.00  0.00     0.244 C 
HETATM   10  N   UNL     1      39.531 -14.106   0.387  1.00  0.00    -0.351 N 
HETATM   11  H   UNL     1      38.574 -14.263   0.086  1.00  0.00     0.163 HD
HETATM   12  O   UNL     1      39.543 -16.325   0.692  1.00  0.00    -0.272 OA
BRANCH  10  13
HETATM   13  C   UNL     1      39.926 -12.700   0.513  1.00  0.00     0.120 C 
HETATM   14  C   UNL     1      39.125 -11.788  -0.410  1.00  0.00     0.038 C 
BRANCH  13  15
HETATM   15  C   UNL     1      40.008 -12.308   1.970  1.00  0.00     0.005 A 
HETATM   16  S   UNL     1      41.450 -11.732   2.707  1.00  0.00    -0.104 SA
HETATM   17  C   UNL     1      40.712 -11.607   4.239  1.00  0.00     0.050 A 
HETATM   18  C   UNL     1      39.398 -12.009   4.211  1.00  0.00     0.008 A 
HETATM   19  C   UNL     1      38.992 -12.411   2.907  1.00  0.00     0.017 A 
ENDBRANCH  13  15
ENDBRANCH  10  13
ENDBRANCH   8   9
ENDBRANCH   1   8
BRANCH   5  20
HETATM   20  N   UNL     1      42.975 -14.751   5.901  1.00  0.00    -0.338 N 
HETATM   21  C   UNL     1      43.171 -14.382   7.191  1.00  0.00     0.316 C 
HETATM   22  N   UNL     1      43.516 -13.099   7.423  1.00  0.00    -0.339 N 
HETATM   23  O   UNL     1      43.023 -15.137   8.145  1.00  0.00    -0.247 OA
HETATM   24  H   UNL     1      43.694 -12.928   8.406  1.00  0.00     0.164 HD
HETATM   25  H   UNL     1      43.243 -14.073   5.203  1.00  0.00     0.164 HD
BRANCH  22  26
HETATM   26  C   UNL     1      43.700 -11.970   6.511  1.00  0.00     0.086 C 
HETATM   27  C   UNL     1      42.935 -10.742   7.026  1.00  0.00     0.025 C 
HETATM   28  C   UNL     1      43.584 -10.105   8.256  1.00  0.00     0.002 C 
HETATM   29  C   UNL     1      45.057  -9.792   8.015  1.00  0.00     0.000 C 
HETATM   30  C   UNL     1      45.827 -11.022   7.544  1.00  0.00     0.002 C 
HETATM   31  C   UNL     1      45.187 -11.650   6.307  1.00  0.00     0.025 C 
ENDBRANCH  22  26
ENDBRANCH   5  20
TORSDOF 6
ENDMDL
MODEL 4
REMARK VINA RESULT:      -7.6      4.830      8.128
REMARK  6 active torsions:
REMARK  status: ('A' for Active; 'I' for Inactive)
REMARK    1  A    between atoms: C_2  and  N_3 
REMARK    2  A    between atoms: C_2  and  C_24 
REMARK       I    between atoms: N_3  and  C_4 
REMARK    3  A    between atoms: C_4  and  C_5 
REMARK    4  A    between atoms: C_5  and  N_6 
REMARK    5  A    between atoms: C_10  and  N_11 
REMARK       I    between atoms: N_11  and  C_12 
REMARK       I    between atoms: C_12  and  N_13 
REMARK    6  A    between atoms: N_13  and  C_14 
ROOT
HETATM    1  N   UNL     1      41.761 -11.813   5.060  1.00  0.00    -0.063 N 
HETATM    2  H   UNL     1      41.298 -11.804   4.138  1.00  0.00     0.280 HD
HETATM    3  C   UNL     1      40.805 -12.322   6.099  1.00  0.00     0.237 C 
HETATM    4  C   UNL     1      39.756 -11.292   6.461  1.00  0.00     0.053 C 
HETATM    5  C   UNL     1      40.339  -9.938   6.844  1.00  0.00     0.089 C 
HETATM    6  C   UNL     1      41.284  -9.429   5.759  1.00  0.00     0.053 C 
HETATM    7  C   UNL     1      42.324 -10.428   5.280  1.00  0.00     0.237 C 
ENDROOT
BRANCH   1   8
HETATM    8  C   UNL     1      42.919 -12.828   4.908  1.00  0.00     0.337 C 
BRANCH   8   9
HETATM    9  C   UNL     1      42.895 -13.495   3.537  1.00  0.00     0.244 C 
HETATM   10  N   UNL     1      42.497 -14.782   3.376  1.00  0.00    -0.351 N 
HETATM   11  H   UNL     1      42.536 -15.082   2.406  1.00  0.00     0.163 HD
HETATM   12  O   UNL     1      43.250 -12.840   2.551  1.00  0.00    -0.272 OA
BRANCH  10  13
HETATM   13  C   UNL     1      42.197 -15.837   4.348  1.00  0.00     0.120 C 
HETATM   14  C   UNL     1      40.705 -15.948   4.642  1.00  0.00     0.038 C 
BRANCH  13  15
HETATM   15  C   UNL     1      42.924 -17.110   3.979  1.00  0.00     0.005 A 
HETATM   16  S   UNL     1      43.968 -17.941   5.062  1.00  0.00    -0.104 SA
HETATM   17  C   UNL     1      44.367 -19.122   3.898  1.00  0.00     0.050 A 
HETATM   18  C   UNL     1      43.740 -18.892   2.697  1.00  0.00     0.008 A 
HETATM   19  C   UNL     1      42.909 -17.736   2.744  1.00  0.00     0.017 A 
ENDBRANCH  13  15
ENDBRANCH  10  13
ENDBRANCH   8   9
ENDBRANCH   1   8
BRANCH   5  20
HETATM   20  N   UNL     1      40.852  -9.879   8.214  1.00  0.00    -0.338 N 
HETATM   21  C   UNL     1      40.169  -9.568   9.342  1.00  0.00     0.316 C 
HETATM   22  N   UNL     1      40.875  -9.475  10.488  1.00  0.00    -0.339 N 
HETATM   23  O   UNL     1      38.965  -9.339   9.369  1.00  0.00    -0.247 OA
HETATM   24  H   UNL     1      40.277  -9.294  11.286  1.00  0.00     0.164 HD
HETATM   25  H   UNL     1      41.813 -10.160   8.342  1.00  0.00     0.164 HD
BRANCH  22  26
HETATM   26  C   UNL     1      42.305  -9.625  10.754  1.00  0.00     0.086 C 
HETATM   27  C   UNL     1      43.011  -8.266  10.644  1.00  0.00     0.025 C 
HETATM   28  C   UNL     1      42.694  -7.332  11.813  1.00  0.00     0.002 C 
HETATM   29  C   UNL     1      42.964  -7.999  13.156  1.00  0.00     0.000 C 
HETATM   30  C   UNL     1      42.230  -9.331  13.284  1.00  0.00     0.002 C 
HETATM   31  C   UNL     1      42.557 -10.270  12.124  1.00  0.00     0.025 C 
ENDBRANCH  22  26
ENDBRANCH   5  20
TORSDOF 6
ENDMDL
MODEL 5
REMARK VINA RESULT:      -7.5      3.219      6.102
REMARK  6 active torsions:
REMARK  status: ('A' for Active; 'I' for Inactive)
REMARK    1  A    between atoms: C_2  and  N_3 
REMARK    2  A    between atoms: C_2  and  C_24 
REMARK       I    between atoms: N_3  and  C_4 
REMARK    3  A    between atoms: C_4  and  C_5 
REMARK    4  A    between atoms: C_5  and  N_6 
REMARK    5  A    between atoms: C_10  and  N_11 
REMARK       I    between atoms: N_11  and  C_12 
REMARK       I    between atoms: C_12  and  N_13 
REMARK    6  A    between atoms: N_13  and  C_14 
ROOT
HETATM    1  N   UNL     1      41.184 -11.398   3.740  1.00  0.00    -0.063 N 
HETATM    2  H   UNL     1      40.429 -10.738   3.495  1.00  0.00     0.280 HD
HETATM    3  C   UNL     1      41.595 -12.167   2.518  1.00  0.00     0.237 C 
HETATM    4  C   UNL     1      40.579 -13.223   2.140  1.00  0.00     0.053 C 
HETATM    5  C   UNL     1      40.205 -14.149   3.291  1.00  0.00     0.089 C 
HETATM    6  C   UNL     1      39.763 -13.344   4.511  1.00  0.00     0.053 C 
HETATM    7  C   UNL     1      40.690 -12.210   4.914  1.00  0.00     0.237 C 
ENDROOT
BRANCH   1   8
HETATM    8  C   UNL     1      42.363 -10.501   4.184  1.00  0.00     0.337 C 
BRANCH   8   9
HETATM    9  C   UNL     1      43.670 -11.285   4.233  1.00  0.00     0.244 C 
HETATM   10  N   UNL     1      44.127 -11.841   5.383  1.00  0.00    -0.351 N 
HETATM   11  H   UNL     1      45.007 -12.330   5.256  1.00  0.00     0.163 HD
HETATM   12  O   UNL     1      44.326 -11.414   3.194  1.00  0.00    -0.272 OA
BRANCH  10  13
HETATM   13  C   UNL     1      43.675 -11.713   6.772  1.00  0.00     0.120 C 
HETATM   14  C   UNL     1      43.598 -13.060   7.483  1.00  0.00     0.038 C 
BRANCH  13  15
HETATM   15  C   UNL     1      44.432 -10.607   7.469  1.00  0.00     0.005 A 
HETATM   16  S   UNL     1      43.663  -9.237   8.166  1.00  0.00    -0.104 SA
HETATM   17  C   UNL     1      45.148  -8.540   8.633  1.00  0.00     0.050 A 
HETATM   18  C   UNL     1      46.220  -9.314   8.258  1.00  0.00     0.008 A 
HETATM   19  C   UNL     1      45.809 -10.503   7.590  1.00  0.00     0.017 A 
ENDBRANCH  13  15
ENDBRANCH  10  13
ENDBRANCH   8   9
ENDBRANCH   1   8
BRANCH   5  20
HETATM   20  N   UNL     1      41.188 -15.203   3.547  1.00  0.00    -0.338 N 
HETATM   21  C   UNL     1      41.139 -16.170   4.496  1.00  0.00     0.316 C 
HETATM   22  N   UNL     1      42.212 -16.978   4.614  1.00  0.00    -0.339 N 
HETATM   23  O   UNL     1      40.195 -16.325   5.262  1.00  0.00    -0.247 OA
HETATM   24  H   UNL     1      42.066 -17.701   5.308  1.00  0.00     0.164 HD
HETATM   25  H   UNL     1      41.964 -15.255   2.904  1.00  0.00     0.164 HD
BRANCH  22  26
HETATM   26  C   UNL     1      43.490 -16.994   3.901  1.00  0.00     0.086 C 
HETATM   27  C   UNL     1      44.468 -17.960   4.585  1.00  0.00     0.025 C 
HETATM   28  C   UNL     1      44.106 -19.430   4.368  1.00  0.00     0.002 C 
HETATM   29  C   UNL     1      43.936 -19.755   2.888  1.00  0.00     0.000 C 
HETATM   30  C   UNL     1      42.933 -18.823   2.216  1.00  0.00     0.002 C 
HETATM   31  C   UNL     1      43.302 -17.354   2.421  1.00  0.00     0.025 C 
ENDBRANCH  22  26
ENDBRANCH   5  20
TORSDOF 6
ENDMDL
MODEL 6
REMARK VINA RESULT:      -7.5      4.937      8.132
REMARK  6 active torsions:
REMARK  status: ('A' for Active; 'I' for Inactive)
REMARK    1  A    between atoms: C_2  and  N_3 
REMARK    2  A    between atoms: C_2  and  C_24 
REMARK       I    between atoms: N_3  and  C_4 
REMARK    3  A    between atoms: C_4  and  C_5 
REMARK    4  A    between atoms: C_5  and  N_6 
REMARK    5  A    between atoms: C_10  and  N_11 
REMARK       I    between atoms: N_11  and  C_12 
REMARK       I    between atoms: C_12  and  N_13 
REMARK    6  A    between atoms: N_13  and  C_14 
ROOT
HETATM    1  N   UNL     1      42.096 -12.421   5.910  1.00  0.00    -0.063 N 
HETATM    2  H   UNL     1      42.488 -12.552   4.963  1.00  0.00     0.280 HD
HETATM    3  C   UNL     1      41.737 -10.977   6.109  1.00  0.00     0.237 C 
HETATM    4  C   UNL     1      42.959 -10.109   6.323  1.00  0.00     0.053 C 
HETATM    5  C   UNL     1      43.884 -10.619   7.421  1.00  0.00     0.089 C 
HETATM    6  C   UNL     1      44.258 -12.079   7.179  1.00  0.00     0.053 C 
HETATM    7  C   UNL     1      43.095 -13.009   6.880  1.00  0.00     0.237 C 
ENDROOT
BRANCH   1   8
HETATM    8  C   UNL     1      40.800 -13.263   5.920  1.00  0.00     0.337 C 
BRANCH   8   9
HETATM    9  C   UNL     1      40.590 -13.975   4.588  1.00  0.00     0.244 C 
HETATM   10  N   UNL     1      41.146 -15.186   4.330  1.00  0.00    -0.351 N 
HETATM   11  H   UNL     1      40.916 -15.530   3.403  1.00  0.00     0.163 HD
HETATM   12  O   UNL     1      39.895 -13.430   3.724  1.00  0.00    -0.272 OA
BRANCH  10  13
HETATM   13  C   UNL     1      42.135 -15.979   5.066  1.00  0.00     0.120 C 
HETATM   14  C   UNL     1      41.611 -16.449   6.419  1.00  0.00     0.038 C 
BRANCH  13  15
HETATM   15  C   UNL     1      42.745 -17.025   4.161  1.00  0.00     0.005 A 
HETATM   16  S   UNL     1      44.056 -18.029   4.639  1.00  0.00    -0.104 SA
HETATM   17  C   UNL     1      44.131 -18.792   3.115  1.00  0.00     0.050 A 
HETATM   18  C   UNL     1      43.194 -18.291   2.243  1.00  0.00     0.008 A 
HETATM   19  C   UNL     1      42.396 -17.276   2.844  1.00  0.00     0.017 A 
ENDBRANCH  13  15
ENDBRANCH  10  13
ENDBRANCH   8   9
ENDBRANCH   1   8
BRANCH   5  20
HETATM   20  N   UNL     1      43.432 -10.294   8.775  1.00  0.00    -0.338 N 
HETATM   21  C   UNL     1      44.118 -10.438   9.935  1.00  0.00     0.316 C 
HETATM   22  N   UNL     1      43.461 -10.168  11.081  1.00  0.00    -0.339 N 
HETATM   23  O   UNL     1      45.279 -10.826   9.996  1.00  0.00    -0.247 OA
HETATM   24  H   UNL     1      44.065 -10.249  11.891  1.00  0.00     0.164 HD
HETATM   25  H   UNL     1      42.526  -9.856   8.849  1.00  0.00     0.164 HD
BRANCH  22  26
HETATM   26  C   UNL     1      42.078  -9.757  11.326  1.00  0.00     0.086 C 
HETATM   27  C   UNL     1      41.677 -10.080  12.773  1.00  0.00     0.025 C 
HETATM   28  C   UNL     1      42.338  -9.156  13.797  1.00  0.00     0.002 C 
HETATM   29  C   UNL     1      42.104  -7.687  13.462  1.00  0.00     0.000 C 
HETATM   30  C   UNL     1      42.541  -7.355  12.038  1.00  0.00     0.002 C 
HETATM   31  C   UNL     1      41.871  -8.269  11.014  1.00  0.00     0.025 C 
ENDBRANCH  22  26
ENDBRANCH   5  20
TORSDOF 6
ENDMDL
MODEL 7
REMARK VINA RESULT:      -7.4      4.672      7.612
REMARK  6 active torsions:
REMARK  status: ('A' for Active; 'I' for Inactive)
REMARK    1  A    between atoms: C_2  and  N_3 
REMARK    2  A    between atoms: C_2  and  C_24 
REMARK       I    between atoms: N_3  and  C_4 
REMARK    3  A    between atoms: C_4  and  C_5 
REMARK    4  A    between atoms: C_5  and  N_6 
REMARK    5  A    between atoms: C_10  and  N_11 
REMARK       I    between atoms: N_11  and  C_12 
REMARK       I    between atoms: C_12  and  N_13 
REMARK    6  A    between atoms: N_13  and  C_14 
ROOT
HETATM    1  N   UNL     1      42.790 -13.076   6.072  1.00  0.00    -0.063 N 
HETATM    2  H   UNL     1      43.095 -13.399   5.139  1.00  0.00     0.280 HD
HETATM    3  C   UNL     1      42.060 -11.772   5.939  1.00  0.00     0.237 C 
HETATM    4  C   UNL     1      43.000 -10.616   5.674  1.00  0.00     0.053 C 
HETATM    5  C   UNL     1      44.147 -10.523   6.673  1.00  0.00     0.089 C 
HETATM    6  C   UNL     1      44.892 -11.852   6.767  1.00  0.00     0.053 C 
HETATM    7  C   UNL     1      44.015 -13.078   6.957  1.00  0.00     0.237 C 
ENDROOT
BRANCH   1   8
HETATM    8  C   UNL     1      41.795 -14.158   6.555  1.00  0.00     0.337 C 
BRANCH   8   9
HETATM    9  C   UNL     1      40.472 -14.071   5.802  1.00  0.00     0.244 C 
HETATM   10  N   UNL     1      40.330 -14.570   4.548  1.00  0.00    -0.351 N 
HETATM   11  H   UNL     1      39.393 -14.438   4.181  1.00  0.00     0.163 HD
HETATM   12  O   UNL     1      39.507 -13.532   6.354  1.00  0.00    -0.272 OA
BRANCH  10  13
HETATM   13  C   UNL     1      41.311 -15.092   3.592  1.00  0.00     0.120 C 
HETATM   14  C   UNL     1      41.633 -16.563   3.837  1.00  0.00     0.038 C 
BRANCH  13  15
HETATM   15  C   UNL     1      40.932 -14.695   2.184  1.00  0.00     0.005 A 
HETATM   16  S   UNL     1      41.313 -13.162   1.508  1.00  0.00    -0.104 SA
HETATM   17  C   UNL     1      40.523 -13.523   0.040  1.00  0.00     0.050 A 
HETATM   18  C   UNL     1      39.960 -14.776   0.054  1.00  0.00     0.008 A 
HETATM   19  C   UNL     1      40.196 -15.451   1.286  1.00  0.00     0.017 A 
ENDBRANCH  13  15
ENDBRANCH  10  13
ENDBRANCH   8   9
ENDBRANCH   1   8
BRANCH   5  20
HETATM   20  N   UNL     1      43.775  -9.911   7.949  1.00  0.00    -0.338 N 
HETATM   21  C   UNL     1      44.428  -8.933   8.622  1.00  0.00     0.316 C 
HETATM   22  N   UNL     1      43.953  -8.593   9.838  1.00  0.00    -0.339 N 
HETATM   23  O   UNL     1      45.433  -8.371   8.201  1.00  0.00    -0.247 OA
HETATM   24  H   UNL     1      44.469  -7.819  10.242  1.00  0.00     0.164 HD
HETATM   25  H   UNL     1      42.896 -10.209   8.347  1.00  0.00     0.164 HD
BRANCH  22  26
HETATM   26  C   UNL     1      42.834  -9.121  10.618  1.00  0.00     0.086 C 
HETATM   27  C   UNL     1      43.258  -9.335  12.078  1.00  0.00     0.025 C 
HETATM   28  C   UNL     1      43.430  -8.025  12.848  1.00  0.00     0.002 C 
HETATM   29  C   UNL     1      42.189  -7.145  12.745  1.00  0.00     0.000 C 
HETATM   30  C   UNL     1      41.791  -6.896  11.293  1.00  0.00     0.002 C 
HETATM   31  C   UNL     1      41.606  -8.205  10.527  1.00  0.00     0.025 C 
ENDBRANCH  22  26
ENDBRANCH   5  20
TORSDOF 6
ENDMDL
MODEL 8
REMARK VINA RESULT:      -7.4      1.954      2.483
REMARK  6 active torsions:
REMARK  status: ('A' for Active; 'I' for Inactive)
REMARK    1  A    between atoms: C_2  and  N_3 
REMARK    2  A    between atoms: C_2  and  C_24 
REMARK       I    between atoms: N_3  and  C_4 
REMARK    3  A    between atoms: C_4  and  C_5 
REMARK    4  A    between atoms: C_5  and  N_6 
REMARK    5  A    between atoms: C_10  and  N_11 
REMARK       I    between atoms: N_11  and  C_12 
REMARK       I    between atoms: C_12  and  N_13 
REMARK    6  A    between atoms: N_13  and  C_14 
ROOT
HETATM    1  N   UNL     1      41.521 -11.151   5.155  1.00  0.00    -0.063 N 
HETATM    2  H   UNL     1      41.177 -10.452   5.832  1.00  0.00     0.280 HD
HETATM    3  C   UNL     1      40.477 -12.210   4.951  1.00  0.00     0.237 C 
HETATM    4  C   UNL     1      40.390 -13.160   6.127  1.00  0.00     0.053 C 
HETATM    5  C   UNL     1      41.734 -13.759   6.526  1.00  0.00     0.089 C 
HETATM    6  C   UNL     1      42.769 -12.661   6.756  1.00  0.00     0.053 C 
HETATM    7  C   UNL     1      42.868 -11.618   5.656  1.00  0.00     0.237 C 
ENDROOT
BRANCH   1   8
HETATM    8  C   UNL     1      41.698 -10.366   3.834  1.00  0.00     0.337 C 
BRANCH   8   9
HETATM    9  C   UNL     1      42.579 -11.127   2.850  1.00  0.00     0.244 C 
HETATM   10  N   UNL     1      42.061 -11.744   1.758  1.00  0.00    -0.351 N 
HETATM   11  H   UNL     1      42.772 -12.207   1.199  1.00  0.00     0.163 HD
HETATM   12  O   UNL     1      43.796 -11.179   3.057  1.00  0.00    -0.272 OA
BRANCH  10  13
HETATM   13  C   UNL     1      40.677 -12.001   1.350  1.00  0.00     0.120 C 
HETATM   14  C   UNL     1      40.293 -11.236   0.088  1.00  0.00     0.038 C 
BRANCH  13  15
HETATM   15  C   UNL     1      40.392 -13.485   1.371  1.00  0.00     0.005 A 
HETATM   16  S   UNL     1      40.117 -14.408  -0.052  1.00  0.00    -0.104 SA
HETATM   17  C   UNL     1      39.840 -15.839   0.834  1.00  0.00     0.050 A 
HETATM   18  C   UNL     1      39.934 -15.632   2.189  1.00  0.00     0.008 A 
HETATM   19  C   UNL     1      40.253 -14.279   2.499  1.00  0.00     0.017 A 
ENDBRANCH  13  15
ENDBRANCH  10  13
ENDBRANCH   8   9
ENDBRANCH   1   8
BRANCH   5  20
HETATM   20  N   UNL     1      42.163 -14.870   5.676  1.00  0.00    -0.338 N 
HETATM   21  C   UNL     1      41.557 -16.071   5.512  1.00  0.00     0.316 C 
HETATM   22  N   UNL     1      42.191 -16.987   4.752  1.00  0.00    -0.339 N 
HETATM   23  O   UNL     1      40.492 -16.374   6.038  1.00  0.00    -0.247 OA
HETATM   24  H   UNL     1      41.641 -17.832   4.641  1.00  0.00     0.164 HD
HETATM   25  H   UNL     1      42.973 -14.702   5.097  1.00  0.00     0.164 HD
BRANCH  22  26
HETATM   26  C   UNL     1      43.480 -16.942   4.061  1.00  0.00     0.086 C 
HETATM   27  C   UNL     1      44.424 -18.013   4.627  1.00  0.00     0.025 C 
HETATM   28  C   UNL     1      44.032 -19.432   4.212  1.00  0.00     0.002 C 
HETATM   29  C   UNL     1      43.881 -19.556   2.700  1.00  0.00     0.000 C 
HETATM   30  C   UNL     1      42.912 -18.518   2.142  1.00  0.00     0.002 C 
HETATM   31  C   UNL     1      43.310 -17.099   2.544  1.00  0.00     0.025 C 
ENDBRANCH  22  26
ENDBRANCH   5  20
TORSDOF 6
ENDMDL
MODEL 9
REMARK VINA RESULT:      -7.4      3.580      7.312
REMARK  6 active torsions:
REMARK  status: ('A' for Active; 'I' for Inactive)
REMARK    1  A    between atoms: C_2  and  N_3 
REMARK    2  A    between atoms: C_2  and  C_24 
REMARK       I    between atoms: N_3  and  C_4 
REMARK    3  A    between atoms: C_4  and  C_5 
REMARK    4  A    between atoms: C_5  and  N_6 
REMARK    5  A    between atoms: C_10  and  N_11 
REMARK       I    between atoms: N_11  and  C_12 
REMARK       I    between atoms: C_12  and  N_13 
REMARK    6  A    between atoms: N_13  and  C_14 
ROOT
HETATM    1  N   UNL     1      40.643 -13.381   4.041  1.00  0.00    -0.063 N 
HETATM    2  H   UNL     1      40.097 -13.363   3.165  1.00  0.00     0.280 HD
HETATM    3  C   UNL     1      39.854 -12.728   5.138  1.00  0.00     0.237 C 
HETATM    4  C   UNL     1      39.826 -11.220   5.001  1.00  0.00     0.053 C 
HETATM    5  C   UNL     1      41.208 -10.597   4.850  1.00  0.00     0.089 C 
HETATM    6  C   UNL     1      41.978 -11.257   3.709  1.00  0.00     0.053 C 
HETATM    7  C   UNL     1      41.992 -12.776   3.727  1.00  0.00     0.237 C 
ENDROOT
BRANCH   1   8
HETATM    8  C   UNL     1      40.808 -14.883   4.371  1.00  0.00     0.337 C 
BRANCH   8   9
HETATM    9  C   UNL     1      42.221 -15.193   4.852  1.00  0.00     0.244 C 
HETATM   10  N   UNL     1      43.098 -15.891   4.088  1.00  0.00    -0.351 N 
HETATM   11  H   UNL     1      43.997 -16.016   4.543  1.00  0.00     0.163 HD
HETATM   12  O   UNL     1      42.571 -14.796   5.969  1.00  0.00    -0.272 OA
BRANCH  10  13
HETATM   13  C   UNL     1      42.924 -16.625   2.831  1.00  0.00     0.120 C 
HETATM   14  C   UNL     1      43.554 -15.902   1.645  1.00  0.00     0.038 C 
BRANCH  13  15
HETATM   15  C   UNL     1      43.282 -18.081   3.021  1.00  0.00     0.005 A 
HETATM   16  S   UNL     1      44.057 -18.680   4.433  1.00  0.00    -0.104 SA
HETATM   17  C   UNL     1      44.128 -20.268   3.818  1.00  0.00     0.050 A 
HETATM   18  C   UNL     1      43.592 -20.355   2.555  1.00  0.00     0.008 A 
HETATM   19  C   UNL     1      43.104 -19.098   2.097  1.00  0.00     0.017 A 
ENDBRANCH  13  15
ENDBRANCH  10  13
ENDBRANCH   8   9
ENDBRANCH   1   8
BRANCH   5  20
HETATM   20  N   UNL     1      41.936 -10.456   6.111  1.00  0.00    -0.338 N 
HETATM   21  C   UNL     1      42.048  -9.349   6.886  1.00  0.00     0.316 C 
HETATM   22  N   UNL     1      42.860  -9.423   7.960  1.00  0.00    -0.339 N 
HETATM   23  O   UNL     1      41.480  -8.290   6.645  1.00  0.00    -0.247 OA
HETATM   24  H   UNL     1      42.839  -8.571   8.509  1.00  0.00     0.164 HD
HETATM   25  H   UNL     1      42.357 -11.296   6.480  1.00  0.00     0.164 HD
BRANCH  22  26
HETATM   26  C   UNL     1      43.704 -10.509   8.457  1.00  0.00     0.086 C 
HETATM   27  C   UNL     1      45.132 -10.364   7.911  1.00  0.00     0.025 C 
HETATM   28  C   UNL     1      45.903  -9.209   8.554  1.00  0.00     0.002 C 
HETATM   29  C   UNL     1      45.888  -9.302  10.076  1.00  0.00     0.000 C 
HETATM   30  C   UNL     1      44.467  -9.405  10.623  1.00  0.00     0.002 C 
HETATM   31  C   UNL     1      43.701 -10.566   9.990  1.00  0.00     0.025 C 
ENDBRANCH  22  26
ENDBRANCH   5  20
TORSDOF 6
ENDMDL
MODEL 10
REMARK VINA RESULT:      -7.3      2.693      7.558
REMARK  6 active torsions:
REMARK  status: ('A' for Active; 'I' for Inactive)
REMARK    1  A    between atoms: C_2  and  N_3 
REMARK    2  A    between atoms: C_2  and  C_24 
REMARK       I    between atoms: N_3  and  C_4 
REMARK    3  A    between atoms: C_4  and  C_5 
REMARK    4  A    between atoms: C_5  and  N_6 
REMARK    5  A    between atoms: C_10  and  N_11 
REMARK       I    between atoms: N_11  and  C_12 
REMARK       I    between atoms: C_12  and  N_13 
REMARK    6  A    between atoms: N_13  and  C_14 
ROOT
HETATM    1  N   UNL     1      41.705 -14.079   4.467  1.00  0.00    -0.063 N 
HETATM    2  H   UNL     1      42.066 -13.986   5.430  1.00  0.00     0.280 HD
HETATM    3  C   UNL     1      42.842 -13.987   3.492  1.00  0.00     0.237 C 
HETATM    4  C   UNL     1      43.344 -12.567   3.334  1.00  0.00     0.053 C 
HETATM    5  C   UNL     1      42.243 -11.564   3.016  1.00  0.00     0.089 C 
HETATM    6  C   UNL     1      41.114 -11.657   4.038  1.00  0.00     0.053 C 
HETATM    7  C   UNL     1      40.600 -13.059   4.315  1.00  0.00     0.237 C 
ENDROOT
BRANCH   1   8
HETATM    8  C   UNL     1      41.110 -15.506   4.407  1.00  0.00     0.337 C 
BRANCH   8   9
HETATM    9  C   UNL     1      41.165 -16.188   5.769  1.00  0.00     0.244 C 
HETATM   10  N   UNL     1      42.312 -16.728   6.252  1.00  0.00    -0.351 N 
HETATM   11  H   UNL     1      42.190 -17.144   7.170  1.00  0.00     0.163 HD
HETATM   12  O   UNL     1      40.133 -16.247   6.447  1.00  0.00    -0.272 OA
BRANCH  10  13
HETATM   13  C   UNL     1      43.616 -16.964   5.625  1.00  0.00     0.120 C 
HETATM   14  C   UNL     1      44.759 -16.324   6.406  1.00  0.00     0.038 C 
BRANCH  13  15
HETATM   15  C   UNL     1      43.763 -18.422   5.257  1.00  0.00     0.005 A 
HETATM   16  S   UNL     1      44.075 -18.958   3.654  1.00  0.00    -0.104 SA
HETATM   17  C   UNL     1      44.026 -20.601   4.108  1.00  0.00     0.050 A 
HETATM   18  C   UNL     1      43.762 -20.757   5.448  1.00  0.00     0.008 A 
HETATM   19  C   UNL     1      43.612 -19.504   6.109  1.00  0.00     0.017 A 
ENDBRANCH  13  15
ENDBRANCH  10  13
ENDBRANCH   8   9
ENDBRANCH   1   8
BRANCH   5  20
HETATM   20  N   UNL     1      41.831 -11.561   1.611  1.00  0.00    -0.338 N 
HETATM   21  C   UNL     1      41.293 -10.535   0.907  1.00  0.00     0.316 C 
HETATM   22  N   UNL     1      40.893 -10.793  -0.355  1.00  0.00    -0.339 N 
HETATM   23  O   UNL     1      41.126  -9.410   1.362  1.00  0.00    -0.247 OA
HETATM   24  H   UNL     1      40.556  -9.958  -0.822  1.00  0.00     0.164 HD
HETATM   25  H   UNL     1      42.024 -12.402   1.088  1.00  0.00     0.164 HD
BRANCH  22  26
HETATM   26  C   UNL     1      40.903 -12.030  -1.137  1.00  0.00     0.086 C 
HETATM   27  C   UNL     1      39.734 -12.933  -0.715  1.00  0.00     0.025 C 
HETATM   28  C   UNL     1      38.376 -12.413  -1.191  1.00  0.00     0.002 C 
HETATM   29  C   UNL     1      38.370 -12.148  -2.692  1.00  0.00     0.000 C 
HETATM   30  C   UNL     1      39.506 -11.217  -3.107  1.00  0.00     0.002 C 
HETATM   31  C   UNL     1      40.864 -11.742  -2.643  1.00  0.00     0.025 C 
ENDBRANCH  22  26
ENDBRANCH   5  20
TORSDOF 6
ENDMDL
