MODEL 1
REMARK VINA RESULT:      -8.8      0.000      0.000
REMARK  8 active torsions:
REMARK  status: ('A' for Active; 'I' for Inactive)
REMARK    1  A    between atoms: O_2  and  C_3 
REMARK    2  A    between atoms: C_3  and  C_4 
REMARK    3  A    between atoms: C_9  and  N_10 
REMARK       I    between atoms: N_10  and  C_11 
REMARK    4  A    between atoms: C_11  and  C_12 
REMARK    5  A    between atoms: C_12  and  N_13 
REMARK    6  A    between atoms: N_17  and  C_19 
REMARK    7  A    between atoms: C_19  and  C_20 
REMARK    8  A    between atoms: C_23  and  N_24 
ROOT
HETATM    1  C   UNL     1      41.062 -11.284   6.251  1.00  0.00     0.337 C 
ENDROOT
BRANCH   1   2
HETATM    2  C   UNL     1      40.748  -9.797   6.184  1.00  0.00     0.248 C 
HETATM    3  N   UNL     1      41.024  -8.961   7.219  1.00  0.00    -0.323 N 
HETATM    4  H   UNL     1      40.551  -8.054   7.150  1.00  0.00     0.169 HD
HETATM    5  O   UNL     1      40.110  -9.412   5.198  1.00  0.00    -0.271 OA
BRANCH   3   6
HETATM    6  C   UNL     1      41.631  -9.221   8.444  1.00  0.00     0.080 C 
HETATM    7  C   UNL     1      40.865  -9.453   9.580  1.00  0.00     0.136 C 
HETATM    8  N   UNL     1      41.727  -9.800  10.591  1.00  0.00    -0.349 N 
HETATM    9  H   UNL     1      41.435 -10.023  11.537  1.00  0.00     0.166 HD
HETATM   10  C   UNL     1      43.029  -9.744  10.158  1.00  0.00     0.045 A 
HETATM   11  C   UNL     1      43.009  -9.274   8.843  1.00  0.00     0.020 A 
HETATM   12  C   UNL     1      44.209 -10.015  10.861  1.00  0.00     0.030 A 
HETATM   13  C   UNL     1      44.253  -8.930   8.264  1.00  0.00     0.016 A 
HETATM   14  C   UNL     1      45.446  -9.185   8.953  1.00  0.00     0.001 A 
HETATM   15  C   UNL     1      45.421  -9.744  10.225  1.00  0.00     0.002 A 
BRANCH   7  16
HETATM   16  C   UNL     1      39.429  -9.397   9.728  1.00  0.00     0.312 C 
HETATM   17  O   UNL     1      38.647  -9.985   8.995  1.00  0.00    -0.258 OA
BRANCH  16  18
HETATM   18  O   UNL     1      39.102  -8.619  10.793  1.00  0.00    -0.321 OA
HETATM   19  C   UNL     1      38.855  -7.249  10.463  1.00  0.00     0.213 C 
ENDBRANCH  16  18
ENDBRANCH   7  16
ENDBRANCH   3   6
ENDBRANCH   1   2
BRANCH   1  20
HETATM   20  N   UNL     1      40.869 -11.942   4.858  1.00  0.00    -0.060 N 
HETATM   21  H   UNL     1      40.185 -11.294   4.410  1.00  0.00     0.280 HD
HETATM   22  C   UNL     1      40.175 -13.294   4.903  1.00  0.00     0.263 C 
HETATM   23  C   UNL     1      41.125 -14.410   5.407  1.00  0.00     0.263 C 
HETATM   24  N   UNL     1      42.470 -14.420   4.668  1.00  0.00    -0.064 N 
HETATM   25  H   UNL     1      42.303 -14.799   3.723  1.00  0.00     0.280 HD
HETATM   26  C   UNL     1      43.115 -13.039   4.526  1.00  0.00     0.263 C 
HETATM   27  C   UNL     1      42.117 -11.974   4.009  1.00  0.00     0.263 C 
BRANCH  24  28
HETATM   28  C   UNL     1      43.469 -15.393   5.305  1.00  0.00     0.273 C 
BRANCH  28  29
HETATM   29  C   UNL     1      43.544 -16.724   4.610  1.00  0.00    -0.032 A 
HETATM   30  C   UNL     1      43.120 -16.855   3.277  1.00  0.00     0.011 A 
HETATM   31  C   UNL     1      43.194 -18.091   2.625  1.00  0.00     0.037 A 
HETATM   32  C   UNL     1      43.687 -19.209   3.309  1.00  0.00     0.102 A 
HETATM   33  C   UNL     1      44.110 -19.094   4.638  1.00  0.00     0.037 A 
HETATM   34  C   UNL     1      44.042 -17.854   5.282  1.00  0.00     0.011 A 
BRANCH  32  35
HETATM   35  N   UNL     1      43.759 -20.511   2.630  1.00  0.00    -0.116 N 
HETATM   36  O   UNL     1      44.084 -21.491   3.311  1.00  0.00    -0.532 OA
HETATM   37  O   UNL     1      43.510 -20.531   1.418  1.00  0.00    -0.532 OA
ENDBRANCH  32  35
ENDBRANCH  28  29
ENDBRANCH  24  28
ENDBRANCH   1  20
TORSDOF 8
ENDMDL
MODEL 2
REMARK VINA RESULT:      -8.6      3.335      5.133
REMARK  8 active torsions:
REMARK  status: ('A' for Active; 'I' for Inactive)
REMARK    1  A    between atoms: O_2  and  C_3 
REMARK    2  A    between atoms: C_3  and  C_4 
REMARK    3  A    between atoms: C_9  and  N_10 
REMARK       I    between atoms: N_10  and  C_11 
REMARK    4  A    between atoms: C_11  and  C_12 
REMARK    5  A    between atoms: C_12  and  N_13 
REMARK    6  A    between atoms: N_17  and  C_19 
REMARK    7  A    between atoms: C_19  and  C_20 
REMARK    8  A    between atoms: C_23  and  N_24 
ROOT
HETATM    1  C   UNL     1      42.058 -11.073   3.200  1.00  0.00     0.337 C 
ENDROOT
BRANCH   1   2
HETATM    2  C   UNL     1      42.085 -10.207   4.451  1.00  0.00     0.248 C 
HETATM    3  N   UNL     1      42.362 -10.728   5.675  1.00  0.00    -0.323 N 
HETATM    4  H   UNL     1      42.112 -10.107   6.452  1.00  0.00     0.169 HD
HETATM    5  O   UNL     1      41.711  -9.037   4.319  1.00  0.00    -0.271 OA
BRANCH   3   6
HETATM    6  C   UNL     1      42.695 -12.029   6.041  1.00  0.00     0.080 C 
HETATM    7  C   UNL     1      44.015 -12.376   6.301  1.00  0.00     0.136 C 
HETATM    8  N   UNL     1      44.015 -13.674   6.754  1.00  0.00    -0.349 N 
HETATM    9  H   UNL     1      44.851 -14.184   7.019  1.00  0.00     0.166 HD
HETATM   10  C   UNL     1      42.744 -14.191   6.740  1.00  0.00     0.045 A 
HETATM   11  C   UNL     1      41.905 -13.219   6.190  1.00  0.00     0.020 A 
HETATM   12  C   UNL     1      42.301 -15.466   7.114  1.00  0.00     0.030 A 
HETATM   13  C   UNL     1      40.583 -13.612   5.876  1.00  0.00     0.016 A 
HETATM   14  C   UNL     1      40.122 -14.885   6.235  1.00  0.00     0.001 A 
HETATM   15  C   UNL     1      40.967 -15.789   6.869  1.00  0.00     0.002 A 
BRANCH   7  16
HETATM   16  C   UNL     1      45.203 -11.565   6.179  1.00  0.00     0.312 C 
HETATM   17  O   UNL     1      45.609 -11.110   5.119  1.00  0.00    -0.258 OA
BRANCH  16  18
HETATM   18  O   UNL     1      45.770 -11.384   7.401  1.00  0.00    -0.321 OA
HETATM   19  C   UNL     1      45.331 -10.204   8.081  1.00  0.00     0.213 C 
ENDBRANCH  16  18
ENDBRANCH   7  16
ENDBRANCH   3   6
ENDBRANCH   1   2
BRANCH   1  20
HETATM   20  N   UNL     1      40.805 -10.749   2.344  1.00  0.00    -0.060 N 
HETATM   21  H   UNL     1      40.633  -9.749   2.588  1.00  0.00     0.280 HD
HETATM   22  C   UNL     1      39.551 -11.492   2.777  1.00  0.00     0.263 C 
HETATM   23  C   UNL     1      39.586 -12.979   2.341  1.00  0.00     0.263 C 
HETATM   24  N   UNL     1      39.936 -13.153   0.857  1.00  0.00    -0.064 N 
HETATM   25  H   UNL     1      39.110 -12.867   0.307  1.00  0.00     0.280 HD
HETATM   26  C   UNL     1      41.132 -12.316   0.396  1.00  0.00     0.263 C 
HETATM   27  C   UNL     1      41.031 -10.841   0.854  1.00  0.00     0.263 C 
BRANCH  24  28
HETATM   28  C   UNL     1      40.160 -14.623   0.487  1.00  0.00     0.273 C 
BRANCH  28  29
HETATM   29  C   UNL     1      41.091 -15.346   1.422  1.00  0.00    -0.032 A 
HETATM   30  C   UNL     1      40.586 -16.026   2.543  1.00  0.00     0.011 A 
HETATM   31  C   UNL     1      41.449 -16.705   3.411  1.00  0.00     0.037 A 
HETATM   32  C   UNL     1      42.828 -16.699   3.166  1.00  0.00     0.102 A 
HETATM   33  C   UNL     1      43.345 -16.022   2.055  1.00  0.00     0.037 A 
HETATM   34  C   UNL     1      42.477 -15.353   1.186  1.00  0.00     0.011 A 
BRANCH  32  35
HETATM   35  N   UNL     1      43.738 -17.403   4.080  1.00  0.00    -0.116 N 
HETATM   36  O   UNL     1      43.809 -18.634   3.976  1.00  0.00    -0.532 OA
HETATM   37  O   UNL     1      44.354 -16.717   4.906  1.00  0.00    -0.532 OA
ENDBRANCH  32  35
ENDBRANCH  28  29
ENDBRANCH  24  28
ENDBRANCH   1  20
TORSDOF 8
ENDMDL
MODEL 3
REMARK VINA RESULT:      -8.6      4.710      7.873
REMARK  8 active torsions:
REMARK  status: ('A' for Active; 'I' for Inactive)
REMARK    1  A    between atoms: O_2  and  C_3 
REMARK    2  A    between atoms: C_3  and  C_4 
REMARK    3  A    between atoms: C_9  and  N_10 
REMARK       I    between atoms: N_10  and  C_11 
REMARK    4  A    between atoms: C_11  and  C_12 
REMARK    5  A    between atoms: C_12  and  N_13 
REMARK    6  A    between atoms: N_17  and  C_19 
REMARK    7  A    between atoms: C_19  and  C_20 
REMARK    8  A    between atoms: C_23  and  N_24 
ROOT
HETATM    1  C   UNL     1      40.170 -11.076   2.655  1.00  0.00     0.337 C 
ENDROOT
BRANCH   1   2
HETATM    2  C   UNL     1      39.066 -10.241   2.022  1.00  0.00     0.248 C 
HETATM    3  N   UNL     1      38.925 -10.148   0.673  1.00  0.00    -0.323 N 
HETATM    4  H   UNL     1      38.315  -9.379   0.377  1.00  0.00     0.169 HD
HETATM    5  O   UNL     1      38.390  -9.547   2.789  1.00  0.00    -0.271 OA
BRANCH   3   6
HETATM    6  C   UNL     1      39.648 -10.759  -0.348  1.00  0.00     0.080 C 
HETATM    7  C   UNL     1      40.826 -10.192  -0.818  1.00  0.00     0.136 C 
HETATM    8  N   UNL     1      41.370 -11.072  -1.722  1.00  0.00    -0.349 N 
HETATM    9  H   UNL     1      42.237 -10.909  -2.223  1.00  0.00     0.166 HD
HETATM   10  C   UNL     1      40.552 -12.161  -1.890  1.00  0.00     0.045 A 
HETATM   11  C   UNL     1      39.405 -11.941  -1.125  1.00  0.00     0.020 A 
HETATM   12  C   UNL     1      40.725 -13.281  -2.713  1.00  0.00     0.030 A 
HETATM   13  C   UNL     1      38.324 -12.834  -1.313  1.00  0.00     0.016 A 
HETATM   14  C   UNL     1      38.473 -13.957  -2.137  1.00  0.00     0.001 A 
HETATM   15  C   UNL     1      39.669 -14.187  -2.807  1.00  0.00     0.002 A 
BRANCH   7  16
HETATM   16  C   UNL     1      41.439  -8.940  -0.442  1.00  0.00     0.312 C 
HETATM   17  O   UNL     1      40.838  -8.026   0.106  1.00  0.00    -0.258 OA
BRANCH  16  18
HETATM   18  O   UNL     1      42.757  -8.949  -0.773  1.00  0.00    -0.321 OA
HETATM   19  C   UNL     1      43.169  -7.833  -1.567  1.00  0.00     0.213 C 
ENDBRANCH  16  18
ENDBRANCH   7  16
ENDBRANCH   3   6
ENDBRANCH   1   2
BRANCH   1  20
HETATM   20  N   UNL     1      39.584 -12.382   3.255  1.00  0.00    -0.060 N 
HETATM   21  H   UNL     1      38.617 -12.083   3.512  1.00  0.00     0.280 HD
HETATM   22  C   UNL     1      40.235 -12.810   4.560  1.00  0.00     0.263 C 
HETATM   23  C   UNL     1      41.636 -13.430   4.326  1.00  0.00     0.263 C 
HETATM   24  N   UNL     1      41.629 -14.517   3.244  1.00  0.00    -0.064 N 
HETATM   25  H   UNL     1      41.175 -15.353   3.644  1.00  0.00     0.280 HD
HETATM   26  C   UNL     1      40.875 -14.125   1.970  1.00  0.00     0.263 C 
HETATM   27  C   UNL     1      39.481 -13.524   2.272  1.00  0.00     0.263 C 
BRANCH  24  28
HETATM   28  C   UNL     1      43.046 -14.980   2.884  1.00  0.00     0.273 C 
BRANCH  28  29
HETATM   29  C   UNL     1      43.310 -16.425   3.207  1.00  0.00    -0.032 A 
HETATM   30  C   UNL     1      43.164 -17.413   2.219  1.00  0.00     0.011 A 
HETATM   31  C   UNL     1      43.415 -18.757   2.515  1.00  0.00     0.037 A 
HETATM   32  C   UNL     1      43.808 -19.122   3.809  1.00  0.00     0.102 A 
HETATM   33  C   UNL     1      43.954 -18.149   4.803  1.00  0.00     0.037 A 
HETATM   34  C   UNL     1      43.711 -16.806   4.500  1.00  0.00     0.011 A 
BRANCH  32  35
HETATM   35  N   UNL     1      44.065 -20.534   4.125  1.00  0.00    -0.116 N 
HETATM   36  O   UNL     1      44.406 -20.806   5.282  1.00  0.00    -0.532 OA
HETATM   37  O   UNL     1      43.942 -21.352   3.204  1.00  0.00    -0.532 OA
ENDBRANCH  32  35
ENDBRANCH  28  29
ENDBRANCH  24  28
ENDBRANCH   1  20
TORSDOF 8
ENDMDL
MODEL 4
REMARK VINA RESULT:      -8.2      2.111      3.502
REMARK  8 active torsions:
REMARK  status: ('A' for Active; 'I' for Inactive)
REMARK    1  A    between atoms: O_2  and  C_3 
REMARK    2  A    between atoms: C_3  and  C_4 
REMARK    3  A    between atoms: C_9  and  N_10 
REMARK       I    between atoms: N_10  and  C_11 
REMARK    4  A    between atoms: C_11  and  C_12 
REMARK    5  A    between atoms: C_12  and  N_13 
REMARK    6  A    between atoms: N_17  and  C_19 
REMARK    7  A    between atoms: C_19  and  C_20 
REMARK    8  A    between atoms: C_23  and  N_24 
ROOT
HETATM    1  C   UNL     1      41.880 -11.080   6.649  1.00  0.00     0.337 C 
ENDROOT
BRANCH   1   2
HETATM    2  C   UNL     1      41.916  -9.569   6.471  1.00  0.00     0.248 C 
HETATM    3  N   UNL     1      42.220  -8.736   7.500  1.00  0.00    -0.323 N 
HETATM    4  H   UNL     1      41.974  -7.756   7.321  1.00  0.00     0.169 HD
HETATM    5  O   UNL     1      41.525  -9.133   5.383  1.00  0.00    -0.271 OA
BRANCH   3   6
HETATM    6  C   UNL     1      42.575  -9.026   8.814  1.00  0.00     0.080 C 
HETATM    7  C   UNL     1      43.911  -9.142   9.178  1.00  0.00     0.136 C 
HETATM    8  N   UNL     1      43.951  -9.305  10.542  1.00  0.00    -0.349 N 
HETATM    9  H   UNL     1      44.806  -9.415  11.077  1.00  0.00     0.166 HD
HETATM   10  C   UNL     1      42.681  -9.354  11.061  1.00  0.00     0.045 A 
HETATM   11  C   UNL     1      41.791  -9.295   9.986  1.00  0.00     0.020 A 
HETATM   12  C   UNL     1      42.273  -9.510  12.391  1.00  0.00     0.030 A 
HETATM   13  C   UNL     1      40.427  -9.549  10.265  1.00  0.00     0.016 A 
HETATM   14  C   UNL     1      39.998  -9.715  11.588  1.00  0.00     0.001 A 
HETATM   15  C   UNL     1      40.909  -9.671  12.637  1.00  0.00     0.002 A 
BRANCH   7  16
HETATM   16  C   UNL     1      45.085  -9.074   8.340  1.00  0.00     0.312 C 
HETATM   17  O   UNL     1      45.824  -8.101   8.284  1.00  0.00    -0.258 OA
BRANCH  16  18
HETATM   18  O   UNL     1      45.236 -10.238   7.656  1.00  0.00    -0.321 OA
HETATM   19  C   UNL     1      46.599 -10.610   7.428  1.00  0.00     0.213 C 
ENDBRANCH  16  18
ENDBRANCH   7  16
ENDBRANCH   3   6
ENDBRANCH   1   2
BRANCH   1  20
HETATM   20  N   UNL     1      43.262 -11.699   6.308  1.00  0.00    -0.060 N 
HETATM   21  H   UNL     1      43.910 -11.079   6.842  1.00  0.00     0.280 HD
HETATM   22  C   UNL     1      43.666 -11.545   4.850  1.00  0.00     0.263 C 
HETATM   23  C   UNL     1      42.891 -12.526   3.934  1.00  0.00     0.263 C 
HETATM   24  N   UNL     1      42.932 -13.971   4.445  1.00  0.00    -0.064 N 
HETATM   25  H   UNL     1      43.880 -14.338   4.268  1.00  0.00     0.280 HD
HETATM   26  C   UNL     1      42.634 -14.113   5.941  1.00  0.00     0.263 C 
HETATM   27  C   UNL     1      43.447 -13.114   6.800  1.00  0.00     0.263 C 
BRANCH  24  28
HETATM   28  C   UNL     1      42.004 -14.891   3.645  1.00  0.00     0.273 C 
BRANCH  28  29
HETATM   29  C   UNL     1      42.515 -16.300   3.513  1.00  0.00    -0.032 A 
HETATM   30  C   UNL     1      42.332 -17.013   2.316  1.00  0.00     0.011 A 
HETATM   31  C   UNL     1      42.812 -18.321   2.188  1.00  0.00     0.037 A 
HETATM   32  C   UNL     1      43.471 -18.928   3.264  1.00  0.00     0.102 A 
HETATM   33  C   UNL     1      43.657 -18.231   4.463  1.00  0.00     0.037 A 
HETATM   34  C   UNL     1      43.183 -16.920   4.582  1.00  0.00     0.011 A 
BRANCH  32  35
HETATM   35  N   UNL     1      43.969 -20.305   3.136  1.00  0.00    -0.116 N 
HETATM   36  O   UNL     1      44.025 -20.787   1.998  1.00  0.00    -0.532 OA
HETATM   37  O   UNL     1      44.277 -20.896   4.179  1.00  0.00    -0.532 OA
ENDBRANCH  32  35
ENDBRANCH  28  29
ENDBRANCH  24  28
ENDBRANCH   1  20
TORSDOF 8
ENDMDL
MODEL 5
REMARK VINA RESULT:      -8.1      1.469      1.875
REMARK  8 active torsions:
REMARK  status: ('A' for Active; 'I' for Inactive)
REMARK    1  A    between atoms: O_2  and  C_3 
REMARK    2  A    between atoms: C_3  and  C_4 
REMARK    3  A    between atoms: C_9  and  N_10 
REMARK       I    between atoms: N_10  and  C_11 
REMARK    4  A    between atoms: C_11  and  C_12 
REMARK    5  A    between atoms: C_12  and  N_13 
REMARK    6  A    between atoms: N_17  and  C_19 
REMARK    7  A    between atoms: C_19  and  C_20 
REMARK    8  A    between atoms: C_23  and  N_24 
ROOT
HETATM    1  C   UNL     1      39.584 -10.546   7.221  1.00  0.00     0.337 C 
ENDROOT
BRANCH   1   2
HETATM    2  C   UNL     1      39.606  -9.033   7.381  1.00  0.00     0.248 C 
HETATM    3  N   UNL     1      40.424  -8.421   8.277  1.00  0.00    -0.323 N 
HETATM    4  H   UNL     1      40.174  -7.444   8.459  1.00  0.00     0.169 HD
HETATM    5  O   UNL     1      38.750  -8.400   6.754  1.00  0.00    -0.271 OA
BRANCH   3   6
HETATM    6  C   UNL     1      41.369  -8.963   9.143  1.00  0.00     0.080 C 
HETATM    7  C   UNL     1      40.990  -9.455  10.386  1.00  0.00     0.136 C 
HETATM    8  N   UNL     1      42.102 -10.030  10.953  1.00  0.00    -0.349 N 
HETATM    9  H   UNL     1      42.111 -10.470  11.868  1.00  0.00     0.166 HD
HETATM   10  C   UNL     1      43.197  -9.874  10.140  1.00  0.00     0.045 A 
HETATM   11  C   UNL     1      42.794  -9.107   9.045  1.00  0.00     0.020 A 
HETATM   12  C   UNL     1      44.515 -10.302  10.337  1.00  0.00     0.030 A 
HETATM   13  C   UNL     1      43.810  -8.636   8.181  1.00  0.00     0.016 A 
HETATM   14  C   UNL     1      45.137  -9.046   8.364  1.00  0.00     0.001 A 
HETATM   15  C   UNL     1      45.477  -9.889   9.415  1.00  0.00     0.002 A 
BRANCH   7  16
HETATM   16  C   UNL     1      39.687  -9.436  11.007  1.00  0.00     0.312 C 
HETATM   17  O   UNL     1      38.915  -8.489  10.937  1.00  0.00    -0.258 OA
BRANCH  16  18
HETATM   18  O   UNL     1      39.459 -10.612  11.647  1.00  0.00    -0.321 OA
HETATM   19  C   UNL     1      39.521 -10.524  13.073  1.00  0.00     0.213 C 
ENDBRANCH  16  18
ENDBRANCH   7  16
ENDBRANCH   3   6
ENDBRANCH   1   2
BRANCH   1  20
HETATM   20  N   UNL     1      40.086 -10.949   5.809  1.00  0.00    -0.060 N 
HETATM   21  H   UNL     1      39.594 -10.256   5.203  1.00  0.00     0.280 HD
HETATM   22  C   UNL     1      39.596 -12.311   5.343  1.00  0.00     0.263 C 
HETATM   23  C   UNL     1      40.355 -13.465   6.048  1.00  0.00     0.263 C 
HETATM   24  N   UNL     1      41.878 -13.293   5.992  1.00  0.00    -0.064 N 
HETATM   25  H   UNL     1      42.179 -13.501   5.027  1.00  0.00     0.280 HD
HETATM   26  C   UNL     1      42.362 -11.886   6.353  1.00  0.00     0.263 C 
HETATM   27  C   UNL     1      41.573 -10.783   5.608  1.00  0.00     0.263 C 
BRANCH  24  28
HETATM   28  C   UNL     1      42.606 -14.328   6.857  1.00  0.00     0.273 C 
BRANCH  28  29
HETATM   29  C   UNL     1      42.991 -15.576   6.112  1.00  0.00    -0.032 A 
HETATM   30  C   UNL     1      43.129 -15.556   4.714  1.00  0.00     0.011 A 
HETATM   31  C   UNL     1      43.493 -16.713   4.018  1.00  0.00     0.037 A 
HETATM   32  C   UNL     1      43.715 -17.905   4.720  1.00  0.00     0.102 A 
HETATM   33  C   UNL     1      43.578 -17.941   6.112  1.00  0.00     0.037 A 
HETATM   34  C   UNL     1      43.222 -16.778   6.803  1.00  0.00     0.011 A 
BRANCH  32  35
HETATM   35  N   UNL     1      44.090 -19.125   3.991  1.00  0.00    -0.116 N 
HETATM   36  O   UNL     1      44.060 -19.083   2.755  1.00  0.00    -0.532 OA
HETATM   37  O   UNL     1      44.390 -20.119   4.666  1.00  0.00    -0.532 OA
ENDBRANCH  32  35
ENDBRANCH  28  29
ENDBRANCH  24  28
ENDBRANCH   1  20
TORSDOF 8
ENDMDL
MODEL 6
REMARK VINA RESULT:      -7.9      2.568      3.573
REMARK  8 active torsions:
REMARK  status: ('A' for Active; 'I' for Inactive)
REMARK    1  A    between atoms: O_2  and  C_3 
REMARK    2  A    between atoms: C_3  and  C_4 
REMARK    3  A    between atoms: C_9  and  N_10 
REMARK       I    between atoms: N_10  and  C_11 
REMARK    4  A    between atoms: C_11  and  C_12 
REMARK    5  A    between atoms: C_12  and  N_13 
REMARK    6  A    between atoms: N_17  and  C_19 
REMARK    7  A    between atoms: C_19  and  C_20 
REMARK    8  A    between atoms: C_23  and  N_24 
ROOT
HETATM    1  C   UNL     1      44.154 -10.109   8.273  1.00  0.00     0.337 C 
ENDROOT
BRANCH   1   2
HETATM    2  C   UNL     1      44.749  -8.749   8.606  1.00  0.00     0.248 C 
HETATM    3  N   UNL     1      44.077  -7.841   9.361  1.00  0.00    -0.323 N 
HETATM    4  H   UNL     1      44.469  -6.894   9.309  1.00  0.00     0.169 HD
HETATM    5  O   UNL     1      45.813  -8.461   8.047  1.00  0.00    -0.271 OA
BRANCH   3   6
HETATM    6  C   UNL     1      42.835  -7.934   9.982  1.00  0.00     0.080 C 
HETATM    7  C   UNL     1      41.674  -7.601   9.295  1.00  0.00     0.136 C 
HETATM    8  N   UNL     1      40.613  -7.910  10.112  1.00  0.00    -0.349 N 
HETATM    9  H   UNL     1      39.640  -7.768   9.861  1.00  0.00     0.166 HD
HETATM   10  C   UNL     1      41.056  -8.379  11.324  1.00  0.00     0.045 A 
HETATM   11  C   UNL     1      42.450  -8.300  11.315  1.00  0.00     0.020 A 
HETATM   12  C   UNL     1      40.316  -8.800  12.435  1.00  0.00     0.030 A 
HETATM   13  C   UNL     1      43.116  -8.527  12.543  1.00  0.00     0.016 A 
HETATM   14  C   UNL     1      42.394  -8.942  13.669  1.00  0.00     0.001 A 
HETATM   15  C   UNL     1      41.014  -9.100  13.605  1.00  0.00     0.002 A 
BRANCH   7  16
HETATM   16  C   UNL     1      41.534  -7.066   7.961  1.00  0.00     0.312 C 
HETATM   17  O   UNL     1      42.467  -6.621   7.307  1.00  0.00    -0.258 OA
BRANCH  16  18
HETATM   18  O   UNL     1      40.239  -7.151   7.559  1.00  0.00    -0.321 OA
HETATM   19  C   UNL     1      40.003  -8.135   6.548  1.00  0.00     0.213 C 
ENDBRANCH  16  18
ENDBRANCH   7  16
ENDBRANCH   3   6
ENDBRANCH   1   2
BRANCH   1  20
HETATM   20  N   UNL     1      44.289 -10.401   6.754  1.00  0.00    -0.060 N 
HETATM   21  H   UNL     1      44.800  -9.555   6.420  1.00  0.00     0.280 HD
HETATM   22  C   UNL     1      42.967 -10.398   6.003  1.00  0.00     0.263 C 
HETATM   23  C   UNL     1      42.148 -11.685   6.278  1.00  0.00     0.263 C 
HETATM   24  N   UNL     1      42.973 -12.964   6.087  1.00  0.00    -0.064 N 
HETATM   25  H   UNL     1      43.106 -13.100   5.073  1.00  0.00     0.280 HD
HETATM   26  C   UNL     1      44.352 -12.922   6.751  1.00  0.00     0.263 C 
HETATM   27  C   UNL     1      45.122 -11.618   6.428  1.00  0.00     0.263 C 
BRANCH  24  28
HETATM   28  C   UNL     1      42.214 -14.212   6.550  1.00  0.00     0.273 C 
BRANCH  28  29
HETATM   29  C   UNL     1      42.722 -15.490   5.939  1.00  0.00    -0.032 A 
HETATM   30  C   UNL     1      42.899 -15.591   4.549  1.00  0.00     0.011 A 
HETATM   31  C   UNL     1      43.377 -16.776   3.978  1.00  0.00     0.037 A 
HETATM   32  C   UNL     1      43.671 -17.873   4.797  1.00  0.00     0.102 A 
HETATM   33  C   UNL     1      43.495 -17.787   6.183  1.00  0.00     0.037 A 
HETATM   34  C   UNL     1      43.027 -16.597   6.749  1.00  0.00     0.011 A 
BRANCH  32  35
HETATM   35  N   UNL     1      44.165 -19.122   4.200  1.00  0.00    -0.116 N 
HETATM   36  O   UNL     1      44.308 -19.148   2.972  1.00  0.00    -0.532 OA
HETATM   37  O   UNL     1      44.383 -20.069   4.966  1.00  0.00    -0.532 OA
ENDBRANCH  32  35
ENDBRANCH  28  29
ENDBRANCH  24  28
ENDBRANCH   1  20
TORSDOF 8
ENDMDL
MODEL 7
REMARK VINA RESULT:      -7.9      2.906      9.856
REMARK  8 active torsions:
REMARK  status: ('A' for Active; 'I' for Inactive)
REMARK    1  A    between atoms: O_2  and  C_3 
REMARK    2  A    between atoms: C_3  and  C_4 
REMARK    3  A    between atoms: C_9  and  N_10 
REMARK       I    between atoms: N_10  and  C_11 
REMARK    4  A    between atoms: C_11  and  C_12 
REMARK    5  A    between atoms: C_12  and  N_13 
REMARK    6  A    between atoms: N_17  and  C_19 
REMARK    7  A    between atoms: C_19  and  C_20 
REMARK    8  A    between atoms: C_23  and  N_24 
ROOT
HETATM    1  C   UNL     1      42.111 -13.429   6.046  1.00  0.00     0.337 C 
ENDROOT
BRANCH   1   2
HETATM    2  C   UNL     1      40.682 -13.907   5.831  1.00  0.00     0.248 C 
HETATM    3  N   UNL     1      40.390 -14.925   4.980  1.00  0.00    -0.323 N 
HETATM    4  H   UNL     1      39.394 -14.986   4.742  1.00  0.00     0.169 HD
HETATM    5  O   UNL     1      39.792 -13.237   6.366  1.00  0.00    -0.271 OA
BRANCH   3   6
HETATM    6  C   UNL     1      41.233 -15.721   4.211  1.00  0.00     0.080 C 
HETATM    7  C   UNL     1      41.186 -15.669   2.824  1.00  0.00     0.136 C 
HETATM    8  N   UNL     1      42.205 -16.459   2.350  1.00  0.00    -0.349 N 
HETATM    9  H   UNL     1      42.402 -16.604   1.365  1.00  0.00     0.166 HD
HETATM   10  C   UNL     1      42.871 -17.063   3.387  1.00  0.00     0.045 A 
HETATM   11  C   UNL     1      42.213 -16.708   4.566  1.00  0.00     0.020 A 
HETATM   12  C   UNL     1      43.961 -17.941   3.348  1.00  0.00     0.030 A 
HETATM   13  C   UNL     1      42.594 -17.389   5.747  1.00  0.00     0.016 A 
HETATM   14  C   UNL     1      43.677 -18.277   5.729  1.00  0.00     0.001 A 
HETATM   15  C   UNL     1      44.366 -18.528   4.547  1.00  0.00     0.002 A 
BRANCH   7  16
HETATM   16  C   UNL     1      40.288 -14.917   1.977  1.00  0.00     0.312 C 
HETATM   17  O   UNL     1      39.423 -14.165   2.404  1.00  0.00    -0.258 OA
BRANCH  16  18
HETATM   18  O   UNL     1      40.566 -15.164   0.671  1.00  0.00    -0.321 OA
HETATM   19  C   UNL     1      39.827 -14.354  -0.248  1.00  0.00     0.213 C 
ENDBRANCH  16  18
ENDBRANCH   7  16
ENDBRANCH   3   6
ENDBRANCH   1   2
BRANCH   1  20
HETATM   20  N   UNL     1      42.341 -12.070   5.333  1.00  0.00    -0.060 N 
HETATM   21  H   UNL     1      41.754 -12.177   4.477  1.00  0.00     0.280 HD
HETATM   22  C   UNL     1      43.760 -11.869   4.826  1.00  0.00     0.263 C 
HETATM   23  C   UNL     1      44.740 -11.540   5.981  1.00  0.00     0.263 C 
HETATM   24  N   UNL     1      44.232 -10.409   6.885  1.00  0.00    -0.064 N 
HETATM   25  H   UNL     1      44.333  -9.524   6.363  1.00  0.00     0.280 HD
HETATM   26  C   UNL     1      42.766 -10.555   7.303  1.00  0.00     0.263 C 
HETATM   27  C   UNL     1      41.840 -10.872   6.104  1.00  0.00     0.263 C 
BRANCH  24  28
HETATM   28  C   UNL     1      45.108 -10.229   8.129  1.00  0.00     0.273 C 
BRANCH  28  29
HETATM   29  C   UNL     1      44.450  -9.432   9.222  1.00  0.00    -0.032 A 
HETATM   30  C   UNL     1      44.288  -9.983  10.504  1.00  0.00     0.011 A 
HETATM   31  C   UNL     1      43.681  -9.242  11.524  1.00  0.00     0.037 A 
HETATM   32  C   UNL     1      43.225  -7.943  11.264  1.00  0.00     0.102 A 
HETATM   33  C   UNL     1      43.378  -7.384   9.991  1.00  0.00     0.037 A 
HETATM   34  C   UNL     1      43.993  -8.125   8.977  1.00  0.00     0.011 A 
BRANCH  32  35
HETATM   35  N   UNL     1      42.581  -7.166  12.331  1.00  0.00    -0.116 N 
HETATM   36  O   UNL     1      42.033  -6.104  12.012  1.00  0.00    -0.532 OA
HETATM   37  O   UNL     1      42.649  -7.618  13.482  1.00  0.00    -0.532 OA
ENDBRANCH  32  35
ENDBRANCH  28  29
ENDBRANCH  24  28
ENDBRANCH   1  20
TORSDOF 8
ENDMDL
MODEL 8
REMARK VINA RESULT:      -7.8      3.077      6.034
REMARK  8 active torsions:
REMARK  status: ('A' for Active; 'I' for Inactive)
REMARK    1  A    between atoms: O_2  and  C_3 
REMARK    2  A    between atoms: C_3  and  C_4 
REMARK    3  A    between atoms: C_9  and  N_10 
REMARK       I    between atoms: N_10  and  C_11 
REMARK    4  A    between atoms: C_11  and  C_12 
REMARK    5  A    between atoms: C_12  and  N_13 
REMARK    6  A    between atoms: N_17  and  C_19 
REMARK    7  A    between atoms: C_19  and  C_20 
REMARK    8  A    between atoms: C_23  and  N_24 
ROOT
HETATM    1  C   UNL     1      40.800 -10.949   5.483  1.00  0.00     0.337 C 
ENDROOT
BRANCH   1   2
HETATM    2  C   UNL     1      39.299 -11.165   5.355  1.00  0.00     0.248 C 
HETATM    3  N   UNL     1      38.715 -11.433   4.158  1.00  0.00    -0.323 N 
HETATM    4  H   UNL     1      37.696 -11.315   4.163  1.00  0.00     0.169 HD
HETATM    5  O   UNL     1      38.623 -10.953   6.368  1.00  0.00    -0.271 OA
BRANCH   3   6
HETATM    6  C   UNL     1      39.286 -11.600   2.899  1.00  0.00     0.080 C 
HETATM    7  C   UNL     1      39.593 -10.498   2.110  1.00  0.00     0.136 C 
HETATM    8  N   UNL     1      40.250 -10.964   0.997  1.00  0.00    -0.349 N 
HETATM    9  H   UNL     1      40.591 -10.371   0.247  1.00  0.00     0.166 HD
HETATM   10  C   UNL     1      40.326 -12.334   1.018  1.00  0.00     0.045 A 
HETATM   11  C   UNL     1      39.630 -12.772   2.146  1.00  0.00     0.020 A 
HETATM   12  C   UNL     1      40.905 -13.204   0.085  1.00  0.00     0.030 A 
HETATM   13  C   UNL     1      39.390 -14.162   2.256  1.00  0.00     0.016 A 
HETATM   14  C   UNL     1      39.953 -15.049   1.330  1.00  0.00     0.001 A 
HETATM   15  C   UNL     1      40.722 -14.574   0.273  1.00  0.00     0.002 A 
BRANCH   7  16
HETATM   16  C   UNL     1      39.335  -9.101   2.368  1.00  0.00     0.312 C 
HETATM   17  O   UNL     1      40.199  -8.236   2.346  1.00  0.00    -0.258 OA
BRANCH  16  18
HETATM   18  O   UNL     1      38.013  -8.911   2.617  1.00  0.00    -0.321 OA
HETATM   19  C   UNL     1      37.226  -8.669   1.447  1.00  0.00     0.213 C 
ENDBRANCH  16  18
ENDBRANCH   7  16
ENDBRANCH   3   6
ENDBRANCH   1   2
BRANCH   1  20
HETATM   20  N   UNL     1      41.426 -12.032   6.401  1.00  0.00    -0.060 N 
HETATM   21  H   UNL     1      41.222 -11.650   7.351  1.00  0.00     0.280 HD
HETATM   22  C   UNL     1      42.942 -12.114   6.316  1.00  0.00     0.263 C 
HETATM   23  C   UNL     1      43.407 -12.811   5.012  1.00  0.00     0.263 C 
HETATM   24  N   UNL     1      42.693 -14.147   4.768  1.00  0.00    -0.064 N 
HETATM   25  H   UNL     1      43.080 -14.833   5.435  1.00  0.00     0.280 HD
HETATM   26  C   UNL     1      41.176 -14.088   4.964  1.00  0.00     0.263 C 
HETATM   27  C   UNL     1      40.779 -13.392   6.288  1.00  0.00     0.263 C 
BRANCH  24  28
HETATM   28  C   UNL     1      43.014 -14.725   3.386  1.00  0.00     0.273 C 
BRANCH  28  29
HETATM   29  C   UNL     1      43.238 -16.213   3.390  1.00  0.00    -0.032 A 
HETATM   30  C   UNL     1      43.017 -16.969   2.226  1.00  0.00     0.011 A 
HETATM   31  C   UNL     1      43.230 -18.352   2.226  1.00  0.00     0.037 A 
HETATM   32  C   UNL     1      43.659 -18.989   3.397  1.00  0.00     0.102 A 
HETATM   33  C   UNL     1      43.880 -18.249   4.563  1.00  0.00     0.037 A 
HETATM   34  C   UNL     1      43.674 -16.866   4.556  1.00  0.00     0.011 A 
BRANCH  32  35
HETATM   35  N   UNL     1      43.876 -20.443   3.401  1.00  0.00    -0.116 N 
HETATM   36  O   UNL     1      43.859 -21.025   2.310  1.00  0.00    -0.532 OA
HETATM   37  O   UNL     1      44.041 -20.987   4.501  1.00  0.00    -0.532 OA
ENDBRANCH  32  35
ENDBRANCH  28  29
ENDBRANCH  24  28
ENDBRANCH   1  20
TORSDOF 8
ENDMDL
MODEL 9
REMARK VINA RESULT:      -7.3      2.540      3.863
REMARK  8 active torsions:
REMARK  status: ('A' for Active; 'I' for Inactive)
REMARK    1  A    between atoms: O_2  and  C_3 
REMARK    2  A    between atoms: C_3  and  C_4 
REMARK    3  A    between atoms: C_9  and  N_10 
REMARK       I    between atoms: N_10  and  C_11 
REMARK    4  A    between atoms: C_11  and  C_12 
REMARK    5  A    between atoms: C_12  and  N_13 
REMARK    6  A    between atoms: N_17  and  C_19 
REMARK    7  A    between atoms: C_19  and  C_20 
REMARK    8  A    between atoms: C_23  and  N_24 
ROOT
HETATM    1  C   UNL     1      44.017 -10.462   8.478  1.00  0.00     0.337 C 
ENDROOT
BRANCH   1   2
HETATM    2  C   UNL     1      44.613  -9.145   8.955  1.00  0.00     0.248 C 
HETATM    3  N   UNL     1      43.850  -8.188   9.544  1.00  0.00    -0.323 N 
HETATM    4  H   UNL     1      44.308  -7.272   9.594  1.00  0.00     0.169 HD
HETATM    5  O   UNL     1      45.794  -8.936   8.659  1.00  0.00    -0.271 OA
BRANCH   3   6
HETATM    6  C   UNL     1      42.494  -8.191   9.861  1.00  0.00     0.080 C 
HETATM    7  C   UNL     1      42.055  -8.671  11.088  1.00  0.00     0.136 C 
HETATM    8  N   UNL     1      40.703  -8.433  11.160  1.00  0.00    -0.349 N 
HETATM    9  H   UNL     1      40.122  -8.684  11.953  1.00  0.00     0.166 HD
HETATM   10  C   UNL     1      40.249  -7.865   9.996  1.00  0.00     0.045 A 
HETATM   11  C   UNL     1      41.331  -7.803   9.115  1.00  0.00     0.020 A 
HETATM   12  C   UNL     1      38.952  -7.467   9.650  1.00  0.00     0.030 A 
HETATM   13  C   UNL     1      41.050  -7.452   7.773  1.00  0.00     0.016 A 
HETATM   14  C   UNL     1      39.757  -7.059   7.404  1.00  0.00     0.001 A 
HETATM   15  C   UNL     1      38.729  -7.044   8.340  1.00  0.00     0.002 A 
BRANCH   7  16
HETATM   16  C   UNL     1      42.823  -9.281  12.148  1.00  0.00     0.312 C 
HETATM   17  O   UNL     1      43.335 -10.388  12.065  1.00  0.00    -0.258 OA
BRANCH  16  18
HETATM   18  O   UNL     1      42.894  -8.440  13.213  1.00  0.00    -0.321 OA
HETATM   19  C   UNL     1      42.097  -8.842  14.331  1.00  0.00     0.213 C 
ENDBRANCH  16  18
ENDBRANCH   7  16
ENDBRANCH   3   6
ENDBRANCH   1   2
BRANCH   1  20
HETATM   20  N   UNL     1      44.212 -10.621   6.946  1.00  0.00    -0.060 N 
HETATM   21  H   UNL     1      44.776  -9.774   6.715  1.00  0.00     0.280 HD
HETATM   22  C   UNL     1      42.928 -10.482   6.142  1.00  0.00     0.263 C 
HETATM   23  C   UNL     1      42.039 -11.746   6.259  1.00  0.00     0.263 C 
HETATM   24  N   UNL     1      42.813 -13.042   5.985  1.00  0.00    -0.064 N 
HETATM   25  H   UNL     1      42.988 -13.091   4.969  1.00  0.00     0.280 HD
HETATM   26  C   UNL     1      44.160 -13.130   6.709  1.00  0.00     0.263 C 
HETATM   27  C   UNL     1      45.002 -11.843   6.544  1.00  0.00     0.263 C 
BRANCH  24  28
HETATM   28  C   UNL     1      41.977 -14.288   6.296  1.00  0.00     0.273 C 
BRANCH  28  29
HETATM   29  C   UNL     1      42.548 -15.558   5.727  1.00  0.00    -0.032 A 
HETATM   30  C   UNL     1      42.826 -16.651   6.564  1.00  0.00     0.011 A 
HETATM   31  C   UNL     1      43.352 -17.835   6.036  1.00  0.00     0.037 A 
HETATM   32  C   UNL     1      43.612 -17.929   4.663  1.00  0.00     0.102 A 
HETATM   33  C   UNL     1      43.343 -16.847   3.818  1.00  0.00     0.037 A 
HETATM   34  C   UNL     1      42.809 -15.669   4.350  1.00  0.00     0.011 A 
BRANCH  32  35
HETATM   35  N   UNL     1      44.172 -19.169   4.107  1.00  0.00    -0.116 N 
HETATM   36  O   UNL     1      44.493 -20.058   4.905  1.00  0.00    -0.532 OA
HETATM   37  O   UNL     1      44.303 -19.230   2.877  1.00  0.00    -0.532 OA
ENDBRANCH  32  35
ENDBRANCH  28  29
ENDBRANCH  24  28
ENDBRANCH   1  20
TORSDOF 8
ENDMDL
MODEL 10
REMARK VINA RESULT:      -7.3      3.562      5.597
REMARK  8 active torsions:
REMARK  status: ('A' for Active; 'I' for Inactive)
REMARK    1  A    between atoms: O_2  and  C_3 
REMARK    2  A    between atoms: C_3  and  C_4 
REMARK    3  A    between atoms: C_9  and  N_10 
REMARK       I    between atoms: N_10  and  C_11 
REMARK    4  A    between atoms: C_11  and  C_12 
REMARK    5  A    between atoms: C_12  and  N_13 
REMARK    6  A    between atoms: N_17  and  C_19 
REMARK    7  A    between atoms: C_19  and  C_20 
REMARK    8  A    between atoms: C_23  and  N_24 
ROOT
HETATM    1  C   UNL     1      40.598 -13.440   4.419  1.00  0.00     0.337 C 
ENDROOT
BRANCH   1   2
HETATM    2  C   UNL     1      39.650 -12.578   5.240  1.00  0.00     0.248 C 
HETATM    3  N   UNL     1      39.498 -11.250   4.996  1.00  0.00    -0.323 N 
HETATM    4  H   UNL     1      39.031 -10.745   5.756  1.00  0.00     0.169 HD
HETATM    5  O   UNL     1      39.127 -13.116   6.222  1.00  0.00    -0.271 OA
BRANCH   3   6
HETATM    6  C   UNL     1      40.077 -10.447   4.017  1.00  0.00     0.080 C 
HETATM    7  C   UNL     1      41.418 -10.092   4.095  1.00  0.00     0.136 C 
HETATM    8  N   UNL     1      41.727  -9.412   2.941  1.00  0.00    -0.349 N 
HETATM    9  H   UNL     1      42.646  -9.034   2.732  1.00  0.00     0.166 HD
HETATM   10  C   UNL     1      40.615  -9.270   2.150  1.00  0.00     0.045 A 
HETATM   11  C   UNL     1      39.535  -9.811   2.850  1.00  0.00     0.020 A 
HETATM   12  C   UNL     1      40.488  -8.645   0.903  1.00  0.00     0.030 A 
HETATM   13  C   UNL     1      38.243  -9.581   2.320  1.00  0.00     0.016 A 
HETATM   14  C   UNL     1      38.094  -8.952   1.078  1.00  0.00     0.001 A 
HETATM   15  C   UNL     1      39.207  -8.513   0.369  1.00  0.00     0.002 A 
BRANCH   7  16
HETATM   16  C   UNL     1      42.371 -10.383   5.139  1.00  0.00     0.312 C 
HETATM   17  O   UNL     1      42.138 -10.237   6.331  1.00  0.00    -0.258 OA
BRANCH  16  18
HETATM   18  O   UNL     1      43.528 -10.846   4.597  1.00  0.00    -0.321 OA
HETATM   19  C   UNL     1      44.456 -11.366   5.554  1.00  0.00     0.213 C 
ENDBRANCH  16  18
ENDBRANCH   7  16
ENDBRANCH   3   6
ENDBRANCH   1   2
BRANCH   1  20
HETATM   20  N   UNL     1      40.018 -13.682   3.000  1.00  0.00    -0.060 N 
HETATM   21  H   UNL     1      39.106 -13.178   3.054  1.00  0.00     0.280 HD
HETATM   22  C   UNL     1      39.662 -15.133   2.717  1.00  0.00     0.263 C 
HETATM   23  C   UNL     1      40.924 -15.994   2.455  1.00  0.00     0.263 C 
HETATM   24  N   UNL     1      41.864 -15.366   1.417  1.00  0.00    -0.064 N 
HETATM   25  H   UNL     1      41.425 -15.480   0.490  1.00  0.00     0.280 HD
HETATM   26  C   UNL     1      42.133 -13.875   1.640  1.00  0.00     0.263 C 
HETATM   27  C   UNL     1      40.832 -13.072   1.884  1.00  0.00     0.263 C 
BRANCH  24  28
HETATM   28  C   UNL     1      43.193 -16.121   1.314  1.00  0.00     0.273 C 
BRANCH  28  29
HETATM   29  C   UNL     1      43.399 -17.135   2.406  1.00  0.00    -0.032 A 
HETATM   30  C   UNL     1      43.352 -18.509   2.118  1.00  0.00     0.011 A 
HETATM   31  C   UNL     1      43.549 -19.455   3.131  1.00  0.00     0.037 A 
HETATM   32  C   UNL     1      43.787 -19.028   4.444  1.00  0.00     0.102 A 
HETATM   33  C   UNL     1      43.833 -17.662   4.745  1.00  0.00     0.037 A 
HETATM   34  C   UNL     1      43.645 -16.722   3.727  1.00  0.00     0.011 A 
BRANCH  32  35
HETATM   35  N   UNL     1      43.986 -20.019   5.511  1.00  0.00    -0.116 N 
HETATM   36  O   UNL     1      43.365 -19.851   6.567  1.00  0.00    -0.532 OA
HETATM   37  O   UNL     1      44.780 -20.942   5.286  1.00  0.00    -0.532 OA
ENDBRANCH  32  35
ENDBRANCH  28  29
ENDBRANCH  24  28
ENDBRANCH   1  20
TORSDOF 8
ENDMDL
