MODEL 1
REMARK VINA RESULT:      -8.2      0.000      0.000
REMARK  6 active torsions:
REMARK  status: ('A' for Active; 'I' for Inactive)
REMARK    1  A    between atoms: C_2  and  O_3 
REMARK    2  A    between atoms: O_3  and  C_4 
REMARK    3  A    between atoms: C_7  and  N_8 
REMARK    4  A    between atoms: C_11  and  N_12 
REMARK    5  A    between atoms: C_16  and  O_17 
REMARK    6  A    between atoms: C_16  and  C_18 
ROOT
HETATM    1  N   UNL     1      43.624 -10.355   7.929  1.00  0.00    -0.251 N 
HETATM    2  C   UNL     1      42.501 -10.557   7.154  1.00  0.00     0.262 C 
HETATM    3  O   UNL     1      41.394 -10.047   7.238  1.00  0.00    -0.270 OA
HETATM    4  C   UNL     1      42.854 -11.588   6.098  1.00  0.00     0.289 C 
HETATM    5  C   UNL     1      44.333 -11.333   5.921  1.00  0.00     0.146 C 
HETATM    6  C   UNL     1      44.735 -10.859   7.287  1.00  0.00     0.233 C 
HETATM    7  O   UNL     1      45.894 -10.939   7.659  1.00  0.00    -0.273 OA
ENDROOT
BRANCH   4   8
HETATM    8  N   UNL     1      42.104 -11.539   4.735  1.00  0.00    -0.058 N 
HETATM    9  H   UNL     1      41.688 -10.601   4.635  1.00  0.00     0.281 HD
HETATM   10  C   UNL     1      43.074 -11.770   3.588  1.00  0.00     0.239 C 
HETATM   11  C   UNL     1      42.358 -11.792   2.250  1.00  0.00     0.071 C 
HETATM   12  C   UNL     1      41.257 -12.865   2.195  1.00  0.00     0.088 C 
HETATM   13  C   UNL     1      40.274 -12.500   3.318  1.00  0.00     0.071 C 
HETATM   14  C   UNL     1      40.933 -12.517   4.688  1.00  0.00     0.239 C 
BRANCH  12  15
HETATM   15  O   UNL     1      40.564 -12.665   0.962  1.00  0.00    -0.385 OA
HETATM   16  H   UNL     1      41.202 -12.619   0.227  1.00  0.00     0.211 HD
ENDBRANCH  12  15
BRANCH  12  17
HETATM   17  C   UNL     1      41.747 -14.318   2.229  1.00  0.00    -0.024 A 
HETATM   18  C   UNL     1      40.908 -15.357   2.679  1.00  0.00     0.011 A 
HETATM   19  C   UNL     1      41.343 -16.687   2.717  1.00  0.00     0.020 A 
HETATM   20  C   UNL     1      42.622 -17.009   2.278  1.00  0.00     0.011 A 
HETATM   21 BR   UNL     1      43.214 -18.800   2.333  1.00  0.00    -0.051 Br
HETATM   22  C   UNL     1      43.456 -16.015   1.783  1.00  0.00     0.020 A 
HETATM   23  C   UNL     1      43.017 -14.685   1.746  1.00  0.00     0.011 A 
ENDBRANCH  12  17
ENDBRANCH   4   8
BRANCH   1  24
HETATM   24  C   UNL     1      43.625  -9.744   9.224  1.00  0.00     0.045 A 
HETATM   25  C   UNL     1      43.448  -8.360   9.379  1.00  0.00     0.033 A 
HETATM   26  C   UNL     1      43.352  -7.773  10.648  1.00  0.00     0.039 A 
HETATM   27  C   UNL     1      43.418  -8.552  11.798  1.00  0.00     0.068 A 
HETATM   28  C   UNL     1      43.647  -9.915  11.673  1.00  0.00     0.039 A 
HETATM   29  C   UNL     1      43.749 -10.502  10.400  1.00  0.00     0.033 A 
BRANCH  27  30
HETATM   30  O   UNL     1      43.259  -7.875  12.972  1.00  0.00    -0.352 OA
BRANCH  30  31
HETATM   31  C   UNL     1      41.921  -7.774  13.462  1.00  0.00     0.171 C 
HETATM   32  C   UNL     1      41.803  -8.662  14.688  1.00  0.00     0.034 C 
ENDBRANCH  30  31
ENDBRANCH  27  30
ENDBRANCH   1  24
TORSDOF 6
ENDMDL
MODEL 2
REMARK VINA RESULT:      -8.1      1.628      2.074
REMARK  6 active torsions:
REMARK  status: ('A' for Active; 'I' for Inactive)
REMARK    1  A    between atoms: C_2  and  O_3 
REMARK    2  A    between atoms: O_3  and  C_4 
REMARK    3  A    between atoms: C_7  and  N_8 
REMARK    4  A    between atoms: C_11  and  N_12 
REMARK    5  A    between atoms: C_16  and  O_17 
REMARK    6  A    between atoms: C_16  and  C_18 
ROOT
HETATM    1  N   UNL     1      43.004 -10.451   7.450  1.00  0.00    -0.251 N 
HETATM    2  C   UNL     1      42.160 -10.749   6.401  1.00  0.00     0.262 C 
HETATM    3  O   UNL     1      41.322 -10.049   5.851  1.00  0.00    -0.270 OA
HETATM    4  C   UNL     1      42.431 -12.184   5.990  1.00  0.00     0.289 C 
HETATM    5  C   UNL     1      43.890 -12.325   6.357  1.00  0.00     0.146 C 
HETATM    6  C   UNL     1      44.011 -11.390   7.525  1.00  0.00     0.233 C 
HETATM    7  O   UNL     1      44.908 -11.523   8.340  1.00  0.00    -0.273 OA
ENDROOT
BRANCH   4   8
HETATM    8  N   UNL     1      42.178 -12.591   4.509  1.00  0.00    -0.058 N 
HETATM    9  H   UNL     1      41.791 -11.772   4.016  1.00  0.00     0.281 HD
HETATM   10  C   UNL     1      43.482 -12.994   3.841  1.00  0.00     0.239 C 
HETATM   11  C   UNL     1      43.256 -13.457   2.413  1.00  0.00     0.071 C 
HETATM   12  C   UNL     1      42.269 -14.635   2.332  1.00  0.00     0.088 C 
HETATM   13  C   UNL     1      40.957 -14.112   2.936  1.00  0.00     0.071 C 
HETATM   14  C   UNL     1      41.121 -13.685   4.386  1.00  0.00     0.239 C 
BRANCH  12  15
HETATM   15  O   UNL     1      42.022 -14.856   0.943  1.00  0.00    -0.385 OA
HETATM   16  H   UNL     1      41.740 -15.778   0.799  1.00  0.00     0.211 HD
ENDBRANCH  12  15
BRANCH  12  17
HETATM   17  C   UNL     1      42.764 -15.955   2.937  1.00  0.00    -0.024 A 
HETATM   18  C   UNL     1      42.872 -17.119   2.150  1.00  0.00     0.011 A 
HETATM   19  C   UNL     1      43.319 -18.330   2.690  1.00  0.00     0.020 A 
HETATM   20  C   UNL     1      43.695 -18.395   4.025  1.00  0.00     0.011 A 
HETATM   21 BR   UNL     1      44.294 -20.028   4.758  1.00  0.00    -0.051 Br
HETATM   22  C   UNL     1      43.647 -17.254   4.816  1.00  0.00     0.020 A 
HETATM   23  C   UNL     1      43.199 -16.043   4.273  1.00  0.00     0.011 A 
ENDBRANCH  12  17
ENDBRANCH   4   8
BRANCH   1  24
HETATM   24  C   UNL     1      42.834  -9.349   8.348  1.00  0.00     0.045 A 
HETATM   25  C   UNL     1      41.742  -9.286   9.230  1.00  0.00     0.033 A 
HETATM   26  C   UNL     1      41.624  -8.258  10.175  1.00  0.00     0.039 A 
HETATM   27  C   UNL     1      42.598  -7.272  10.277  1.00  0.00     0.068 A 
HETATM   28  C   UNL     1      43.659  -7.280   9.381  1.00  0.00     0.039 A 
HETATM   29  C   UNL     1      43.773  -8.308   8.430  1.00  0.00     0.033 A 
BRANCH  27  30
HETATM   30  O   UNL     1      42.401  -6.355  11.269  1.00  0.00    -0.352 OA
BRANCH  30  31
HETATM   31  C   UNL     1      41.871  -6.863  12.495  1.00  0.00     0.171 C 
HETATM   32  C   UNL     1      43.035  -7.331  13.349  1.00  0.00     0.034 C 
ENDBRANCH  30  31
ENDBRANCH  27  30
ENDBRANCH   1  24
TORSDOF 6
ENDMDL
MODEL 3
REMARK VINA RESULT:      -8.1      3.773      9.782
REMARK  6 active torsions:
REMARK  status: ('A' for Active; 'I' for Inactive)
REMARK    1  A    between atoms: C_2  and  O_3 
REMARK    2  A    between atoms: O_3  and  C_4 
REMARK    3  A    between atoms: C_7  and  N_8 
REMARK    4  A    between atoms: C_11  and  N_12 
REMARK    5  A    between atoms: C_16  and  O_17 
REMARK    6  A    between atoms: C_16  and  C_18 
ROOT
HETATM    1  N   UNL     1      42.345 -13.542   5.402  1.00  0.00    -0.251 N 
HETATM    2  C   UNL     1      43.249 -12.754   6.083  1.00  0.00     0.262 C 
HETATM    3  O   UNL     1      44.462 -12.863   6.179  1.00  0.00    -0.270 OA
HETATM    4  C   UNL     1      42.468 -11.641   6.757  1.00  0.00     0.289 C 
HETATM    5  C   UNL     1      41.303 -11.484   5.809  1.00  0.00     0.146 C 
HETATM    6  C   UNL     1      41.146 -12.876   5.270  1.00  0.00     0.233 C 
HETATM    7  O   UNL     1      40.084 -13.246   4.799  1.00  0.00    -0.273 OA
ENDROOT
BRANCH   4   8
HETATM    8  N   UNL     1      43.183 -10.280   7.008  1.00  0.00    -0.058 N 
HETATM    9  H   UNL     1      43.720 -10.043   6.160  1.00  0.00     0.281 HD
HETATM   10  C   UNL     1      42.160  -9.186   7.263  1.00  0.00     0.239 C 
HETATM   11  C   UNL     1      42.832  -7.860   7.574  1.00  0.00     0.071 C 
HETATM   12  C   UNL     1      43.775  -7.955   8.786  1.00  0.00     0.088 C 
HETATM   13  C   UNL     1      44.827  -9.007   8.404  1.00  0.00     0.071 C 
HETATM   14  C   UNL     1      44.208 -10.369   8.135  1.00  0.00     0.239 C 
BRANCH  12  15
HETATM   15  O   UNL     1      44.456  -6.702   8.862  1.00  0.00    -0.385 OA
HETATM   16  H   UNL     1      44.043  -6.062   8.254  1.00  0.00     0.211 HD
ENDBRANCH  12  15
BRANCH  12  17
HETATM   17  C   UNL     1      43.093  -8.201  10.138  1.00  0.00    -0.024 A 
HETATM   18  C   UNL     1      43.812  -8.728  11.230  1.00  0.00     0.011 A 
HETATM   19  C   UNL     1      43.201  -8.960  12.467  1.00  0.00     0.020 A 
HETATM   20  C   UNL     1      41.861  -8.643  12.646  1.00  0.00     0.011 A 
HETATM   21 BR   UNL     1      41.032  -8.960  14.312  1.00  0.00    -0.051 Br
HETATM   22  C   UNL     1      41.135  -8.077  11.606  1.00  0.00     0.020 A 
HETATM   23  C   UNL     1      41.750  -7.846  10.368  1.00  0.00     0.011 A 
ENDBRANCH  12  17
ENDBRANCH   4   8
BRANCH   1  24
HETATM   24  C   UNL     1      42.607 -14.870   4.936  1.00  0.00     0.045 A 
HETATM   25  C   UNL     1      42.848 -15.134   3.578  1.00  0.00     0.033 A 
HETATM   26  C   UNL     1      43.199 -16.416   3.133  1.00  0.00     0.039 A 
HETATM   27  C   UNL     1      43.332 -17.468   4.032  1.00  0.00     0.068 A 
HETATM   28  C   UNL     1      43.045 -17.246   5.372  1.00  0.00     0.039 A 
HETATM   29  C   UNL     1      42.688 -15.962   5.816  1.00  0.00     0.033 A 
BRANCH  27  30
HETATM   30  O   UNL     1      43.729 -18.655   3.488  1.00  0.00    -0.352 OA
BRANCH  30  31
HETATM   31  C   UNL     1      43.078 -19.037   2.275  1.00  0.00     0.171 C 
HETATM   32  C   UNL     1      43.571 -20.422   1.897  1.00  0.00     0.034 C 
ENDBRANCH  30  31
ENDBRANCH  27  30
ENDBRANCH   1  24
TORSDOF 6
ENDMDL
MODEL 4
REMARK VINA RESULT:      -8.0      7.055      9.224
REMARK  6 active torsions:
REMARK  status: ('A' for Active; 'I' for Inactive)
REMARK    1  A    between atoms: C_2  and  O_3 
REMARK    2  A    between atoms: O_3  and  C_4 
REMARK    3  A    between atoms: C_7  and  N_8 
REMARK    4  A    between atoms: C_11  and  N_12 
REMARK    5  A    between atoms: C_16  and  O_17 
REMARK    6  A    between atoms: C_16  and  C_18 
ROOT
HETATM    1  N   UNL     1      41.993 -15.079   2.190  1.00  0.00    -0.251 N 
HETATM    2  C   UNL     1      40.835 -15.155   1.445  1.00  0.00     0.262 C 
HETATM    3  O   UNL     1      39.959 -16.006   1.450  1.00  0.00    -0.270 OA
HETATM    4  C   UNL     1      40.794 -13.938   0.539  1.00  0.00     0.289 C 
HETATM    5  C   UNL     1      41.555 -12.929   1.367  1.00  0.00     0.146 C 
HETATM    6  C   UNL     1      42.511 -13.803   2.125  1.00  0.00     0.233 C 
HETATM    7  O   UNL     1      43.545 -13.346   2.583  1.00  0.00    -0.273 OA
ENDROOT
BRANCH   4   8
HETATM    8  N   UNL     1      39.405 -13.383   0.106  1.00  0.00    -0.058 N 
HETATM    9  H   UNL     1      38.681 -14.019   0.473  1.00  0.00     0.281 HD
HETATM   10  C   UNL     1      39.183 -11.998   0.691  1.00  0.00     0.239 C 
HETATM   11  C   UNL     1      37.863 -11.405   0.233  1.00  0.00     0.071 C 
HETATM   12  C   UNL     1      37.763 -11.322  -1.300  1.00  0.00     0.088 C 
HETATM   13  C   UNL     1      37.899 -12.769  -1.799  1.00  0.00     0.071 C 
HETATM   14  C   UNL     1      39.231 -13.389  -1.410  1.00  0.00     0.239 C 
BRANCH  12  15
HETATM   15  O   UNL     1      36.427 -10.910  -1.593  1.00  0.00    -0.385 OA
HETATM   16  H   UNL     1      35.801 -11.379  -1.010  1.00  0.00     0.211 HD
ENDBRANCH  12  15
BRANCH  12  17
HETATM   17  C   UNL     1      38.718 -10.327  -1.972  1.00  0.00    -0.024 A 
HETATM   18  C   UNL     1      39.024 -10.427  -3.345  1.00  0.00     0.011 A 
HETATM   19  C   UNL     1      39.896  -9.528  -3.969  1.00  0.00     0.020 A 
HETATM   20  C   UNL     1      40.460  -8.490  -3.237  1.00  0.00     0.011 A 
HETATM   21 BR   UNL     1      41.640  -7.279  -4.075  1.00  0.00    -0.051 Br
HETATM   22  C   UNL     1      40.141  -8.335  -1.894  1.00  0.00     0.020 A 
HETATM   23  C   UNL     1      39.268  -9.236  -1.272  1.00  0.00     0.011 A 
ENDBRANCH  12  17
ENDBRANCH   4   8
BRANCH   1  24
HETATM   24  C   UNL     1      42.585 -16.176   2.893  1.00  0.00     0.045 A 
HETATM   25  C   UNL     1      43.147 -17.266   2.209  1.00  0.00     0.033 A 
HETATM   26  C   UNL     1      43.811 -18.294   2.890  1.00  0.00     0.039 A 
HETATM   27  C   UNL     1      43.945 -18.258   4.274  1.00  0.00     0.068 A 
HETATM   28  C   UNL     1      43.352 -17.220   4.979  1.00  0.00     0.039 A 
HETATM   29  C   UNL     1      42.681 -16.193   4.294  1.00  0.00     0.033 A 
BRANCH  27  30
HETATM   30  O   UNL     1      44.657 -19.287   4.819  1.00  0.00    -0.352 OA
BRANCH  30  31
HETATM   31  C   UNL     1      43.919 -20.193   5.641  1.00  0.00     0.171 C 
HETATM   32  C   UNL     1      43.579 -21.413   4.803  1.00  0.00     0.034 C 
ENDBRANCH  30  31
ENDBRANCH  27  30
ENDBRANCH   1  24
TORSDOF 6
ENDMDL
MODEL 5
REMARK VINA RESULT:      -7.5      3.796      9.376
REMARK  6 active torsions:
REMARK  status: ('A' for Active; 'I' for Inactive)
REMARK    1  A    between atoms: C_2  and  O_3 
REMARK    2  A    between atoms: O_3  and  C_4 
REMARK    3  A    between atoms: C_7  and  N_8 
REMARK    4  A    between atoms: C_11  and  N_12 
REMARK    5  A    between atoms: C_16  and  O_17 
REMARK    6  A    between atoms: C_16  and  C_18 
ROOT
HETATM    1  N   UNL     1      42.526 -13.258   4.882  1.00  0.00    -0.251 N 
HETATM    2  C   UNL     1      41.574 -12.312   4.565  1.00  0.00     0.262 C 
HETATM    3  O   UNL     1      40.563 -12.419   3.887  1.00  0.00    -0.270 OA
HETATM    4  C   UNL     1      41.988 -11.009   5.224  1.00  0.00     0.289 C 
HETATM    5  C   UNL     1      42.735 -11.516   6.435  1.00  0.00     0.146 C 
HETATM    6  C   UNL     1      43.296 -12.816   5.936  1.00  0.00     0.233 C 
HETATM    7  O   UNL     1      44.273 -13.318   6.466  1.00  0.00    -0.273 OA
ENDROOT
BRANCH   4   8
HETATM    8  N   UNL     1      40.876  -9.996   5.627  1.00  0.00    -0.058 N 
HETATM    9  H   UNL     1      40.251  -9.872   4.816  1.00  0.00     0.281 HD
HETATM   10  C   UNL     1      40.066 -10.537   6.793  1.00  0.00     0.239 C 
HETATM   11  C   UNL     1      39.015  -9.542   7.249  1.00  0.00     0.071 C 
HETATM   12  C   UNL     1      39.628  -8.190   7.652  1.00  0.00     0.088 C 
HETATM   13  C   UNL     1      40.341  -7.672   6.393  1.00  0.00     0.071 C 
HETATM   14  C   UNL     1      41.442  -8.611   5.928  1.00  0.00     0.239 C 
BRANCH  12  15
HETATM   15  O   UNL     1      38.531  -7.308   7.895  1.00  0.00    -0.385 OA
HETATM   16  H   UNL     1      37.725  -7.658   7.472  1.00  0.00     0.211 HD
ENDBRANCH  12  15
BRANCH  12  17
HETATM   17  C   UNL     1      40.502  -8.210   8.913  1.00  0.00    -0.024 A 
HETATM   18  C   UNL     1      41.472  -7.212   9.141  1.00  0.00     0.011 A 
HETATM   19  C   UNL     1      42.277  -7.221  10.285  1.00  0.00     0.020 A 
HETATM   20  C   UNL     1      42.110  -8.214  11.241  1.00  0.00     0.011 A 
HETATM   21 BR   UNL     1      43.198  -8.231  12.783  1.00  0.00    -0.051 Br
HETATM   22  C   UNL     1      41.130  -9.184  11.071  1.00  0.00     0.020 A 
HETATM   23  C   UNL     1      40.325  -9.173   9.924  1.00  0.00     0.011 A 
ENDBRANCH  12  17
ENDBRANCH   4   8
BRANCH   1  24
HETATM   24  C   UNL     1      42.707 -14.498   4.190  1.00  0.00     0.045 A 
HETATM   25  C   UNL     1      43.066 -14.533   2.833  1.00  0.00     0.033 A 
HETATM   26  C   UNL     1      43.337 -15.743   2.179  1.00  0.00     0.039 A 
HETATM   27  C   UNL     1      43.269 -16.951   2.863  1.00  0.00     0.068 A 
HETATM   28  C   UNL     1      42.862 -16.948   4.191  1.00  0.00     0.039 A 
HETATM   29  C   UNL     1      42.585 -15.736   4.844  1.00  0.00     0.033 A 
BRANCH  27  30
HETATM   30  O   UNL     1      43.605 -18.055   2.135  1.00  0.00    -0.352 OA
BRANCH  30  31
HETATM   31  C   UNL     1      43.747 -19.271   2.871  1.00  0.00     0.171 C 
HETATM   32  C   UNL     1      43.546 -20.427   1.907  1.00  0.00     0.034 C 
ENDBRANCH  30  31
ENDBRANCH  27  30
ENDBRANCH   1  24
TORSDOF 6
ENDMDL
MODEL 6
REMARK VINA RESULT:      -7.4      7.227      9.276
REMARK  6 active torsions:
REMARK  status: ('A' for Active; 'I' for Inactive)
REMARK    1  A    between atoms: C_2  and  O_3 
REMARK    2  A    between atoms: O_3  and  C_4 
REMARK    3  A    between atoms: C_7  and  N_8 
REMARK    4  A    between atoms: C_11  and  N_12 
REMARK    5  A    between atoms: C_16  and  O_17 
REMARK    6  A    between atoms: C_16  and  C_18 
ROOT
HETATM    1  N   UNL     1      41.471 -15.186   1.820  1.00  0.00    -0.251 N 
HETATM    2  C   UNL     1      41.928 -13.913   1.553  1.00  0.00     0.262 C 
HETATM    3  O   UNL     1      43.013 -13.406   1.796  1.00  0.00    -0.270 OA
HETATM    4  C   UNL     1      40.806 -13.160   0.862  1.00  0.00     0.289 C 
HETATM    5  C   UNL     1      40.087 -14.286   0.157  1.00  0.00     0.146 C 
HETATM    6  C   UNL     1      40.338 -15.444   1.079  1.00  0.00     0.233 C 
HETATM    7  O   UNL     1      39.600 -16.415   1.076  1.00  0.00    -0.273 OA
ENDROOT
BRANCH   4   8
HETATM    8  N   UNL     1      41.179 -12.018  -0.129  1.00  0.00    -0.058 N 
HETATM    9  H   UNL     1      42.207 -11.938  -0.148  1.00  0.00     0.281 HD
HETATM   10  C   UNL     1      40.687 -12.350  -1.528  1.00  0.00     0.239 C 
HETATM   11  C   UNL     1      40.981 -11.225  -2.502  1.00  0.00     0.071 C 
HETATM   12  C   UNL     1      40.358  -9.891  -2.058  1.00  0.00     0.088 C 
HETATM   13  C   UNL     1      40.981  -9.584  -0.687  1.00  0.00     0.071 C 
HETATM   14  C   UNL     1      40.668 -10.660   0.341  1.00  0.00     0.239 C 
BRANCH  12  15
HETATM   15  O   UNL     1      40.846  -8.898  -2.962  1.00  0.00    -0.385 OA
HETATM   16  H   UNL     1      40.845  -9.249  -3.871  1.00  0.00     0.211 HD
ENDBRANCH  12  15
BRANCH  12  17
HETATM   17  C   UNL     1      38.825  -9.836  -2.084  1.00  0.00    -0.024 A 
HETATM   18  C   UNL     1      38.079 -10.724  -2.885  1.00  0.00     0.011 A 
HETATM   19  C   UNL     1      36.681 -10.682  -2.921  1.00  0.00     0.020 A 
HETATM   20  C   UNL     1      35.996  -9.767  -2.131  1.00  0.00     0.011 A 
HETATM   21 BR   UNL     1      34.111  -9.704  -2.180  1.00  0.00    -0.051 Br
HETATM   22  C   UNL     1      36.699  -8.910  -1.294  1.00  0.00     0.020 A 
HETATM   23  C   UNL     1      38.099  -8.954  -1.261  1.00  0.00     0.011 A 
ENDBRANCH  12  17
ENDBRANCH   4   8
BRANCH   1  24
HETATM   24  C   UNL     1      42.068 -16.089   2.757  1.00  0.00     0.045 A 
HETATM   25  C   UNL     1      42.953 -17.097   2.339  1.00  0.00     0.033 A 
HETATM   26  C   UNL     1      43.612 -17.919   3.262  1.00  0.00     0.039 A 
HETATM   27  C   UNL     1      43.417 -17.752   4.628  1.00  0.00     0.068 A 
HETATM   28  C   UNL     1      42.506 -16.800   5.065  1.00  0.00     0.039 A 
HETATM   29  C   UNL     1      41.841 -15.980   4.138  1.00  0.00     0.033 A 
BRANCH  27  30
HETATM   30  O   UNL     1      44.153 -18.577   5.429  1.00  0.00    -0.352 OA
BRANCH  30  31
HETATM   31  C   UNL     1      43.459 -19.695   5.984  1.00  0.00     0.171 C 
HETATM   32  C   UNL     1      43.955 -20.948   5.284  1.00  0.00     0.034 C 
ENDBRANCH  30  31
ENDBRANCH  27  30
ENDBRANCH   1  24
TORSDOF 6
ENDMDL
MODEL 7
REMARK VINA RESULT:      -7.3     19.099     21.025
REMARK  6 active torsions:
REMARK  status: ('A' for Active; 'I' for Inactive)
REMARK    1  A    between atoms: C_2  and  O_3 
REMARK    2  A    between atoms: O_3  and  C_4 
REMARK    3  A    between atoms: C_7  and  N_8 
REMARK    4  A    between atoms: C_11  and  N_12 
REMARK    5  A    between atoms: C_16  and  O_17 
REMARK    6  A    between atoms: C_16  and  C_18 
ROOT
HETATM    1  N   UNL     1      42.171 -31.966   2.619  1.00  0.00    -0.251 N 
HETATM    2  C   UNL     1      42.490 -30.808   1.942  1.00  0.00     0.262 C 
HETATM    3  O   UNL     1      42.123 -29.660   2.144  1.00  0.00    -0.270 OA
HETATM    4  C   UNL     1      43.433 -31.183   0.814  1.00  0.00     0.289 C 
HETATM    5  C   UNL     1      44.127 -32.390   1.400  1.00  0.00     0.146 C 
HETATM    6  C   UNL     1      43.060 -32.966   2.286  1.00  0.00     0.233 C 
HETATM    7  O   UNL     1      43.085 -34.141   2.610  1.00  0.00    -0.273 OA
ENDROOT
BRANCH   4   8
HETATM    8  N   UNL     1      44.462 -30.121   0.324  1.00  0.00    -0.058 N 
HETATM    9  H   UNL     1      44.744 -29.554   1.138  1.00  0.00     0.281 HD
HETATM   10  C   UNL     1      45.693 -30.803  -0.250  1.00  0.00     0.239 C 
HETATM   11  C   UNL     1      46.685 -29.792  -0.794  1.00  0.00     0.071 C 
HETATM   12  C   UNL     1      46.065 -28.890  -1.875  1.00  0.00     0.088 C 
HETATM   13  C   UNL     1      44.896 -28.170  -1.185  1.00  0.00     0.071 C 
HETATM   14  C   UNL     1      43.845 -29.140  -0.669  1.00  0.00     0.239 C 
BRANCH  12  15
HETATM   15  O   UNL     1      47.042 -27.892  -2.173  1.00  0.00    -0.385 OA
HETATM   16  H   UNL     1      46.961 -27.150  -1.546  1.00  0.00     0.211 HD
ENDBRANCH  12  15
BRANCH  12  17
HETATM   17  C   UNL     1      45.693 -29.590  -3.187  1.00  0.00    -0.024 A 
HETATM   18  C   UNL     1      46.397 -30.729  -3.628  1.00  0.00     0.011 A 
HETATM   19  C   UNL     1      46.069 -31.376  -4.825  1.00  0.00     0.020 A 
HETATM   20  C   UNL     1      45.009 -30.912  -5.595  1.00  0.00     0.011 A 
HETATM   21 BR   UNL     1      44.568 -31.778  -7.212  1.00  0.00    -0.051 Br
HETATM   22  C   UNL     1      44.264 -29.822  -5.164  1.00  0.00     0.020 A 
HETATM   23  C   UNL     1      44.594 -29.177  -3.965  1.00  0.00     0.011 A 
ENDBRANCH  12  17
ENDBRANCH   4   8
BRANCH   1  24
HETATM   24  C   UNL     1      41.058 -32.114   3.507  1.00  0.00     0.045 A 
HETATM   25  C   UNL     1      39.875 -32.751   3.098  1.00  0.00     0.033 A 
HETATM   26  C   UNL     1      38.821 -32.981   3.992  1.00  0.00     0.039 A 
HETATM   27  C   UNL     1      38.922 -32.594   5.323  1.00  0.00     0.068 A 
HETATM   28  C   UNL     1      40.058 -31.914   5.740  1.00  0.00     0.039 A 
HETATM   29  C   UNL     1      41.112 -31.678   4.841  1.00  0.00     0.033 A 
BRANCH  27  30
HETATM   30  O   UNL     1      37.855 -32.919   6.109  1.00  0.00    -0.352 OA
BRANCH  30  31
HETATM   31  C   UNL     1      36.906 -33.820   5.537  1.00  0.00     0.171 C 
HETATM   32  C   UNL     1      36.132 -34.467   6.671  1.00  0.00     0.034 C 
ENDBRANCH  30  31
ENDBRANCH  27  30
ENDBRANCH   1  24
TORSDOF 6
ENDMDL
MODEL 8
REMARK VINA RESULT:      -7.3      3.577      9.974
REMARK  6 active torsions:
REMARK  status: ('A' for Active; 'I' for Inactive)
REMARK    1  A    between atoms: C_2  and  O_3 
REMARK    2  A    between atoms: O_3  and  C_4 
REMARK    3  A    between atoms: C_7  and  N_8 
REMARK    4  A    between atoms: C_11  and  N_12 
REMARK    5  A    between atoms: C_16  and  O_17 
REMARK    6  A    between atoms: C_16  and  C_18 
ROOT
HETATM    1  N   UNL     1      40.810 -12.463   4.522  1.00  0.00    -0.251 N 
HETATM    2  C   UNL     1      42.022 -11.825   4.681  1.00  0.00     0.262 C 
HETATM    3  O   UNL     1      42.866 -11.533   3.847  1.00  0.00    -0.270 OA
HETATM    4  C   UNL     1      42.182 -11.511   6.158  1.00  0.00     0.289 C 
HETATM    5  C   UNL     1      40.741 -11.348   6.581  1.00  0.00     0.146 C 
HETATM    6  C   UNL     1      40.031 -12.280   5.644  1.00  0.00     0.233 C 
HETATM    7  O   UNL     1      38.934 -12.732   5.926  1.00  0.00    -0.273 OA
ENDROOT
BRANCH   4   8
HETATM    8  N   UNL     1      43.036 -10.274   6.564  1.00  0.00    -0.058 N 
HETATM    9  H   UNL     1      43.635 -10.025   5.763  1.00  0.00     0.281 HD
HETATM   10  C   UNL     1      42.135  -9.093   6.888  1.00  0.00     0.239 C 
HETATM   11  C   UNL     1      42.939  -7.892   7.350  1.00  0.00     0.071 C 
HETATM   12  C   UNL     1      43.808  -8.209   8.579  1.00  0.00     0.088 C 
HETATM   13  C   UNL     1      44.749  -9.339   8.134  1.00  0.00     0.071 C 
HETATM   14  C   UNL     1      43.990 -10.587   7.713  1.00  0.00     0.239 C 
BRANCH  12  15
HETATM   15  O   UNL     1      44.625  -7.058   8.800  1.00  0.00    -0.385 OA
HETATM   16  H   UNL     1      44.523  -6.751   9.719  1.00  0.00     0.211 HD
ENDBRANCH  12  15
BRANCH  12  17
HETATM   17  C   UNL     1      43.040  -8.496   9.875  1.00  0.00    -0.024 A 
HETATM   18  C   UNL     1      43.689  -9.054  10.996  1.00  0.00     0.011 A 
HETATM   19  C   UNL     1      42.999  -9.323  12.183  1.00  0.00     0.020 A 
HETATM   20  C   UNL     1      41.649  -9.013  12.284  1.00  0.00     0.011 A 
HETATM   21 BR   UNL     1      40.714  -9.380  13.883  1.00  0.00    -0.051 Br
HETATM   22  C   UNL     1      40.991  -8.417  11.216  1.00  0.00     0.020 A 
HETATM   23  C   UNL     1      41.684  -8.149  10.028  1.00  0.00     0.011 A 
ENDBRANCH  12  17
ENDBRANCH   4   8
BRANCH   1  24
HETATM   24  C   UNL     1      40.435 -13.230   3.373  1.00  0.00     0.045 A 
HETATM   25  C   UNL     1      40.010 -12.610   2.186  1.00  0.00     0.033 A 
HETATM   26  C   UNL     1      39.735 -13.354   1.031  1.00  0.00     0.039 A 
HETATM   27  C   UNL     1      39.888 -14.736   1.022  1.00  0.00     0.068 A 
HETATM   28  C   UNL     1      40.254 -15.378   2.197  1.00  0.00     0.039 A 
HETATM   29  C   UNL     1      40.524 -14.632   3.357  1.00  0.00     0.033 A 
BRANCH  27  30
HETATM   30  O   UNL     1      39.642 -15.344  -0.175  1.00  0.00    -0.352 OA
BRANCH  30  31
HETATM   31  C   UNL     1      39.502 -14.477  -1.301  1.00  0.00     0.171 C 
HETATM   32  C   UNL     1      38.811 -15.254  -2.407  1.00  0.00     0.034 C 
ENDBRANCH  30  31
ENDBRANCH  27  30
ENDBRANCH   1  24
TORSDOF 6
ENDMDL
MODEL 9
REMARK VINA RESULT:      -7.2      5.046      8.760
REMARK  6 active torsions:
REMARK  status: ('A' for Active; 'I' for Inactive)
REMARK    1  A    between atoms: C_2  and  O_3 
REMARK    2  A    between atoms: O_3  and  C_4 
REMARK    3  A    between atoms: C_7  and  N_8 
REMARK    4  A    between atoms: C_11  and  N_12 
REMARK    5  A    between atoms: C_16  and  O_17 
REMARK    6  A    between atoms: C_16  and  C_18 
ROOT
HETATM    1  N   UNL     1      40.605 -12.346   2.649  1.00  0.00    -0.251 N 
HETATM    2  C   UNL     1      41.092 -13.462   3.297  1.00  0.00     0.262 C 
HETATM    3  O   UNL     1      41.701 -14.422   2.849  1.00  0.00    -0.270 OA
HETATM    4  C   UNL     1      40.734 -13.329   4.766  1.00  0.00     0.289 C 
HETATM    5  C   UNL     1      40.722 -11.827   4.930  1.00  0.00     0.146 C 
HETATM    6  C   UNL     1      40.298 -11.365   3.567  1.00  0.00     0.233 C 
HETATM    7  O   UNL     1      39.787 -10.269   3.410  1.00  0.00    -0.273 OA
ENDROOT
BRANCH   4   8
HETATM    8  N   UNL     1      41.659 -14.007   5.819  1.00  0.00    -0.058 N 
HETATM    9  H   UNL     1      41.705 -13.391   6.644  1.00  0.00     0.281 HD
HETATM   10  C   UNL     1      41.085 -15.349   6.240  1.00  0.00     0.239 C 
HETATM   11  C   UNL     1      42.001 -16.062   7.219  1.00  0.00     0.071 C 
HETATM   12  C   UNL     1      43.411 -16.281   6.645  1.00  0.00     0.088 C 
HETATM   13  C   UNL     1      43.951 -14.875   6.339  1.00  0.00     0.071 C 
HETATM   14  C   UNL     1      43.096 -14.139   5.321  1.00  0.00     0.239 C 
BRANCH  12  15
HETATM   15  O   UNL     1      44.203 -16.801   7.714  1.00  0.00    -0.385 OA
HETATM   16  H   UNL     1      43.641 -16.964   8.494  1.00  0.00     0.211 HD
ENDBRANCH  12  15
BRANCH  12  17
HETATM   17  C   UNL     1      43.503 -17.264   5.471  1.00  0.00    -0.024 A 
HETATM   18  C   UNL     1      43.398 -16.817   4.138  1.00  0.00     0.011 A 
HETATM   19  C   UNL     1      43.477 -17.704   3.059  1.00  0.00     0.020 A 
HETATM   20  C   UNL     1      43.691 -19.057   3.290  1.00  0.00     0.011 A 
HETATM   21 BR   UNL     1      43.793 -20.257   1.837  1.00  0.00    -0.051 Br
HETATM   22  C   UNL     1      43.847 -19.523   4.589  1.00  0.00     0.020 A 
HETATM   23  C   UNL     1      43.768 -18.632   5.668  1.00  0.00     0.011 A 
ENDBRANCH  12  17
ENDBRANCH   4   8
BRANCH   1  24
HETATM   24  C   UNL     1      40.416 -12.241   1.234  1.00  0.00     0.045 A 
HETATM   25  C   UNL     1      39.455 -13.018   0.565  1.00  0.00     0.033 A 
HETATM   26  C   UNL     1      39.202 -12.849  -0.803  1.00  0.00     0.039 A 
HETATM   27  C   UNL     1      39.890 -11.893  -1.540  1.00  0.00     0.068 A 
HETATM   28  C   UNL     1      40.884 -11.151  -0.915  1.00  0.00     0.039 A 
HETATM   29  C   UNL     1      41.141 -11.325   0.455  1.00  0.00     0.033 A 
BRANCH  27  30
HETATM   30  O   UNL     1      39.520 -11.785  -2.849  1.00  0.00    -0.352 OA
BRANCH  30  31
HETATM   31  C   UNL     1      39.408 -10.456  -3.361  1.00  0.00     0.171 C 
HETATM   32  C   UNL     1      37.943 -10.061  -3.320  1.00  0.00     0.034 C 
ENDBRANCH  30  31
ENDBRANCH  27  30
ENDBRANCH   1  24
TORSDOF 6
ENDMDL
MODEL 10
REMARK VINA RESULT:      -7.2     19.053     20.586
REMARK  6 active torsions:
REMARK  status: ('A' for Active; 'I' for Inactive)
REMARK    1  A    between atoms: C_2  and  O_3 
REMARK    2  A    between atoms: O_3  and  C_4 
REMARK    3  A    between atoms: C_7  and  N_8 
REMARK    4  A    between atoms: C_11  and  N_12 
REMARK    5  A    between atoms: C_16  and  O_17 
REMARK    6  A    between atoms: C_16  and  C_18 
ROOT
HETATM    1  N   UNL     1      42.571 -31.628   2.567  1.00  0.00    -0.251 N 
HETATM    2  C   UNL     1      42.298 -30.842   1.468  1.00  0.00     0.262 C 
HETATM    3  O   UNL     1      41.449 -29.976   1.319  1.00  0.00    -0.270 OA
HETATM    4  C   UNL     1      43.275 -31.232   0.373  1.00  0.00     0.289 C 
HETATM    5  C   UNL     1      44.464 -31.683   1.188  1.00  0.00     0.146 C 
HETATM    6  C   UNL     1      43.811 -32.215   2.430  1.00  0.00     0.233 C 
HETATM    7  O   UNL     1      44.385 -33.023   3.140  1.00  0.00    -0.273 OA
ENDROOT
BRANCH   4   8
HETATM    8  N   UNL     1      43.682 -30.155  -0.675  1.00  0.00    -0.058 N 
HETATM    9  H   UNL     1      42.823 -29.678  -0.990  1.00  0.00     0.281 HD
HETATM   10  C   UNL     1      44.610 -29.129  -0.047  1.00  0.00     0.239 C 
HETATM   11  C   UNL     1      45.074 -28.103  -1.064  1.00  0.00     0.071 C 
HETATM   12  C   UNL     1      45.786 -28.752  -2.264  1.00  0.00     0.088 C 
HETATM   13  C   UNL     1      44.749 -29.694  -2.894  1.00  0.00     0.071 C 
HETATM   14  C   UNL     1      44.292 -30.776  -1.929  1.00  0.00     0.239 C 
BRANCH  12  15
HETATM   15  O   UNL     1      46.016 -27.704  -3.208  1.00  0.00    -0.385 OA
HETATM   16  H   UNL     1      46.954 -27.695  -3.470  1.00  0.00     0.211 HD
ENDBRANCH  12  15
BRANCH  12  17
HETATM   17  C   UNL     1      47.136 -29.410  -1.955  1.00  0.00    -0.024 A 
HETATM   18  C   UNL     1      48.020 -28.848  -1.011  1.00  0.00     0.011 A 
HETATM   19  C   UNL     1      49.256 -29.437  -0.723  1.00  0.00     0.020 A 
HETATM   20  C   UNL     1      49.623 -30.619  -1.353  1.00  0.00     0.011 A 
HETATM   21 BR   UNL     1      51.292 -31.413  -0.970  1.00  0.00    -0.051 Br
HETATM   22  C   UNL     1      48.754 -31.225  -2.252  1.00  0.00     0.020 A 
HETATM   23  C   UNL     1      47.518 -30.633  -2.539  1.00  0.00     0.011 A 
ENDBRANCH  12  17
ENDBRANCH   4   8
BRANCH   1  24
HETATM   24  C   UNL     1      41.679 -31.831   3.668  1.00  0.00     0.045 A 
HETATM   25  C   UNL     1      41.994 -31.374   4.958  1.00  0.00     0.033 A 
HETATM   26  C   UNL     1      41.082 -31.486   6.016  1.00  0.00     0.039 A 
HETATM   27  C   UNL     1      39.826 -32.046   5.815  1.00  0.00     0.068 A 
HETATM   28  C   UNL     1      39.511 -32.556   4.563  1.00  0.00     0.039 A 
HETATM   29  C   UNL     1      40.428 -32.448   3.504  1.00  0.00     0.033 A 
BRANCH  27  30
HETATM   30  O   UNL     1      39.007 -32.053   6.907  1.00  0.00    -0.352 OA
BRANCH  30  31
HETATM   31  C   UNL     1      38.490 -33.327   7.295  1.00  0.00     0.171 C 
HETATM   32  C   UNL     1      39.456 -33.940   8.292  1.00  0.00     0.034 C 
ENDBRANCH  30  31
ENDBRANCH  27  30
ENDBRANCH   1  24
TORSDOF 6
ENDMDL
