MODEL 1
REMARK VINA RESULT:     -10.3      0.000      0.000
REMARK  9 active torsions:
REMARK  status: ('A' for Active; 'I' for Inactive)
REMARK       I    between atoms: C_2  and  N_3 
REMARK    1  A    between atoms: N_3  and  C_4 
REMARK    2  A    between atoms: C_7  and  O_8 
REMARK    3  A    between atoms: O_8  and  C_9 
REMARK    4  A    between atoms: C_9  and  C_10 
REMARK    5  A    between atoms: C_11  and  O_12 
REMARK    6  A    between atoms: C_16  and  C_17 
REMARK    7  A    between atoms: C_31  and  O_32 
REMARK    8  A    between atoms: O_32  and  C_33 
REMARK    9  A    between atoms: C_33  and  C_34 
ROOT
HETATM    1  C   UNL     1      43.318  -9.582   7.436  1.00  0.00     0.269 C 
HETATM    2  N   UNL     1      44.699  -9.787   8.006  1.00  0.00    -0.061 N 
HETATM    3  H   UNL     1      44.602 -10.316   8.879  1.00  0.00     0.278 HD
HETATM    4  H   UNL     1      45.081  -8.869   8.258  1.00  0.00     0.278 HD
HETATM    5  C   UNL     1      45.632 -10.529   7.080  1.00  0.00     0.238 C 
HETATM    6  C   UNL     1      45.124 -11.959   6.811  1.00  0.00     0.069 C 
HETATM    7  C   UNL     1      43.657 -11.954   6.540  1.00  0.00    -0.019 A 
HETATM    8  C   UNL     1      42.854 -10.876   6.864  1.00  0.00     0.052 A 
HETATM    9  N   UNL     1      41.567 -11.179   6.500  1.00  0.00    -0.356 N 
HETATM   10  H   UNL     1      40.751 -10.587   6.612  1.00  0.00     0.166 HD
HETATM   11  C   UNL     1      41.531 -12.437   5.937  1.00  0.00     0.043 A 
HETATM   12  C   UNL     1      42.832 -12.945   5.943  1.00  0.00     0.002 A 
HETATM   13  C   UNL     1      40.449 -13.153   5.423  1.00  0.00     0.033 A 
HETATM   14  C   UNL     1      40.708 -14.420   4.893  1.00  0.00     0.039 A 
HETATM   15  C   UNL     1      41.996 -14.957   4.870  1.00  0.00     0.070 A 
HETATM   16  C   UNL     1      43.067 -14.228   5.400  1.00  0.00     0.051 A 
ENDROOT
BRANCH   1  17
HETATM   17  C   UNL     1      42.387  -8.976   8.463  1.00  0.00    -0.021 A 
HETATM   18  C   UNL     1      41.818  -7.706   8.304  1.00  0.00     0.012 A 
HETATM   19  C   UNL     1      40.947  -7.186   9.270  1.00  0.00     0.038 A 
HETATM   20  C   UNL     1      40.645  -7.910  10.427  1.00  0.00     0.076 A 
HETATM   21  C   UNL     1      41.240  -9.166  10.626  1.00  0.00    -0.000 A 
HETATM   22  C   UNL     1      42.088  -9.694   9.631  1.00  0.00     0.021 A 
BRANCH  20  23
HETATM   23  O   UNL     1      39.793  -7.487  11.410  1.00  0.00    -0.355 OA
HETATM   24  C   UNL     1      40.080  -6.255  12.060  1.00  0.00     0.210 C 
ENDBRANCH  20  23
BRANCH  21  25
HETATM   25  C   UNL     1      40.996  -9.978  11.884  1.00  0.00     0.217 C 
BRANCH  25  26
HETATM   26  O   UNL     1      42.185  -9.907  12.678  1.00  0.00    -0.347 OA
BRANCH  26  27
HETATM   27  C   UNL     1      42.269  -8.882  13.578  1.00  0.00     0.069 A 
HETATM   28  C   UNL     1      41.328  -8.927  14.605  1.00  0.00     0.039 A 
HETATM   29  C   UNL     1      41.291  -7.932  15.590  1.00  0.00     0.032 A 
HETATM   30  C   UNL     1      42.194  -6.871  15.554  1.00  0.00     0.034 A 
HETATM   31  C   UNL     1      43.136  -6.828  14.519  1.00  0.00     0.032 A 
HETATM   32  C   UNL     1      43.175  -7.825  13.536  1.00  0.00     0.039 A 
BRANCH  30  33
HETATM   33  N   UNL     1      42.222  -5.824  16.500  1.00  0.00    -0.328 N 
HETATM   34  C   UNL     1      41.319  -4.785  16.629  1.00  0.00     0.218 C 
HETATM   35  C   UNL     1      41.661  -3.839  17.756  1.00  0.00     0.117 C 
HETATM   36  O   UNL     1      40.327  -4.586  15.936  1.00  0.00    -0.274 OA
HETATM   37  H   UNL     1      42.996  -5.840  17.151  1.00  0.00     0.169 HD
ENDBRANCH  30  33
ENDBRANCH  26  27
ENDBRANCH  25  26
ENDBRANCH  21  25
ENDBRANCH   1  17
BRANCH  15  38
HETATM   38  O   UNL     1      42.074 -16.204   4.311  1.00  0.00    -0.347 OA
BRANCH  38  39
HETATM   39  C   UNL     1      43.170 -16.468   3.440  1.00  0.00     0.214 C 
BRANCH  39  40
HETATM   40  C   UNL     1      43.410 -17.958   3.410  1.00  0.00    -0.034 A 
HETATM   41  C   UNL     1      43.139 -18.710   2.259  1.00  0.00     0.009 A 
HETATM   42  C   UNL     1      43.370 -20.087   2.243  1.00  0.00     0.001 A 
HETATM   43  C   UNL     1      43.870 -20.725   3.376  1.00  0.00     0.000 A 
HETATM   44  C   UNL     1      44.136 -19.989   4.529  1.00  0.00     0.001 A 
HETATM   45  C   UNL     1      43.906 -18.614   4.548  1.00  0.00     0.009 A 
ENDBRANCH  39  40
ENDBRANCH  38  39
ENDBRANCH  15  38
TORSDOF 9
ENDMDL
MODEL 2
REMARK VINA RESULT:      -9.6      1.343      2.210
REMARK  9 active torsions:
REMARK  status: ('A' for Active; 'I' for Inactive)
REMARK       I    between atoms: C_2  and  N_3 
REMARK    1  A    between atoms: N_3  and  C_4 
REMARK    2  A    between atoms: C_7  and  O_8 
REMARK    3  A    between atoms: O_8  and  C_9 
REMARK    4  A    between atoms: C_9  and  C_10 
REMARK    5  A    between atoms: C_11  and  O_12 
REMARK    6  A    between atoms: C_16  and  C_17 
REMARK    7  A    between atoms: C_31  and  O_32 
REMARK    8  A    between atoms: O_32  and  C_33 
REMARK    9  A    between atoms: C_33  and  C_34 
ROOT
HETATM    1  C   UNL     1      43.991  -9.905   8.348  1.00  0.00     0.269 C 
HETATM    2  N   UNL     1      45.437 -10.295   8.530  1.00  0.00    -0.061 N 
HETATM    3  H   UNL     1      45.461 -11.154   9.088  1.00  0.00     0.278 HD
HETATM    4  H   UNL     1      45.897  -9.568   9.089  1.00  0.00     0.278 HD
HETATM    5  C   UNL     1      46.170 -10.528   7.232  1.00  0.00     0.238 C 
HETATM    6  C   UNL     1      45.560 -11.711   6.456  1.00  0.00     0.069 C 
HETATM    7  C   UNL     1      44.071 -11.634   6.465  1.00  0.00    -0.019 A 
HETATM    8  C   UNL     1      43.381 -10.832   7.356  1.00  0.00     0.052 A 
HETATM    9  N   UNL     1      42.039 -10.987   7.119  1.00  0.00    -0.356 N 
HETATM   10  H   UNL     1      41.281 -10.530   7.613  1.00  0.00     0.166 HD
HETATM   11  C   UNL     1      41.854 -11.872   6.079  1.00  0.00     0.043 A 
HETATM   12  C   UNL     1      43.114 -12.291   5.644  1.00  0.00     0.002 A 
HETATM   13  C   UNL     1      40.670 -12.325   5.494  1.00  0.00     0.033 A 
HETATM   14  C   UNL     1      40.780 -13.224   4.430  1.00  0.00     0.039 A 
HETATM   15  C   UNL     1      42.021 -13.656   3.959  1.00  0.00     0.070 A 
HETATM   16  C   UNL     1      43.198 -13.199   4.565  1.00  0.00     0.051 A 
ENDROOT
BRANCH   1  17
HETATM   17  C   UNL     1      43.272  -9.838   9.677  1.00  0.00    -0.021 A 
HETATM   18  C   UNL     1      43.747 -10.490  10.822  1.00  0.00     0.012 A 
HETATM   19  C   UNL     1      43.061 -10.391  12.039  1.00  0.00     0.038 A 
HETATM   20  C   UNL     1      41.872  -9.662  12.134  1.00  0.00     0.076 A 
HETATM   21  C   UNL     1      41.355  -9.038  10.988  1.00  0.00    -0.000 A 
HETATM   22  C   UNL     1      42.073  -9.116   9.777  1.00  0.00     0.021 A 
BRANCH  20  23
HETATM   23  O   UNL     1      41.149  -9.498  13.284  1.00  0.00    -0.355 OA
HETATM   24  C   UNL     1      41.797  -8.904  14.402  1.00  0.00     0.210 C 
ENDBRANCH  20  23
BRANCH  21  25
HETATM   25  C   UNL     1      40.042  -8.278  11.012  1.00  0.00     0.217 C 
BRANCH  25  26
HETATM   26  O   UNL     1      40.351  -6.885  10.905  1.00  0.00    -0.347 OA
BRANCH  26  27
HETATM   27  C   UNL     1      40.677  -6.231  12.059  1.00  0.00     0.069 A 
HETATM   28  C   UNL     1      39.666  -6.197  13.018  1.00  0.00     0.039 A 
HETATM   29  C   UNL     1      39.860  -5.548  14.243  1.00  0.00     0.032 A 
HETATM   30  C   UNL     1      41.069  -4.914  14.523  1.00  0.00     0.034 A 
HETATM   31  C   UNL     1      42.082  -4.948  13.555  1.00  0.00     0.032 A 
HETATM   32  C   UNL     1      41.889  -5.601  12.330  1.00  0.00     0.039 A 
BRANCH  30  33
HETATM   33  N   UNL     1      41.346  -4.233  15.727  1.00  0.00    -0.328 N 
HETATM   34  C   UNL     1      41.695  -4.789  16.944  1.00  0.00     0.218 C 
HETATM   35  C   UNL     1      41.917  -3.757  18.025  1.00  0.00     0.117 C 
HETATM   36  O   UNL     1      41.823  -5.983  17.195  1.00  0.00    -0.274 OA
HETATM   37  H   UNL     1      41.274  -3.224  15.689  1.00  0.00     0.169 HD
ENDBRANCH  30  33
ENDBRANCH  26  27
ENDBRANCH  25  26
ENDBRANCH  21  25
ENDBRANCH   1  17
BRANCH  15  38
HETATM   38  O   UNL     1      41.949 -14.530   2.908  1.00  0.00    -0.347 OA
BRANCH  38  39
HETATM   39  C   UNL     1      41.293 -15.776   3.130  1.00  0.00     0.214 C 
BRANCH  39  40
HETATM   40  C   UNL     1      42.341 -16.825   3.410  1.00  0.00    -0.034 A 
HETATM   41  C   UNL     1      42.793 -17.682   2.397  1.00  0.00     0.009 A 
HETATM   42  C   UNL     1      43.767 -18.645   2.667  1.00  0.00     0.001 A 
HETATM   43  C   UNL     1      44.295 -18.764   3.951  1.00  0.00     0.000 A 
HETATM   44  C   UNL     1      43.848 -17.923   4.968  1.00  0.00     0.001 A 
HETATM   45  C   UNL     1      42.875 -16.960   4.701  1.00  0.00     0.009 A 
ENDBRANCH  39  40
ENDBRANCH  38  39
ENDBRANCH  15  38
TORSDOF 9
ENDMDL
MODEL 3
REMARK VINA RESULT:      -9.5      2.357      5.361
REMARK  9 active torsions:
REMARK  status: ('A' for Active; 'I' for Inactive)
REMARK       I    between atoms: C_2  and  N_3 
REMARK    1  A    between atoms: N_3  and  C_4 
REMARK    2  A    between atoms: C_7  and  O_8 
REMARK    3  A    between atoms: O_8  and  C_9 
REMARK    4  A    between atoms: C_9  and  C_10 
REMARK    5  A    between atoms: C_11  and  O_12 
REMARK    6  A    between atoms: C_16  and  C_17 
REMARK    7  A    between atoms: C_31  and  O_32 
REMARK    8  A    between atoms: O_32  and  C_33 
REMARK    9  A    between atoms: C_33  and  C_34 
ROOT
HETATM    1  C   UNL     1      44.129  -9.310   8.901  1.00  0.00     0.269 C 
HETATM    2  N   UNL     1      45.603  -9.501   9.162  1.00  0.00    -0.061 N 
HETATM    3  H   UNL     1      45.713 -10.344   9.734  1.00  0.00     0.278 HD
HETATM    4  H   UNL     1      45.932  -8.714   9.732  1.00  0.00     0.278 HD
HETATM    5  C   UNL     1      46.427  -9.645   7.906  1.00  0.00     0.238 C 
HETATM    6  C   UNL     1      46.021 -10.906   7.119  1.00  0.00     0.069 C 
HETATM    7  C   UNL     1      44.536 -11.030   7.052  1.00  0.00    -0.019 A 
HETATM    8  C   UNL     1      43.701 -10.320   7.895  1.00  0.00     0.052 A 
HETATM    9  N   UNL     1      42.406 -10.656   7.594  1.00  0.00    -0.356 N 
HETATM   10  H   UNL     1      41.568 -10.300   8.042  1.00  0.00     0.166 HD
HETATM   11  C   UNL     1      42.395 -11.567   6.560  1.00  0.00     0.043 A 
HETATM   12  C   UNL     1      43.720 -11.816   6.195  1.00  0.00     0.002 A 
HETATM   13  C   UNL     1      41.314 -12.180   5.923  1.00  0.00     0.033 A 
HETATM   14  C   UNL     1      41.598 -13.066   4.880  1.00  0.00     0.039 A 
HETATM   15  C   UNL     1      42.908 -13.332   4.479  1.00  0.00     0.070 A 
HETATM   16  C   UNL     1      43.980 -12.715   5.136  1.00  0.00     0.051 A 
ENDROOT
BRANCH   1  17
HETATM   17  C   UNL     1      43.340  -9.329  10.191  1.00  0.00    -0.021 A 
HETATM   18  C   UNL     1      43.594 -10.252  11.215  1.00  0.00     0.012 A 
HETATM   19  C   UNL     1      42.852 -10.226  12.402  1.00  0.00     0.038 A 
HETATM   20  C   UNL     1      41.823  -9.298  12.584  1.00  0.00     0.076 A 
HETATM   21  C   UNL     1      41.522  -8.394  11.553  1.00  0.00    -0.000 A 
HETATM   22  C   UNL     1      42.299  -8.406  10.376  1.00  0.00     0.021 A 
BRANCH  20  23
HETATM   23  O   UNL     1      41.062  -9.192  13.716  1.00  0.00    -0.355 OA
HETATM   24  C   UNL     1      41.660  -8.621  14.873  1.00  0.00     0.210 C 
ENDBRANCH  20  23
BRANCH  21  25
HETATM   25  C   UNL     1      40.383  -7.399  11.667  1.00  0.00     0.217 C 
BRANCH  25  26
HETATM   26  O   UNL     1      39.206  -8.032  11.154  1.00  0.00    -0.347 OA
BRANCH  26  27
HETATM   27  C   UNL     1      39.213  -8.376   9.832  1.00  0.00     0.069 A 
HETATM   28  C   UNL     1      39.238  -7.299   8.947  1.00  0.00     0.039 A 
HETATM   29  C   UNL     1      39.234  -7.507   7.563  1.00  0.00     0.032 A 
HETATM   30  C   UNL     1      39.196  -8.800   7.043  1.00  0.00     0.034 A 
HETATM   31  C   UNL     1      39.167  -9.879   7.935  1.00  0.00     0.032 A 
HETATM   32  C   UNL     1      39.175  -9.671   9.321  1.00  0.00     0.039 A 
BRANCH  30  33
HETATM   33  N   UNL     1      39.182  -9.098   5.664  1.00  0.00    -0.328 N 
HETATM   34  C   UNL     1      40.245  -9.035   4.782  1.00  0.00     0.218 C 
HETATM   35  C   UNL     1      39.868  -9.423   3.372  1.00  0.00     0.117 C 
HETATM   36  O   UNL     1      41.396  -8.701   5.043  1.00  0.00    -0.274 OA
HETATM   37  H   UNL     1      38.289  -9.385   5.284  1.00  0.00     0.169 HD
ENDBRANCH  30  33
ENDBRANCH  26  27
ENDBRANCH  25  26
ENDBRANCH  21  25
ENDBRANCH   1  17
BRANCH  15  38
HETATM   38  O   UNL     1      43.008 -14.217   3.440  1.00  0.00    -0.347 OA
BRANCH  38  39
HETATM   39  C   UNL     1      42.031 -15.251   3.359  1.00  0.00     0.214 C 
BRANCH  39  40
HETATM   40  C   UNL     1      42.742 -16.583   3.371  1.00  0.00    -0.034 A 
HETATM   41  C   UNL     1      43.578 -16.944   4.436  1.00  0.00     0.009 A 
HETATM   42  C   UNL     1      44.226 -18.181   4.437  1.00  0.00     0.001 A 
HETATM   43  C   UNL     1      44.048 -19.065   3.375  1.00  0.00     0.000 A 
HETATM   44  C   UNL     1      43.225 -18.713   2.307  1.00  0.00     0.001 A 
HETATM   45  C   UNL     1      42.577 -17.478   2.303  1.00  0.00     0.009 A 
ENDBRANCH  39  40
ENDBRANCH  38  39
ENDBRANCH  15  38
TORSDOF 9
ENDMDL
MODEL 4
REMARK VINA RESULT:      -9.5      4.221     11.121
REMARK  9 active torsions:
REMARK  status: ('A' for Active; 'I' for Inactive)
REMARK       I    between atoms: C_2  and  N_3 
REMARK    1  A    between atoms: N_3  and  C_4 
REMARK    2  A    between atoms: C_7  and  O_8 
REMARK    3  A    between atoms: O_8  and  C_9 
REMARK    4  A    between atoms: C_9  and  C_10 
REMARK    5  A    between atoms: C_11  and  O_12 
REMARK    6  A    between atoms: C_16  and  C_17 
REMARK    7  A    between atoms: C_31  and  O_32 
REMARK    8  A    between atoms: O_32  and  C_33 
REMARK    9  A    between atoms: C_33  and  C_34 
ROOT
HETATM    1  C   UNL     1      40.768  -9.578   2.384  1.00  0.00     0.269 C 
HETATM    2  N   UNL     1      39.376  -9.308   2.899  1.00  0.00    -0.061 N 
HETATM    3  H   UNL     1      38.912 -10.212   3.033  1.00  0.00     0.278 HD
HETATM    4  H   UNL     1      38.854  -8.814   2.167  1.00  0.00     0.278 HD
HETATM    5  C   UNL     1      39.350  -8.540   4.198  1.00  0.00     0.238 C 
HETATM    6  C   UNL     1      40.016  -9.345   5.331  1.00  0.00     0.069 C 
HETATM    7  C   UNL     1      41.289  -9.962   4.859  1.00  0.00    -0.019 A 
HETATM    8  C   UNL     1      41.592 -10.087   3.515  1.00  0.00     0.052 A 
HETATM    9  N   UNL     1      42.815 -10.698   3.408  1.00  0.00    -0.356 N 
HETATM   10  H   UNL     1      43.304 -10.927   2.550  1.00  0.00     0.166 HD
HETATM   11  C   UNL     1      43.311 -10.960   4.667  1.00  0.00     0.043 A 
HETATM   12  C   UNL     1      42.375 -10.503   5.599  1.00  0.00     0.002 A 
HETATM   13  C   UNL     1      44.513 -11.560   5.045  1.00  0.00     0.033 A 
HETATM   14  C   UNL     1      44.768 -11.688   6.413  1.00  0.00     0.039 A 
HETATM   15  C   UNL     1      43.863 -11.234   7.374  1.00  0.00     0.070 A 
HETATM   16  C   UNL     1      42.658 -10.643   6.977  1.00  0.00     0.051 A 
ENDROOT
BRANCH   1  17
HETATM   17  C   UNL     1      40.736 -10.481   1.170  1.00  0.00    -0.021 A 
HETATM   18  C   UNL     1      41.071 -10.027  -0.112  1.00  0.00     0.012 A 
HETATM   19  C   UNL     1      41.045 -10.898  -1.209  1.00  0.00     0.038 A 
HETATM   20  C   UNL     1      40.661 -12.233  -1.055  1.00  0.00     0.076 A 
HETATM   21  C   UNL     1      40.279 -12.696   0.214  1.00  0.00    -0.000 A 
HETATM   22  C   UNL     1      40.342 -11.819   1.316  1.00  0.00     0.021 A 
BRANCH  20  23
HETATM   23  O   UNL     1      40.625 -13.154  -2.065  1.00  0.00    -0.355 OA
HETATM   24  C   UNL     1      39.582 -13.051  -3.028  1.00  0.00     0.210 C 
ENDBRANCH  20  23
BRANCH  21  25
HETATM   25  C   UNL     1      39.800 -14.118   0.438  1.00  0.00     0.217 C 
BRANCH  25  26
HETATM   26  O   UNL     1      40.936 -14.979   0.310  1.00  0.00    -0.347 OA
BRANCH  26  27
HETATM   27  C   UNL     1      41.503 -15.433   1.468  1.00  0.00     0.069 A 
HETATM   28  C   UNL     1      40.605 -15.650   2.513  1.00  0.00     0.039 A 
HETATM   29  C   UNL     1      41.051 -16.102   3.760  1.00  0.00     0.032 A 
HETATM   30  C   UNL     1      42.407 -16.335   3.983  1.00  0.00     0.034 A 
HETATM   31  C   UNL     1      43.306 -16.113   2.932  1.00  0.00     0.032 A 
HETATM   32  C   UNL     1      42.859 -15.664   1.682  1.00  0.00     0.039 A 
BRANCH  30  33
HETATM   33  N   UNL     1      42.942 -16.784   5.209  1.00  0.00    -0.328 N 
HETATM   34  C   UNL     1      43.257 -16.019   6.317  1.00  0.00     0.218 C 
HETATM   35  C   UNL     1      43.816 -16.833   7.460  1.00  0.00     0.117 C 
HETATM   36  O   UNL     1      43.130 -14.804   6.429  1.00  0.00    -0.274 OA
HETATM   37  H   UNL     1      43.117 -17.778   5.276  1.00  0.00     0.169 HD
ENDBRANCH  30  33
ENDBRANCH  26  27
ENDBRANCH  25  26
ENDBRANCH  21  25
ENDBRANCH   1  17
BRANCH  15  38
HETATM   38  O   UNL     1      44.270 -11.432   8.666  1.00  0.00    -0.347 OA
BRANCH  38  39
HETATM   39  C   UNL     1      44.977 -10.371   9.304  1.00  0.00     0.214 C 
BRANCH  39  40
HETATM   40  C   UNL     1      44.177  -9.914  10.499  1.00  0.00    -0.034 A 
HETATM   41  C   UNL     1      43.933  -8.553  10.727  1.00  0.00     0.009 A 
HETATM   42  C   UNL     1      43.187  -8.144  11.834  1.00  0.00     0.001 A 
HETATM   43  C   UNL     1      42.680  -9.089  12.724  1.00  0.00     0.000 A 
HETATM   44  C   UNL     1      42.923 -10.444  12.512  1.00  0.00     0.001 A 
HETATM   45  C   UNL     1      43.668 -10.856  11.407  1.00  0.00     0.009 A 
ENDBRANCH  39  40
ENDBRANCH  38  39
ENDBRANCH  15  38
TORSDOF 9
ENDMDL
MODEL 5
REMARK VINA RESULT:      -9.4      1.698      2.234
REMARK  9 active torsions:
REMARK  status: ('A' for Active; 'I' for Inactive)
REMARK       I    between atoms: C_2  and  N_3 
REMARK    1  A    between atoms: N_3  and  C_4 
REMARK    2  A    between atoms: C_7  and  O_8 
REMARK    3  A    between atoms: O_8  and  C_9 
REMARK    4  A    between atoms: C_9  and  C_10 
REMARK    5  A    between atoms: C_11  and  O_12 
REMARK    6  A    between atoms: C_16  and  C_17 
REMARK    7  A    between atoms: C_31  and  O_32 
REMARK    8  A    between atoms: O_32  and  C_33 
REMARK    9  A    between atoms: C_33  and  C_34 
ROOT
HETATM    1  C   UNL     1      42.669 -10.232   6.311  1.00  0.00     0.269 C 
HETATM    2  N   UNL     1      43.914  -9.925   7.107  1.00  0.00    -0.061 N 
HETATM    3  H   UNL     1      43.688 -10.047   8.099  1.00  0.00     0.278 HD
HETATM    4  H   UNL     1      44.142  -8.933   6.976  1.00  0.00     0.278 HD
HETATM    5  C   UNL     1      45.089 -10.804   6.755  1.00  0.00     0.238 C 
HETATM    6  C   UNL     1      44.794 -12.281   7.081  1.00  0.00     0.069 C 
HETATM    7  C   UNL     1      43.424 -12.656   6.627  1.00  0.00    -0.019 A 
HETATM    8  C   UNL     1      42.467 -11.707   6.315  1.00  0.00     0.052 A 
HETATM    9  N   UNL     1      41.322 -12.363   5.943  1.00  0.00    -0.356 N 
HETATM   10  H   UNL     1      40.446 -11.938   5.660  1.00  0.00     0.166 HD
HETATM   11  C   UNL     1      41.531 -13.724   6.001  1.00  0.00     0.043 A 
HETATM   12  C   UNL     1      42.845 -13.938   6.422  1.00  0.00     0.002 A 
HETATM   13  C   UNL     1      40.657 -14.773   5.709  1.00  0.00     0.033 A 
HETATM   14  C   UNL     1      41.146 -16.076   5.843  1.00  0.00     0.039 A 
HETATM   15  C   UNL     1      42.457 -16.329   6.250  1.00  0.00     0.070 A 
HETATM   16  C   UNL     1      43.316 -15.264   6.548  1.00  0.00     0.051 A 
ENDROOT
BRANCH   1  17
HETATM   17  C   UNL     1      41.489  -9.432   6.813  1.00  0.00    -0.021 A 
HETATM   18  C   UNL     1      40.399  -9.106   5.995  1.00  0.00     0.012 A 
HETATM   19  C   UNL     1      39.316  -8.377   6.501  1.00  0.00     0.038 A 
HETATM   20  C   UNL     1      39.307  -7.935   7.828  1.00  0.00     0.076 A 
HETATM   21  C   UNL     1      40.409  -8.212   8.652  1.00  0.00    -0.000 A 
HETATM   22  C   UNL     1      41.478  -8.977   8.141  1.00  0.00     0.021 A 
BRANCH  20  23
HETATM   23  O   UNL     1      38.285  -7.235   8.408  1.00  0.00    -0.355 OA
HETATM   24  C   UNL     1      37.939  -5.972   7.852  1.00  0.00     0.210 C 
ENDBRANCH  20  23
BRANCH  21  25
HETATM   25  C   UNL     1      40.485  -7.715  10.083  1.00  0.00     0.217 C 
BRANCH  25  26
HETATM   26  O   UNL     1      41.670  -8.265  10.666  1.00  0.00    -0.347 OA
BRANCH  26  27
HETATM   27  C   UNL     1      41.757  -8.245  12.030  1.00  0.00     0.069 A 
HETATM   28  C   UNL     1      40.761  -8.963  12.690  1.00  0.00     0.039 A 
HETATM   29  C   UNL     1      40.721  -9.017  14.088  1.00  0.00     0.032 A 
HETATM   30  C   UNL     1      41.675  -8.342  14.848  1.00  0.00     0.034 A 
HETATM   31  C   UNL     1      42.673  -7.619  14.181  1.00  0.00     0.032 A 
HETATM   32  C   UNL     1      42.715  -7.568  12.781  1.00  0.00     0.039 A 
BRANCH  30  33
HETATM   33  N   UNL     1      41.704  -8.337  16.258  1.00  0.00    -0.328 N 
HETATM   34  C   UNL     1      41.040  -7.471  17.108  1.00  0.00     0.218 C 
HETATM   35  C   UNL     1      41.303  -7.756  18.568  1.00  0.00     0.117 C 
HETATM   36  O   UNL     1      40.306  -6.544  16.783  1.00  0.00    -0.274 OA
HETATM   37  H   UNL     1      42.283  -9.046  16.690  1.00  0.00     0.169 HD
ENDBRANCH  30  33
ENDBRANCH  26  27
ENDBRANCH  25  26
ENDBRANCH  21  25
ENDBRANCH   1  17
BRANCH  15  38
HETATM   38  O   UNL     1      42.774 -17.659   6.323  1.00  0.00    -0.347 OA
BRANCH  38  39
HETATM   39  C   UNL     1      44.047 -18.061   5.822  1.00  0.00     0.214 C 
BRANCH  39  40
HETATM   40  C   UNL     1      43.834 -18.833   4.543  1.00  0.00    -0.034 A 
HETATM   41  C   UNL     1      44.032 -20.220   4.496  1.00  0.00     0.009 A 
HETATM   42  C   UNL     1      43.826 -20.924   3.307  1.00  0.00     0.001 A 
HETATM   43  C   UNL     1      43.427 -20.249   2.155  1.00  0.00     0.000 A 
HETATM   44  C   UNL     1      43.235 -18.869   2.188  1.00  0.00     0.001 A 
HETATM   45  C   UNL     1      43.439 -18.164   3.374  1.00  0.00     0.009 A 
ENDBRANCH  39  40
ENDBRANCH  38  39
ENDBRANCH  15  38
TORSDOF 9
ENDMDL
MODEL 6
REMARK VINA RESULT:      -9.3      9.418     12.203
REMARK  9 active torsions:
REMARK  status: ('A' for Active; 'I' for Inactive)
REMARK       I    between atoms: C_2  and  N_3 
REMARK    1  A    between atoms: N_3  and  C_4 
REMARK    2  A    between atoms: C_7  and  O_8 
REMARK    3  A    between atoms: O_8  and  C_9 
REMARK    4  A    between atoms: C_9  and  C_10 
REMARK    5  A    between atoms: C_11  and  O_12 
REMARK    6  A    between atoms: C_16  and  C_17 
REMARK    7  A    between atoms: C_31  and  O_32 
REMARK    8  A    between atoms: O_32  and  C_33 
REMARK    9  A    between atoms: C_33  and  C_34 
ROOT
HETATM    1  C   UNL     1      37.719 -12.619  -2.133  1.00  0.00     0.269 C 
HETATM    2  N   UNL     1      38.143 -13.354  -3.381  1.00  0.00    -0.061 N 
HETATM    3  H   UNL     1      39.035 -12.954  -3.691  1.00  0.00     0.278 HD
HETATM    4  H   UNL     1      37.459 -13.155  -4.119  1.00  0.00     0.278 HD
HETATM    5  C   UNL     1      38.311 -14.840  -3.181  1.00  0.00     0.238 C 
HETATM    6  C   UNL     1      39.436 -15.139  -2.171  1.00  0.00     0.069 C 
HETATM    7  C   UNL     1      39.335 -14.237  -0.987  1.00  0.00    -0.019 A 
HETATM    8  C   UNL     1      38.575 -13.081  -1.007  1.00  0.00     0.052 A 
HETATM    9  N   UNL     1      38.693 -12.473   0.216  1.00  0.00    -0.356 N 
HETATM   10  H   UNL     1      38.253 -11.607   0.506  1.00  0.00     0.166 HD
HETATM   11  C   UNL     1      39.511 -13.227   1.029  1.00  0.00     0.043 A 
HETATM   12  C   UNL     1      39.925 -14.345   0.301  1.00  0.00     0.002 A 
HETATM   13  C   UNL     1      39.909 -13.003   2.349  1.00  0.00     0.033 A 
HETATM   14  C   UNL     1      40.745 -13.954   2.940  1.00  0.00     0.039 A 
HETATM   15  C   UNL     1      41.170 -15.090   2.249  1.00  0.00     0.070 A 
HETATM   16  C   UNL     1      40.769 -15.293   0.923  1.00  0.00     0.051 A 
ENDROOT
BRANCH   1  17
HETATM   17  C   UNL     1      37.719 -11.123  -2.354  1.00  0.00    -0.021 A 
HETATM   18  C   UNL     1      36.753 -10.280  -1.789  1.00  0.00     0.012 A 
HETATM   19  C   UNL     1      36.797  -8.896  -2.003  1.00  0.00     0.038 A 
HETATM   20  C   UNL     1      37.790  -8.326  -2.805  1.00  0.00     0.076 A 
HETATM   21  C   UNL     1      38.741  -9.158  -3.415  1.00  0.00    -0.000 A 
HETATM   22  C   UNL     1      38.707 -10.545  -3.166  1.00  0.00     0.021 A 
BRANCH  20  23
HETATM   23  O   UNL     1      37.918  -6.987  -3.051  1.00  0.00    -0.355 OA
HETATM   24  C   UNL     1      36.896  -6.344  -3.804  1.00  0.00     0.210 C 
ENDBRANCH  20  23
BRANCH  21  25
HETATM   25  C   UNL     1      39.811  -8.608  -4.340  1.00  0.00     0.217 C 
BRANCH  25  26
HETATM   26  O   UNL     1      41.071  -9.110  -3.886  1.00  0.00    -0.347 OA
BRANCH  26  27
HETATM   27  C   UNL     1      41.892  -8.231  -3.237  1.00  0.00     0.069 A 
HETATM   28  C   UNL     1      42.294  -7.135  -4.000  1.00  0.00     0.039 A 
HETATM   29  C   UNL     1      43.146  -6.162  -3.465  1.00  0.00     0.032 A 
HETATM   30  C   UNL     1      43.617  -6.278  -2.158  1.00  0.00     0.034 A 
HETATM   31  C   UNL     1      43.214  -7.382  -1.396  1.00  0.00     0.032 A 
HETATM   32  C   UNL     1      42.357  -8.354  -1.931  1.00  0.00     0.039 A 
BRANCH  30  33
HETATM   33  N   UNL     1      44.483  -5.348  -1.544  1.00  0.00    -0.328 N 
HETATM   34  C   UNL     1      44.183  -4.058  -1.147  1.00  0.00     0.218 C 
HETATM   35  C   UNL     1      45.358  -3.342  -0.523  1.00  0.00     0.117 C 
HETATM   36  O   UNL     1      43.104  -3.487  -1.262  1.00  0.00    -0.274 OA
HETATM   37  H   UNL     1      45.430  -5.667  -1.384  1.00  0.00     0.169 HD
ENDBRANCH  30  33
ENDBRANCH  26  27
ENDBRANCH  25  26
ENDBRANCH  21  25
ENDBRANCH   1  17
BRANCH  15  38
HETATM   38  O   UNL     1      41.979 -15.920   2.977  1.00  0.00    -0.347 OA
BRANCH  38  39
HETATM   39  C   UNL     1      43.174 -16.386   2.357  1.00  0.00     0.214 C 
BRANCH  39  40
HETATM   40  C   UNL     1      43.427 -17.803   2.811  1.00  0.00    -0.034 A 
HETATM   41  C   UNL     1      44.016 -18.068   4.055  1.00  0.00     0.009 A 
HETATM   42  C   UNL     1      44.240 -19.383   4.466  1.00  0.00     0.001 A 
HETATM   43  C   UNL     1      43.882 -20.445   3.638  1.00  0.00     0.000 A 
HETATM   44  C   UNL     1      43.303 -20.194   2.396  1.00  0.00     0.001 A 
HETATM   45  C   UNL     1      43.078 -18.881   1.982  1.00  0.00     0.009 A 
ENDBRANCH  39  40
ENDBRANCH  38  39
ENDBRANCH  15  38
TORSDOF 9
ENDMDL
MODEL 7
REMARK VINA RESULT:      -9.2      6.377     11.372
REMARK  9 active torsions:
REMARK  status: ('A' for Active; 'I' for Inactive)
REMARK       I    between atoms: C_2  and  N_3 
REMARK    1  A    between atoms: N_3  and  C_4 
REMARK    2  A    between atoms: C_7  and  O_8 
REMARK    3  A    between atoms: O_8  and  C_9 
REMARK    4  A    between atoms: C_9  and  C_10 
REMARK    5  A    between atoms: C_11  and  O_12 
REMARK    6  A    between atoms: C_16  and  C_17 
REMARK    7  A    between atoms: C_31  and  O_32 
REMARK    8  A    between atoms: O_32  and  C_33 
REMARK    9  A    between atoms: C_33  and  C_34 
ROOT
HETATM    1  C   UNL     1      43.107 -13.700   6.721  1.00  0.00     0.269 C 
HETATM    2  N   UNL     1      44.443 -13.002   6.796  1.00  0.00    -0.061 N 
HETATM    3  H   UNL     1      44.945 -13.194   5.923  1.00  0.00     0.278 HD
HETATM    4  H   UNL     1      44.988 -13.433   7.550  1.00  0.00     0.278 HD
HETATM    5  C   UNL     1      44.335 -11.509   6.986  1.00  0.00     0.238 C 
HETATM    6  C   UNL     1      43.635 -10.846   5.785  1.00  0.00     0.069 C 
HETATM    7  C   UNL     1      42.434 -11.631   5.377  1.00  0.00    -0.019 A 
HETATM    8  C   UNL     1      42.235 -12.936   5.788  1.00  0.00     0.052 A 
HETATM    9  N   UNL     1      41.056 -13.380   5.244  1.00  0.00    -0.356 N 
HETATM   10  H   UNL     1      40.643 -14.298   5.363  1.00  0.00     0.166 HD
HETATM   11  C   UNL     1      40.488 -12.373   4.494  1.00  0.00     0.043 A 
HETATM   12  C   UNL     1      41.329 -11.260   4.564  1.00  0.00     0.002 A 
HETATM   13  C   UNL     1      39.296 -12.367   3.767  1.00  0.00     0.033 A 
HETATM   14  C   UNL     1      38.952 -11.187   3.101  1.00  0.00     0.039 A 
HETATM   15  C   UNL     1      39.760 -10.051   3.157  1.00  0.00     0.070 A 
HETATM   16  C   UNL     1      40.957 -10.078   3.883  1.00  0.00     0.051 A 
ENDROOT
BRANCH   1  17
HETATM   17  C   UNL     1      43.274 -15.163   6.375  1.00  0.00    -0.021 A 
HETATM   18  C   UNL     1      43.549 -16.138   7.343  1.00  0.00     0.012 A 
HETATM   19  C   UNL     1      43.680 -17.486   6.984  1.00  0.00     0.038 A 
HETATM   20  C   UNL     1      43.566 -17.887   5.650  1.00  0.00     0.076 A 
HETATM   21  C   UNL     1      43.334 -16.920   4.660  1.00  0.00    -0.000 A 
HETATM   22  C   UNL     1      43.170 -15.571   5.036  1.00  0.00     0.021 A 
BRANCH  20  23
HETATM   23  O   UNL     1      43.661 -19.180   5.215  1.00  0.00    -0.355 OA
HETATM   24  C   UNL     1      43.559 -20.220   6.181  1.00  0.00     0.210 C 
ENDBRANCH  20  23
BRANCH  21  25
HETATM   25  C   UNL     1      43.254 -17.282   3.189  1.00  0.00     0.217 C 
BRANCH  25  26
HETATM   26  O   UNL     1      43.487 -16.087   2.438  1.00  0.00    -0.347 OA
BRANCH  26  27
HETATM   27  C   UNL     1      42.399 -15.495   1.860  1.00  0.00     0.069 A 
HETATM   28  C   UNL     1      42.539 -14.130   1.610  1.00  0.00     0.039 A 
HETATM   29  C   UNL     1      41.497 -13.395   1.033  1.00  0.00     0.032 A 
HETATM   30  C   UNL     1      40.292 -14.016   0.706  1.00  0.00     0.034 A 
HETATM   31  C   UNL     1      40.154 -15.386   0.962  1.00  0.00     0.032 A 
HETATM   32  C   UNL     1      41.199 -16.123   1.536  1.00  0.00     0.039 A 
BRANCH  30  33
HETATM   33  N   UNL     1      39.190 -13.350   0.130  1.00  0.00    -0.328 N 
HETATM   34  C   UNL     1      38.918 -13.190  -1.217  1.00  0.00     0.218 C 
HETATM   35  C   UNL     1      37.646 -12.417  -1.476  1.00  0.00     0.117 C 
HETATM   36  O   UNL     1      39.593 -13.598  -2.155  1.00  0.00    -0.274 OA
HETATM   37  H   UNL     1      38.532 -12.942   0.781  1.00  0.00     0.169 HD
ENDBRANCH  30  33
ENDBRANCH  26  27
ENDBRANCH  25  26
ENDBRANCH  21  25
ENDBRANCH   1  17
BRANCH  15  38
HETATM   38  O   UNL     1      39.274  -8.981   2.455  1.00  0.00    -0.347 OA
BRANCH  38  39
HETATM   39  C   UNL     1      38.915  -9.196   1.093  1.00  0.00     0.214 C 
BRANCH  39  40
HETATM   40  C   UNL     1      40.149  -9.024   0.241  1.00  0.00    -0.034 A 
HETATM   41  C   UNL     1      40.831  -7.800   0.197  1.00  0.00     0.009 A 
HETATM   42  C   UNL     1      41.975  -7.655  -0.590  1.00  0.00     0.001 A 
HETATM   43  C   UNL     1      42.445  -8.729  -1.344  1.00  0.00     0.000 A 
HETATM   44  C   UNL     1      41.771  -9.948  -1.315  1.00  0.00     0.001 A 
HETATM   45  C   UNL     1      40.628 -10.095  -0.529  1.00  0.00     0.009 A 
ENDBRANCH  39  40
ENDBRANCH  38  39
ENDBRANCH  15  38
TORSDOF 9
ENDMDL
MODEL 8
REMARK VINA RESULT:      -9.1      2.443      3.562
REMARK  9 active torsions:
REMARK  status: ('A' for Active; 'I' for Inactive)
REMARK       I    between atoms: C_2  and  N_3 
REMARK    1  A    between atoms: N_3  and  C_4 
REMARK    2  A    between atoms: C_7  and  O_8 
REMARK    3  A    between atoms: O_8  and  C_9 
REMARK    4  A    between atoms: C_9  and  C_10 
REMARK    5  A    between atoms: C_11  and  O_12 
REMARK    6  A    between atoms: C_16  and  C_17 
REMARK    7  A    between atoms: C_31  and  O_32 
REMARK    8  A    between atoms: O_32  and  C_33 
REMARK    9  A    between atoms: C_33  and  C_34 
ROOT
HETATM    1  C   UNL     1      44.300  -9.547   8.543  1.00  0.00     0.269 C 
HETATM    2  N   UNL     1      45.722 -10.029   8.692  1.00  0.00    -0.061 N 
HETATM    3  H   UNL     1      45.708 -10.866   9.284  1.00  0.00     0.278 HD
HETATM    4  H   UNL     1      46.250  -9.315   9.205  1.00  0.00     0.278 HD
HETATM    5  C   UNL     1      46.389 -10.362   7.380  1.00  0.00     0.238 C 
HETATM    6  C   UNL     1      45.672 -11.530   6.675  1.00  0.00     0.069 C 
HETATM    7  C   UNL     1      44.193 -11.350   6.732  1.00  0.00    -0.019 A 
HETATM    8  C   UNL     1      43.592 -10.468   7.612  1.00  0.00     0.052 A 
HETATM    9  N   UNL     1      42.235 -10.539   7.427  1.00  0.00    -0.356 N 
HETATM   10  H   UNL     1      41.528 -10.011   7.927  1.00  0.00     0.166 HD
HETATM   11  C   UNL     1      41.953 -11.449   6.431  1.00  0.00     0.043 A 
HETATM   12  C   UNL     1      43.164 -11.970   5.971  1.00  0.00     0.002 A 
HETATM   13  C   UNL     1      40.720 -11.841   5.906  1.00  0.00     0.033 A 
HETATM   14  C   UNL     1      40.730 -12.786   4.876  1.00  0.00     0.039 A 
HETATM   15  C   UNL     1      41.921 -13.321   4.382  1.00  0.00     0.070 A 
HETATM   16  C   UNL     1      43.147 -12.923   4.928  1.00  0.00     0.051 A 
ENDROOT
BRANCH   1  17
HETATM   17  C   UNL     1      43.636  -9.380   9.891  1.00  0.00    -0.021 A 
HETATM   18  C   UNL     1      43.669 -10.378  10.875  1.00  0.00     0.012 A 
HETATM   19  C   UNL     1      43.055 -10.178  12.118  1.00  0.00     0.038 A 
HETATM   20  C   UNL     1      42.374  -8.990  12.399  1.00  0.00     0.076 A 
HETATM   21  C   UNL     1      42.291  -7.996  11.412  1.00  0.00    -0.000 A 
HETATM   22  C   UNL     1      42.941  -8.194  10.176  1.00  0.00     0.021 A 
BRANCH  20  23
HETATM   23  O   UNL     1      41.764  -8.706  13.589  1.00  0.00    -0.355 OA
HETATM   24  C   UNL     1      40.545  -9.373  13.893  1.00  0.00     0.210 C 
ENDBRANCH  20  23
BRANCH  21  25
HETATM   25  C   UNL     1      41.521  -6.708  11.634  1.00  0.00     0.217 C 
BRANCH  25  26
HETATM   26  O   UNL     1      40.210  -6.892  11.090  1.00  0.00    -0.347 OA
BRANCH  26  27
HETATM   27  C   UNL     1      39.199  -6.161  11.648  1.00  0.00     0.069 A 
HETATM   28  C   UNL     1      38.852  -5.010  10.942  1.00  0.00     0.039 A 
HETATM   29  C   UNL     1      37.841  -4.160  11.407  1.00  0.00     0.032 A 
HETATM   30  C   UNL     1      37.168  -4.447  12.593  1.00  0.00     0.034 A 
HETATM   31  C   UNL     1      37.521  -5.603  13.301  1.00  0.00     0.032 A 
HETATM   32  C   UNL     1      38.531  -6.456  12.834  1.00  0.00     0.039 A 
BRANCH  30  33
HETATM   33  N   UNL     1      36.144  -3.643  13.136  1.00  0.00    -0.328 N 
HETATM   34  C   UNL     1      36.262  -2.697  14.138  1.00  0.00     0.218 C 
HETATM   35  C   UNL     1      34.953  -2.023  14.474  1.00  0.00     0.117 C 
HETATM   36  O   UNL     1      37.286  -2.391  14.740  1.00  0.00    -0.274 OA
HETATM   37  H   UNL     1      35.220  -3.783  12.747  1.00  0.00     0.169 HD
ENDBRANCH  30  33
ENDBRANCH  26  27
ENDBRANCH  25  26
ENDBRANCH  21  25
ENDBRANCH   1  17
BRANCH  15  38
HETATM   38  O   UNL     1      41.751 -14.228   3.371  1.00  0.00    -0.347 OA
BRANCH  38  39
HETATM   39  C   UNL     1      42.912 -14.643   2.656  1.00  0.00     0.214 C 
BRANCH  39  40
HETATM   40  C   UNL     1      43.173 -16.096   2.969  1.00  0.00    -0.034 A 
HETATM   41  C   UNL     1      42.957 -17.091   2.006  1.00  0.00     0.009 A 
HETATM   42  C   UNL     1      43.208 -18.432   2.306  1.00  0.00     0.001 A 
HETATM   43  C   UNL     1      43.671 -18.791   3.570  1.00  0.00     0.000 A 
HETATM   44  C   UNL     1      43.881 -17.811   4.538  1.00  0.00     0.001 A 
HETATM   45  C   UNL     1      43.632 -16.471   4.241  1.00  0.00     0.009 A 
ENDBRANCH  39  40
ENDBRANCH  38  39
ENDBRANCH  15  38
TORSDOF 9
ENDMDL
MODEL 9
REMARK VINA RESULT:      -8.9      4.075      7.149
REMARK  9 active torsions:
REMARK  status: ('A' for Active; 'I' for Inactive)
REMARK       I    between atoms: C_2  and  N_3 
REMARK    1  A    between atoms: N_3  and  C_4 
REMARK    2  A    between atoms: C_7  and  O_8 
REMARK    3  A    between atoms: O_8  and  C_9 
REMARK    4  A    between atoms: C_9  and  C_10 
REMARK    5  A    between atoms: C_11  and  O_12 
REMARK    6  A    between atoms: C_16  and  C_17 
REMARK    7  A    between atoms: C_31  and  O_32 
REMARK    8  A    between atoms: O_32  and  C_33 
REMARK    9  A    between atoms: C_33  and  C_34 
ROOT
HETATM    1  C   UNL     1      38.827 -12.836   1.413  1.00  0.00     0.269 C 
HETATM    2  N   UNL     1      39.487 -13.188   0.103  1.00  0.00    -0.061 N 
HETATM    3  H   UNL     1      40.353 -12.645   0.034  1.00  0.00     0.278 HD
HETATM    4  H   UNL     1      38.877 -12.869  -0.658  1.00  0.00     0.278 HD
HETATM    5  C   UNL     1      39.809 -14.655  -0.037  1.00  0.00     0.238 C 
HETATM    6  C   UNL     1      40.831 -15.102   1.026  1.00  0.00     0.069 C 
HETATM    7  C   UNL     1      40.477 -14.543   2.363  1.00  0.00    -0.019 A 
HETATM    8  C   UNL     1      39.590 -13.492   2.510  1.00  0.00     0.052 A 
HETATM    9  N   UNL     1      39.483 -13.208   3.847  1.00  0.00    -0.356 N 
HETATM   10  H   UNL     1      38.909 -12.486   4.268  1.00  0.00     0.166 HD
HETATM   11  C   UNL     1      40.283 -14.069   4.567  1.00  0.00     0.043 A 
HETATM   12  C   UNL     1      40.916 -14.924   3.661  1.00  0.00     0.002 A 
HETATM   13  C   UNL     1      40.487 -14.154   5.945  1.00  0.00     0.033 A 
HETATM   14  C   UNL     1      41.355 -15.147   6.408  1.00  0.00     0.039 A 
HETATM   15  C   UNL     1      41.996 -16.027   5.535  1.00  0.00     0.070 A 
HETATM   16  C   UNL     1      41.787 -15.920   4.155  1.00  0.00     0.051 A 
ENDROOT
BRANCH   1  17
HETATM   17  C   UNL     1      38.671 -11.339   1.562  1.00  0.00    -0.021 A 
HETATM   18  C   UNL     1      37.653 -10.622   0.919  1.00  0.00     0.012 A 
HETATM   19  C   UNL     1      37.531  -9.237   1.095  1.00  0.00     0.038 A 
HETATM   20  C   UNL     1      38.437  -8.534   1.894  1.00  0.00     0.076 A 
HETATM   21  C   UNL     1      39.491  -9.227   2.510  1.00  0.00    -0.000 A 
HETATM   22  C   UNL     1      39.583 -10.625   2.354  1.00  0.00     0.021 A 
BRANCH  20  23
HETATM   23  O   UNL     1      38.382  -7.189   2.134  1.00  0.00    -0.355 OA
HETATM   24  C   UNL     1      38.599  -6.305   1.041  1.00  0.00     0.210 C 
ENDBRANCH  20  23
BRANCH  21  25
HETATM   25  C   UNL     1      40.539  -8.514   3.345  1.00  0.00     0.217 C 
BRANCH  25  26
HETATM   26  O   UNL     1      41.567  -9.463   3.645  1.00  0.00    -0.347 OA
BRANCH  26  27
HETATM   27  C   UNL     1      41.921  -9.600   4.957  1.00  0.00     0.069 A 
HETATM   28  C   UNL     1      42.687 -10.730   5.242  1.00  0.00     0.039 A 
HETATM   29  C   UNL     1      43.109 -11.002   6.548  1.00  0.00     0.032 A 
HETATM   30  C   UNL     1      42.760 -10.149   7.594  1.00  0.00     0.034 A 
HETATM   31  C   UNL     1      41.987  -9.017   7.305  1.00  0.00     0.032 A 
HETATM   32  C   UNL     1      41.569  -8.743   5.996  1.00  0.00     0.039 A 
BRANCH  30  33
HETATM   33  N   UNL     1      43.135 -10.352   8.939  1.00  0.00    -0.328 N 
HETATM   34  C   UNL     1      44.254  -9.854   9.581  1.00  0.00     0.218 C 
HETATM   35  C   UNL     1      44.342 -10.275  11.029  1.00  0.00     0.117 C 
HETATM   36  O   UNL     1      45.128  -9.146   9.090  1.00  0.00    -0.274 OA
HETATM   37  H   UNL     1      42.513 -10.931   9.488  1.00  0.00     0.169 HD
ENDBRANCH  30  33
ENDBRANCH  26  27
ENDBRANCH  25  26
ENDBRANCH  21  25
ENDBRANCH   1  17
BRANCH  15  38
HETATM   38  O   UNL     1      42.806 -16.941   6.154  1.00  0.00    -0.347 OA
BRANCH  38  39
HETATM   39  C   UNL     1      44.078 -17.201   5.565  1.00  0.00     0.214 C 
BRANCH  39  40
HETATM   40  C   UNL     1      44.005 -18.518   4.832  1.00  0.00    -0.034 A 
HETATM   41  C   UNL     1      43.999 -19.733   5.531  1.00  0.00     0.009 A 
HETATM   42  C   UNL     1      43.925 -20.945   4.841  1.00  0.00     0.001 A 
HETATM   43  C   UNL     1      43.862 -20.955   3.449  1.00  0.00     0.000 A 
HETATM   44  C   UNL     1      43.875 -19.753   2.743  1.00  0.00     0.001 A 
HETATM   45  C   UNL     1      43.949 -18.541   3.430  1.00  0.00     0.009 A 
ENDBRANCH  39  40
ENDBRANCH  38  39
ENDBRANCH  15  38
TORSDOF 9
ENDMDL
MODEL 10
REMARK VINA RESULT:      -8.9      4.948      8.986
REMARK  9 active torsions:
REMARK  status: ('A' for Active; 'I' for Inactive)
REMARK       I    between atoms: C_2  and  N_3 
REMARK    1  A    between atoms: N_3  and  C_4 
REMARK    2  A    between atoms: C_7  and  O_8 
REMARK    3  A    between atoms: O_8  and  C_9 
REMARK    4  A    between atoms: C_9  and  C_10 
REMARK    5  A    between atoms: C_11  and  O_12 
REMARK    6  A    between atoms: C_16  and  C_17 
REMARK    7  A    between atoms: C_31  and  O_32 
REMARK    8  A    between atoms: O_32  and  C_33 
REMARK    9  A    between atoms: C_33  and  C_34 
ROOT
HETATM    1  C   UNL     1      42.440 -10.157   6.022  1.00  0.00     0.269 C 
HETATM    2  N   UNL     1      43.391  -9.794   7.136  1.00  0.00    -0.061 N 
HETATM    3  H   UNL     1      42.893  -9.918   8.024  1.00  0.00     0.278 HD
HETATM    4  H   UNL     1      43.609  -8.794   7.058  1.00  0.00     0.278 HD
HETATM    5  C   UNL     1      44.649 -10.626   7.153  1.00  0.00     0.238 C 
HETATM    6  C   UNL     1      44.328 -12.111   7.408  1.00  0.00     0.069 C 
HETATM    7  C   UNL     1      43.162 -12.545   6.585  1.00  0.00    -0.019 A 
HETATM    8  C   UNL     1      42.300 -11.639   5.995  1.00  0.00     0.052 A 
HETATM    9  N   UNL     1      41.336 -12.344   5.321  1.00  0.00    -0.356 N 
HETATM   10  H   UNL     1      40.563 -11.956   4.790  1.00  0.00     0.166 HD
HETATM   11  C   UNL     1      41.570 -13.694   5.462  1.00  0.00     0.043 A 
HETATM   12  C   UNL     1      42.714 -13.851   6.247  1.00  0.00     0.002 A 
HETATM   13  C   UNL     1      40.857 -14.780   4.950  1.00  0.00     0.033 A 
HETATM   14  C   UNL     1      41.335 -16.061   5.243  1.00  0.00     0.039 A 
HETATM   15  C   UNL     1      42.482 -16.258   6.014  1.00  0.00     0.070 A 
HETATM   16  C   UNL     1      43.178 -15.157   6.527  1.00  0.00     0.051 A 
ENDROOT
BRANCH   1  17
HETATM   17  C   UNL     1      41.136  -9.402   6.149  1.00  0.00    -0.021 A 
HETATM   18  C   UNL     1      40.713  -8.829   7.355  1.00  0.00     0.012 A 
HETATM   19  C   UNL     1      39.506  -8.122   7.428  1.00  0.00     0.038 A 
HETATM   20  C   UNL     1      38.681  -7.994   6.307  1.00  0.00     0.076 A 
HETATM   21  C   UNL     1      39.065  -8.598   5.100  1.00  0.00    -0.000 A 
HETATM   22  C   UNL     1      40.299  -9.278   5.029  1.00  0.00     0.021 A 
BRANCH  20  23
HETATM   23  O   UNL     1      37.499  -7.308   6.285  1.00  0.00    -0.355 OA
HETATM   24  C   UNL     1      37.497  -5.961   6.743  1.00  0.00     0.210 C 
ENDBRANCH  20  23
BRANCH  21  25
HETATM   25  C   UNL     1      38.190  -8.543   3.862  1.00  0.00     0.217 C 
BRANCH  25  26
HETATM   26  O   UNL     1      39.057  -8.507   2.724  1.00  0.00    -0.347 OA
BRANCH  26  27
HETATM   27  C   UNL     1      39.112  -9.632   1.950  1.00  0.00     0.069 A 
HETATM   28  C   UNL     1      37.876 -10.227   1.695  1.00  0.00     0.039 A 
HETATM   29  C   UNL     1      37.786 -11.393   0.926  1.00  0.00     0.032 A 
HETATM   30  C   UNL     1      38.936 -11.988   0.409  1.00  0.00     0.034 A 
HETATM   31  C   UNL     1      40.175 -11.390   0.670  1.00  0.00     0.032 A 
HETATM   32  C   UNL     1      40.265 -10.220   1.437  1.00  0.00     0.039 A 
BRANCH  30  33
HETATM   33  N   UNL     1      38.936 -13.166  -0.368  1.00  0.00    -0.328 N 
HETATM   34  C   UNL     1      38.725 -13.272  -1.730  1.00  0.00     0.218 C 
HETATM   35  C   UNL     1      38.794 -14.695  -2.231  1.00  0.00     0.117 C 
HETATM   36  O   UNL     1      38.495 -12.354  -2.510  1.00  0.00    -0.274 OA
HETATM   37  H   UNL     1      39.105 -14.027   0.137  1.00  0.00     0.169 HD
ENDBRANCH  30  33
ENDBRANCH  26  27
ENDBRANCH  25  26
ENDBRANCH  21  25
ENDBRANCH   1  17
BRANCH  15  38
HETATM   38  O   UNL     1      42.814 -17.573   6.200  1.00  0.00    -0.347 OA
BRANCH  38  39
HETATM   39  C   UNL     1      44.083 -18.006   5.717  1.00  0.00     0.214 C 
BRANCH  39  40
HETATM   40  C   UNL     1      43.866 -18.803   4.453  1.00  0.00    -0.034 A 
HETATM   41  C   UNL     1      43.484 -18.174   3.261  1.00  0.00     0.009 A 
HETATM   42  C   UNL     1      43.292 -18.922   2.097  1.00  0.00     0.001 A 
HETATM   43  C   UNL     1      43.476 -20.303   2.115  1.00  0.00     0.000 A 
HETATM   44  C   UNL     1      43.848 -20.940   3.297  1.00  0.00     0.001 A 
HETATM   45  C   UNL     1      44.040 -20.196   4.461  1.00  0.00     0.009 A 
ENDBRANCH  39  40
ENDBRANCH  38  39
ENDBRANCH  15  38
TORSDOF 9
ENDMDL
