MODEL 1
REMARK VINA RESULT:      -8.8      0.000      0.000
REMARK  4 active torsions:
REMARK  status: ('A' for Active; 'I' for Inactive)
REMARK    1  A    between atoms: C_4  and  C_5 
REMARK    2  A    between atoms: C_8  and  C_9 
REMARK    3  A    between atoms: C_9  and  N_10 
REMARK       I    between atoms: N_10  and  C_11 
REMARK       I    between atoms: C_11  and  N_12 
REMARK    4  A    between atoms: N_12  and  C_13 
ROOT
HETATM    1  C   UNL     1      42.163 -12.288   3.747  1.00  0.00     0.213 C 
ENDROOT
BRANCH   1   2
HETATM    2  C   UNL     1      42.667 -13.620   3.342  1.00  0.00     0.190 A 
HETATM    3  O   UNL     1      42.901 -13.810   2.014  1.00  0.00    -0.194 OA
HETATM    4  N   UNL     1      43.286 -15.140   1.866  1.00  0.00    -0.106 NA
HETATM    5  C   UNL     1      43.242 -15.631   3.118  1.00  0.00     0.189 A 
HETATM    6  N   UNL     1      42.886 -14.694   4.068  1.00  0.00    -0.202 NA
BRANCH   5   7
HETATM    7  C   UNL     1      43.503 -17.027   3.455  1.00  0.00     0.015 A 
HETATM    8  C   UNL     1      43.341 -18.034   2.489  1.00  0.00     0.022 A 
HETATM    9  C   UNL     1      43.609 -19.378   2.790  1.00  0.00    -0.061 A 
HETATM   10  C   UNL     1      43.456 -20.445   1.747  1.00  0.00     0.048 C 
HETATM   11  C   UNL     1      44.059 -19.712   4.071  1.00  0.00     0.007 A 
HETATM   12  C   UNL     1      44.225 -18.724   5.041  1.00  0.00     0.002 A 
HETATM   13  C   UNL     1      43.946 -17.390   4.736  1.00  0.00     0.015 A 
ENDBRANCH   5   7
ENDBRANCH   1   2
BRANCH   1  14
HETATM   14  N   UNL     1      42.815 -11.833   4.959  1.00  0.00    -0.335 N 
HETATM   15  C   UNL     1      42.081 -11.788   6.104  1.00  0.00     0.321 C 
HETATM   16  N   UNL     1      42.714 -11.450   7.257  1.00  0.00    -0.309 N 
HETATM   17  O   UNL     1      40.889 -12.090   6.136  1.00  0.00    -0.247 OA
HETATM   18  H   UNL     1      42.123 -11.639   8.058  1.00  0.00     0.170 HD
HETATM   19  H   UNL     1      43.768 -12.140   5.100  1.00  0.00     0.164 HD
BRANCH  16  20
HETATM   20  C   UNL     1      43.945 -10.829   7.532  1.00  0.00     0.036 A 
HETATM   21  C   UNL     1      45.193 -11.375   7.232  1.00  0.00     0.029 A 
HETATM   22  C   UNL     1      46.365 -10.665   7.519  1.00  0.00     0.002 A 
HETATM   23  C   UNL     1      46.296  -9.399   8.096  1.00  0.00     0.000 A 
HETATM   24  C   UNL     1      45.057  -8.835   8.378  1.00  0.00     0.002 A 
HETATM   25  C   UNL     1      43.888  -9.544   8.090  1.00  0.00     0.029 A 
ENDBRANCH  16  20
ENDBRANCH   1  14
TORSDOF 4
ENDMDL
MODEL 2
REMARK VINA RESULT:      -8.7      3.305      5.488
REMARK  4 active torsions:
REMARK  status: ('A' for Active; 'I' for Inactive)
REMARK    1  A    between atoms: C_4  and  C_5 
REMARK    2  A    between atoms: C_8  and  C_9 
REMARK    3  A    between atoms: C_9  and  N_10 
REMARK       I    between atoms: N_10  and  C_11 
REMARK       I    between atoms: C_11  and  N_12 
REMARK    4  A    between atoms: N_12  and  C_13 
ROOT
HETATM    1  C   UNL     1      42.526 -13.783   5.759  1.00  0.00     0.213 C 
ENDROOT
BRANCH   1   2
HETATM    2  C   UNL     1      43.120 -15.139   5.793  1.00  0.00     0.190 A 
HETATM    3  O   UNL     1      44.279 -15.284   6.493  1.00  0.00    -0.194 OA
HETATM    4  N   UNL     1      44.684 -16.605   6.319  1.00  0.00    -0.106 NA
HETATM    5  C   UNL     1      43.736 -17.133   5.525  1.00  0.00     0.189 A 
HETATM    6  N   UNL     1      42.726 -16.247   5.204  1.00  0.00    -0.202 NA
BRANCH   5   7
HETATM    7  C   UNL     1      43.771 -18.498   5.010  1.00  0.00     0.015 A 
HETATM    8  C   UNL     1      43.741 -18.735   3.626  1.00  0.00     0.022 A 
HETATM    9  C   UNL     1      43.796 -20.040   3.112  1.00  0.00    -0.061 A 
HETATM   10  C   UNL     1      43.787 -20.286   1.632  1.00  0.00     0.048 C 
HETATM   11  C   UNL     1      43.897 -21.117   3.999  1.00  0.00     0.007 A 
HETATM   12  C   UNL     1      43.927 -20.897   5.375  1.00  0.00     0.002 A 
HETATM   13  C   UNL     1      43.861 -19.596   5.878  1.00  0.00     0.015 A 
ENDBRANCH   5   7
ENDBRANCH   1   2
BRANCH   1  14
HETATM   14  N   UNL     1      41.599 -13.650   4.652  1.00  0.00    -0.335 N 
HETATM   15  C   UNL     1      40.272 -13.557   4.935  1.00  0.00     0.321 C 
HETATM   16  N   UNL     1      39.413 -13.341   3.905  1.00  0.00    -0.309 N 
HETATM   17  O   UNL     1      39.836 -13.610   6.083  1.00  0.00    -0.247 OA
HETATM   18  H   UNL     1      38.493 -13.097   4.253  1.00  0.00     0.170 HD
HETATM   19  H   UNL     1      41.894 -13.059   3.887  1.00  0.00     0.164 HD
BRANCH  16  20
HETATM   20  C   UNL     1      39.529 -13.477   2.510  1.00  0.00     0.036 A 
HETATM   21  C   UNL     1      39.363 -12.436   1.596  1.00  0.00     0.029 A 
HETATM   22  C   UNL     1      39.527 -12.665   0.224  1.00  0.00     0.002 A 
HETATM   23  C   UNL     1      39.872 -13.932  -0.240  1.00  0.00     0.000 A 
HETATM   24  C   UNL     1      40.064 -14.971   0.664  1.00  0.00     0.002 A 
HETATM   25  C   UNL     1      39.900 -14.742   2.033  1.00  0.00     0.029 A 
ENDBRANCH  16  20
ENDBRANCH   1  14
TORSDOF 4
ENDMDL
MODEL 3
REMARK VINA RESULT:      -8.5      4.326      7.129
REMARK  4 active torsions:
REMARK  status: ('A' for Active; 'I' for Inactive)
REMARK    1  A    between atoms: C_4  and  C_5 
REMARK    2  A    between atoms: C_8  and  C_9 
REMARK    3  A    between atoms: C_9  and  N_10 
REMARK       I    between atoms: N_10  and  C_11 
REMARK       I    between atoms: C_11  and  N_12 
REMARK    4  A    between atoms: N_12  and  C_13 
ROOT
HETATM    1  C   UNL     1      39.534 -13.630   3.042  1.00  0.00     0.213 C 
ENDROOT
BRANCH   1   2
HETATM    2  C   UNL     1      40.757 -14.413   3.329  1.00  0.00     0.190 A 
HETATM    3  O   UNL     1      41.927 -13.720   3.406  1.00  0.00    -0.194 OA
HETATM    4  N   UNL     1      42.934 -14.662   3.601  1.00  0.00    -0.106 NA
HETATM    5  C   UNL     1      42.279 -15.837   3.618  1.00  0.00     0.189 A 
HETATM    6  N   UNL     1      40.911 -15.711   3.480  1.00  0.00    -0.202 NA
BRANCH   5   7
HETATM    7  C   UNL     1      42.937 -17.135   3.732  1.00  0.00     0.015 A 
HETATM    8  C   UNL     1      42.863 -18.062   2.679  1.00  0.00     0.022 A 
HETATM    9  C   UNL     1      43.508 -19.306   2.763  1.00  0.00    -0.061 A 
HETATM   10  C   UNL     1      43.444 -20.283   1.627  1.00  0.00     0.048 C 
HETATM   11  C   UNL     1      44.247 -19.614   3.909  1.00  0.00     0.007 A 
HETATM   12  C   UNL     1      44.329 -18.704   4.962  1.00  0.00     0.002 A 
HETATM   13  C   UNL     1      43.676 -17.472   4.875  1.00  0.00     0.015 A 
ENDBRANCH   5   7
ENDBRANCH   1   2
BRANCH   1  14
HETATM   14  N   UNL     1      39.364 -13.438   1.615  1.00  0.00    -0.335 N 
HETATM   15  C   UNL     1      39.650 -12.216   1.093  1.00  0.00     0.321 C 
HETATM   16  N   UNL     1      39.579 -12.062  -0.255  1.00  0.00    -0.309 N 
HETATM   17  O   UNL     1      40.017 -11.270   1.788  1.00  0.00    -0.247 OA
HETATM   18  H   UNL     1      39.996 -11.184  -0.537  1.00  0.00     0.170 HD
HETATM   19  H   UNL     1      39.641 -14.208   1.021  1.00  0.00     0.164 HD
BRANCH  16  20
HETATM   20  C   UNL     1      38.977 -12.817  -1.278  1.00  0.00     0.036 A 
HETATM   21  C   UNL     1      37.692 -12.598  -1.774  1.00  0.00     0.029 A 
HETATM   22  C   UNL     1      37.191 -13.387  -2.817  1.00  0.00     0.002 A 
HETATM   23  C   UNL     1      37.976 -14.391  -3.378  1.00  0.00     0.000 A 
HETATM   24  C   UNL     1      39.267 -14.603  -2.907  1.00  0.00     0.002 A 
HETATM   25  C   UNL     1      39.767 -13.815  -1.867  1.00  0.00     0.029 A 
ENDBRANCH  16  20
ENDBRANCH   1  14
TORSDOF 4
ENDMDL
MODEL 4
REMARK VINA RESULT:      -8.4      1.450      8.493
REMARK  4 active torsions:
REMARK  status: ('A' for Active; 'I' for Inactive)
REMARK    1  A    between atoms: C_4  and  C_5 
REMARK    2  A    between atoms: C_8  and  C_9 
REMARK    3  A    between atoms: C_9  and  N_10 
REMARK       I    between atoms: N_10  and  C_11 
REMARK       I    between atoms: C_11  and  N_12 
REMARK    4  A    between atoms: N_12  and  C_13 
ROOT
HETATM    1  C   UNL     1      42.312 -14.145   4.199  1.00  0.00     0.213 C 
ENDROOT
BRANCH   1   2
HETATM    2  C   UNL     1      43.018 -13.616   5.389  1.00  0.00     0.190 A 
HETATM    3  O   UNL     1      43.008 -14.395   6.505  1.00  0.00    -0.194 OA
HETATM    4  N   UNL     1      43.655 -13.668   7.502  1.00  0.00    -0.106 NA
HETATM    5  C   UNL     1      43.990 -12.515   6.896  1.00  0.00     0.189 A 
HETATM    6  N   UNL     1      43.631 -12.465   5.563  1.00  0.00    -0.202 NA
BRANCH   5   7
HETATM    7  C   UNL     1      44.636 -11.396   7.574  1.00  0.00     0.015 A 
HETATM    8  C   UNL     1      44.113 -10.897   8.778  1.00  0.00     0.022 A 
HETATM    9  C   UNL     1      44.733  -9.836   9.454  1.00  0.00    -0.061 A 
HETATM   10  C   UNL     1      44.182  -9.323  10.752  1.00  0.00     0.048 C 
HETATM   11  C   UNL     1      45.902  -9.281   8.923  1.00  0.00     0.007 A 
HETATM   12  C   UNL     1      46.433  -9.765   7.729  1.00  0.00     0.002 A 
HETATM   13  C   UNL     1      45.803 -10.814   7.056  1.00  0.00     0.015 A 
ENDBRANCH   5   7
ENDBRANCH   1   2
BRANCH   1  14
HETATM   14  N   UNL     1      42.809 -15.458   3.842  1.00  0.00    -0.335 N 
HETATM   15  C   UNL     1      42.999 -15.737   2.525  1.00  0.00     0.321 C 
HETATM   16  N   UNL     1      43.550 -16.933   2.196  1.00  0.00    -0.309 N 
HETATM   17  O   UNL     1      42.738 -14.929   1.635  1.00  0.00    -0.247 OA
HETATM   18  H   UNL     1      43.820 -16.947   1.220  1.00  0.00     0.170 HD
HETATM   19  H   UNL     1      43.519 -15.851   4.446  1.00  0.00     0.164 HD
BRANCH  16  20
HETATM   20  C   UNL     1      43.725 -18.138   2.901  1.00  0.00     0.036 A 
HETATM   21  C   UNL     1      44.158 -18.226   4.225  1.00  0.00     0.029 A 
HETATM   22  C   UNL     1      44.273 -19.473   4.851  1.00  0.00     0.002 A 
HETATM   23  C   UNL     1      43.946 -20.639   4.162  1.00  0.00     0.000 A 
HETATM   24  C   UNL     1      43.492 -20.560   2.850  1.00  0.00     0.002 A 
HETATM   25  C   UNL     1      43.375 -19.316   2.226  1.00  0.00     0.029 A 
ENDBRANCH  16  20
ENDBRANCH   1  14
TORSDOF 4
ENDMDL
MODEL 5
REMARK VINA RESULT:      -8.4      3.672      6.398
REMARK  4 active torsions:
REMARK  status: ('A' for Active; 'I' for Inactive)
REMARK    1  A    between atoms: C_4  and  C_5 
REMARK    2  A    between atoms: C_8  and  C_9 
REMARK    3  A    between atoms: C_9  and  N_10 
REMARK       I    between atoms: N_10  and  C_11 
REMARK       I    between atoms: C_11  and  N_12 
REMARK    4  A    between atoms: N_12  and  C_13 
ROOT
HETATM    1  C   UNL     1      43.050 -12.902   2.850  1.00  0.00     0.213 C 
ENDROOT
BRANCH   1   2
HETATM    2  C   UNL     1      43.078 -14.289   3.367  1.00  0.00     0.190 A 
HETATM    3  O   UNL     1      43.106 -14.439   4.721  1.00  0.00    -0.194 OA
HETATM    4  N   UNL     1      43.209 -15.806   4.966  1.00  0.00    -0.106 NA
HETATM    5  C   UNL     1      43.239 -16.354   3.738  1.00  0.00     0.189 A 
HETATM    6  N   UNL     1      43.128 -15.431   2.717  1.00  0.00    -0.202 NA
BRANCH   5   7
HETATM    7  C   UNL     1      43.410 -17.781   3.486  1.00  0.00     0.015 A 
HETATM    8  C   UNL     1      43.858 -18.633   4.509  1.00  0.00     0.022 A 
HETATM    9  C   UNL     1      44.008 -20.011   4.291  1.00  0.00    -0.061 A 
HETATM   10  C   UNL     1      44.466 -20.920   5.393  1.00  0.00     0.048 C 
HETATM   11  C   UNL     1      43.689 -20.541   3.036  1.00  0.00     0.007 A 
HETATM   12  C   UNL     1      43.243 -19.708   2.011  1.00  0.00     0.002 A 
HETATM   13  C   UNL     1      43.107 -18.336   2.234  1.00  0.00     0.015 A 
ENDBRANCH   5   7
ENDBRANCH   1   2
BRANCH   1  14
HETATM   14  N   UNL     1      42.162 -12.791   1.710  1.00  0.00    -0.335 N 
HETATM   15  C   UNL     1      40.992 -12.117   1.871  1.00  0.00     0.321 C 
HETATM   16  N   UNL     1      40.203 -11.935   0.781  1.00  0.00    -0.309 N 
HETATM   17  O   UNL     1      40.654 -11.628   2.948  1.00  0.00    -0.247 OA
HETATM   18  H   UNL     1      39.471 -11.263   0.978  1.00  0.00     0.170 HD
HETATM   19  H   UNL     1      42.600 -12.636   0.811  1.00  0.00     0.164 HD
BRANCH  16  20
HETATM   20  C   UNL     1      40.156 -12.545  -0.485  1.00  0.00     0.036 A 
HETATM   21  C   UNL     1      40.833 -12.082  -1.614  1.00  0.00     0.029 A 
HETATM   22  C   UNL     1      40.746 -12.777  -2.827  1.00  0.00     0.002 A 
HETATM   23  C   UNL     1      39.993 -13.946  -2.915  1.00  0.00     0.000 A 
HETATM   24  C   UNL     1      39.333 -14.428  -1.790  1.00  0.00     0.002 A 
HETATM   25  C   UNL     1      39.421 -13.735  -0.580  1.00  0.00     0.029 A 
ENDBRANCH  16  20
ENDBRANCH   1  14
TORSDOF 4
ENDMDL
MODEL 6
REMARK VINA RESULT:      -8.3      4.212      7.617
REMARK  4 active torsions:
REMARK  status: ('A' for Active; 'I' for Inactive)
REMARK    1  A    between atoms: C_4  and  C_5 
REMARK    2  A    between atoms: C_8  and  C_9 
REMARK    3  A    between atoms: C_9  and  N_10 
REMARK       I    between atoms: N_10  and  C_11 
REMARK       I    between atoms: C_11  and  N_12 
REMARK    4  A    between atoms: N_12  and  C_13 
ROOT
HETATM    1  C   UNL     1      40.752 -15.189   4.455  1.00  0.00     0.213 C 
ENDROOT
BRANCH   1   2
HETATM    2  C   UNL     1      40.834 -14.371   3.223  1.00  0.00     0.190 A 
HETATM    3  O   UNL     1      41.151 -13.055   3.381  1.00  0.00    -0.194 OA
HETATM    4  N   UNL     1      41.091 -12.479   2.114  1.00  0.00    -0.106 NA
HETATM    5  C   UNL     1      40.739 -13.499   1.311  1.00  0.00     0.189 A 
HETATM    6  N   UNL     1      40.600 -14.703   1.973  1.00  0.00    -0.202 NA
BRANCH   5   7
HETATM    7  C   UNL     1      40.485 -13.359  -0.120  1.00  0.00     0.015 A 
HETATM    8  C   UNL     1      39.720 -14.320  -0.802  1.00  0.00     0.022 A 
HETATM    9  C   UNL     1      39.448 -14.191  -2.172  1.00  0.00    -0.061 A 
HETATM   10  C   UNL     1      38.612 -15.209  -2.890  1.00  0.00     0.048 C 
HETATM   11  C   UNL     1      39.936 -13.076  -2.861  1.00  0.00     0.007 A 
HETATM   12  C   UNL     1      40.697 -12.114  -2.198  1.00  0.00     0.002 A 
HETATM   13  C   UNL     1      40.971 -12.256  -0.836  1.00  0.00     0.015 A 
ENDBRANCH   5   7
ENDBRANCH   1   2
BRANCH   1  14
HETATM   14  N   UNL     1      41.704 -16.281   4.416  1.00  0.00    -0.335 N 
HETATM   15  C   UNL     1      42.978 -16.036   4.826  1.00  0.00     0.321 C 
HETATM   16  N   UNL     1      43.846 -17.080   4.876  1.00  0.00    -0.309 N 
HETATM   17  O   UNL     1      43.350 -14.925   5.197  1.00  0.00    -0.247 OA
HETATM   18  H   UNL     1      44.689 -16.820   5.374  1.00  0.00     0.170 HD
HETATM   19  H   UNL     1      41.358 -17.191   4.689  1.00  0.00     0.164 HD
BRANCH  16  20
HETATM   20  C   UNL     1      43.835 -18.368   4.312  1.00  0.00     0.036 A 
HETATM   21  C   UNL     1      43.712 -18.635   2.948  1.00  0.00     0.029 A 
HETATM   22  C   UNL     1      43.740 -19.954   2.479  1.00  0.00     0.002 A 
HETATM   23  C   UNL     1      43.904 -21.013   3.369  1.00  0.00     0.000 A 
HETATM   24  C   UNL     1      44.050 -20.757   4.728  1.00  0.00     0.002 A 
HETATM   25  C   UNL     1      44.023 -19.441   5.195  1.00  0.00     0.029 A 
ENDBRANCH  16  20
ENDBRANCH   1  14
TORSDOF 4
ENDMDL
MODEL 7
REMARK VINA RESULT:      -8.3      4.419      7.958
REMARK  4 active torsions:
REMARK  status: ('A' for Active; 'I' for Inactive)
REMARK    1  A    between atoms: C_4  and  C_5 
REMARK    2  A    between atoms: C_8  and  C_9 
REMARK    3  A    between atoms: C_9  and  N_10 
REMARK       I    between atoms: N_10  and  C_11 
REMARK       I    between atoms: C_11  and  N_12 
REMARK    4  A    between atoms: N_12  and  C_13 
ROOT
HETATM    1  C   UNL     1      40.686 -15.273   3.966  1.00  0.00     0.213 C 
ENDROOT
BRANCH   1   2
HETATM    2  C   UNL     1      40.403 -15.006   2.537  1.00  0.00     0.190 A 
HETATM    3  O   UNL     1      39.908 -16.042   1.805  1.00  0.00    -0.194 OA
HETATM    4  N   UNL     1      39.799 -15.585   0.494  1.00  0.00    -0.106 NA
HETATM    5  C   UNL     1      40.244 -14.317   0.555  1.00  0.00     0.189 A 
HETATM    6  N   UNL     1      40.602 -13.916   1.827  1.00  0.00    -0.202 NA
BRANCH   5   7
HETATM    7  C   UNL     1      40.381 -13.444  -0.607  1.00  0.00     0.015 A 
HETATM    8  C   UNL     1      40.947 -12.166  -0.472  1.00  0.00     0.022 A 
HETATM    9  C   UNL     1      41.105 -11.322  -1.581  1.00  0.00    -0.061 A 
HETATM   10  C   UNL     1      41.732  -9.967  -1.434  1.00  0.00     0.048 C 
HETATM   11  C   UNL     1      40.705 -11.774  -2.843  1.00  0.00     0.007 A 
HETATM   12  C   UNL     1      40.141 -13.040  -2.993  1.00  0.00     0.002 A 
HETATM   13  C   UNL     1      39.978 -13.869  -1.881  1.00  0.00     0.015 A 
ENDBRANCH   5   7
ENDBRANCH   1   2
BRANCH   1  14
HETATM   14  N   UNL     1      41.685 -16.312   4.111  1.00  0.00    -0.335 N 
HETATM   15  C   UNL     1      42.964 -15.939   4.385  1.00  0.00     0.321 C 
HETATM   16  N   UNL     1      43.881 -16.916   4.611  1.00  0.00    -0.309 N 
HETATM   17  O   UNL     1      43.301 -14.761   4.483  1.00  0.00    -0.247 OA
HETATM   18  H   UNL     1      44.734 -16.523   4.992  1.00  0.00     0.170 HD
HETATM   19  H   UNL     1      41.394 -17.152   4.595  1.00  0.00     0.164 HD
BRANCH  16  20
HETATM   20  C   UNL     1      43.902 -18.296   4.343  1.00  0.00     0.036 A 
HETATM   21  C   UNL     1      43.997 -19.292   5.316  1.00  0.00     0.029 A 
HETATM   22  C   UNL     1      43.982 -20.643   4.950  1.00  0.00     0.002 A 
HETATM   23  C   UNL     1      43.858 -21.008   3.612  1.00  0.00     0.000 A 
HETATM   24  C   UNL     1      43.739 -20.024   2.636  1.00  0.00     0.002 A 
HETATM   25  C   UNL     1      43.754 -18.676   3.001  1.00  0.00     0.029 A 
ENDBRANCH  16  20
ENDBRANCH   1  14
TORSDOF 4
ENDMDL
MODEL 8
REMARK VINA RESULT:      -8.0      1.892      2.646
REMARK  4 active torsions:
REMARK  status: ('A' for Active; 'I' for Inactive)
REMARK    1  A    between atoms: C_4  and  C_5 
REMARK    2  A    between atoms: C_8  and  C_9 
REMARK    3  A    between atoms: C_9  and  N_10 
REMARK       I    between atoms: N_10  and  C_11 
REMARK       I    between atoms: C_11  and  N_12 
REMARK    4  A    between atoms: N_12  and  C_13 
ROOT
HETATM    1  C   UNL     1      41.338 -12.170   5.834  1.00  0.00     0.213 C 
ENDROOT
BRANCH   1   2
HETATM    2  C   UNL     1      42.068 -13.453   5.706  1.00  0.00     0.190 A 
HETATM    3  O   UNL     1      43.079 -13.675   6.591  1.00  0.00    -0.194 OA
HETATM    4  N   UNL     1      43.660 -14.888   6.232  1.00  0.00    -0.106 NA
HETATM    5  C   UNL     1      42.950 -15.283   5.159  1.00  0.00     0.189 A 
HETATM    6  N   UNL     1      41.926 -14.419   4.825  1.00  0.00    -0.202 NA
BRANCH   5   7
HETATM    7  C   UNL     1      43.242 -16.486   4.386  1.00  0.00     0.015 A 
HETATM    8  C   UNL     1      43.661 -17.660   5.033  1.00  0.00     0.022 A 
HETATM    9  C   UNL     1      43.926 -18.832   4.308  1.00  0.00    -0.061 A 
HETATM   10  C   UNL     1      44.351 -20.090   5.006  1.00  0.00     0.048 C 
HETATM   11  C   UNL     1      43.752 -18.828   2.920  1.00  0.00     0.007 A 
HETATM   12  C   UNL     1      43.337 -17.670   2.264  1.00  0.00     0.002 A 
HETATM   13  C   UNL     1      43.086 -16.505   2.992  1.00  0.00     0.015 A 
ENDBRANCH   5   7
ENDBRANCH   1   2
BRANCH   1  14
HETATM   14  N   UNL     1      42.002 -11.288   6.773  1.00  0.00    -0.335 N 
HETATM   15  C   UNL     1      41.955  -9.949   6.539  1.00  0.00     0.321 C 
HETATM   16  N   UNL     1      42.498  -9.118   7.466  1.00  0.00    -0.309 N 
HETATM   17  O   UNL     1      41.400  -9.471   5.552  1.00  0.00    -0.247 OA
HETATM   18  H   UNL     1      42.234  -8.157   7.282  1.00  0.00     0.170 HD
HETATM   19  H   UNL     1      41.924 -11.532   7.752  1.00  0.00     0.164 HD
BRANCH  16  20
HETATM   20  C   UNL     1      43.394  -9.319   8.532  1.00  0.00     0.036 A 
HETATM   21  C   UNL     1      43.016  -9.666   9.829  1.00  0.00     0.029 A 
HETATM   22  C   UNL     1      43.986  -9.873  10.818  1.00  0.00     0.002 A 
HETATM   23  C   UNL     1      45.339  -9.748  10.512  1.00  0.00     0.000 A 
HETATM   24  C   UNL     1      45.727  -9.426   9.216  1.00  0.00     0.002 A 
HETATM   25  C   UNL     1      44.759  -9.220   8.230  1.00  0.00     0.029 A 
ENDBRANCH  16  20
ENDBRANCH   1  14
TORSDOF 4
ENDMDL
MODEL 9
REMARK VINA RESULT:      -7.8      4.599      6.923
REMARK  4 active torsions:
REMARK  status: ('A' for Active; 'I' for Inactive)
REMARK    1  A    between atoms: C_4  and  C_5 
REMARK    2  A    between atoms: C_8  and  C_9 
REMARK    3  A    between atoms: C_9  and  N_10 
REMARK       I    between atoms: N_10  and  C_11 
REMARK       I    between atoms: C_11  and  N_12 
REMARK    4  A    between atoms: N_12  and  C_13 
ROOT
HETATM    1  C   UNL     1      39.737 -14.141  -0.478  1.00  0.00     0.213 C 
ENDROOT
BRANCH   1   2
HETATM    2  C   UNL     1      40.744 -14.517   0.542  1.00  0.00     0.190 A 
HETATM    3  O   UNL     1      41.617 -13.546   0.929  1.00  0.00    -0.194 OA
HETATM    4  N   UNL     1      42.505 -14.144   1.819  1.00  0.00    -0.106 NA
HETATM    5  C   UNL     1      42.089 -15.422   1.882  1.00  0.00     0.189 A 
HETATM    6  N   UNL     1      40.969 -15.678   1.116  1.00  0.00    -0.202 NA
BRANCH   5   7
HETATM    7  C   UNL     1      42.765 -16.463   2.651  1.00  0.00     0.015 A 
HETATM    8  C   UNL     1      42.898 -17.759   2.127  1.00  0.00     0.022 A 
HETATM    9  C   UNL     1      43.563 -18.766   2.843  1.00  0.00    -0.061 A 
HETATM   10  C   UNL     1      43.722 -20.142   2.268  1.00  0.00     0.048 C 
HETATM   11  C   UNL     1      44.114 -18.462   4.092  1.00  0.00     0.007 A 
HETATM   12  C   UNL     1      43.990 -17.180   4.625  1.00  0.00     0.002 A 
HETATM   13  C   UNL     1      43.317 -16.187   3.911  1.00  0.00     0.015 A 
ENDBRANCH   5   7
ENDBRANCH   1   2
BRANCH   1  14
HETATM   14  N   UNL     1      40.084 -12.884  -1.110  1.00  0.00    -0.335 N 
HETATM   15  C   UNL     1      40.506 -12.911  -2.403  1.00  0.00     0.321 C 
HETATM   16  N   UNL     1      40.744 -11.727  -3.024  1.00  0.00    -0.309 N 
HETATM   17  O   UNL     1      40.628 -13.958  -3.036  1.00  0.00    -0.247 OA
HETATM   18  H   UNL     1      40.859 -11.863  -4.021  1.00  0.00     0.170 HD
HETATM   19  H   UNL     1      39.495 -12.092  -0.892  1.00  0.00     0.164 HD
BRANCH  16  20
HETATM   20  C   UNL     1      40.944 -10.417  -2.552  1.00  0.00     0.036 A 
HETATM   21  C   UNL     1      41.834 -10.067  -1.536  1.00  0.00     0.029 A 
HETATM   22  C   UNL     1      41.984  -8.728  -1.155  1.00  0.00     0.002 A 
HETATM   23  C   UNL     1      41.254  -7.729  -1.795  1.00  0.00     0.000 A 
HETATM   24  C   UNL     1      40.381  -8.064  -2.825  1.00  0.00     0.002 A 
HETATM   25  C   UNL     1      40.233  -9.400  -3.205  1.00  0.00     0.029 A 
ENDBRANCH  16  20
ENDBRANCH   1  14
TORSDOF 4
ENDMDL
MODEL 10
REMARK VINA RESULT:      -7.8      1.843      8.079
REMARK  4 active torsions:
REMARK  status: ('A' for Active; 'I' for Inactive)
REMARK    1  A    between atoms: C_4  and  C_5 
REMARK    2  A    between atoms: C_8  and  C_9 
REMARK    3  A    between atoms: C_9  and  N_10 
REMARK       I    between atoms: N_10  and  C_11 
REMARK       I    between atoms: C_11  and  N_12 
REMARK    4  A    between atoms: N_12  and  C_13 
ROOT
HETATM    1  C   UNL     1      42.163 -11.972   3.881  1.00  0.00     0.213 C 
ENDROOT
BRANCH   1   2
HETATM    2  C   UNL     1      43.039 -11.432   4.947  1.00  0.00     0.190 A 
HETATM    3  O   UNL     1      44.378 -11.431   4.698  1.00  0.00    -0.194 OA
HETATM    4  N   UNL     1      44.996 -10.961   5.854  1.00  0.00    -0.106 NA
HETATM    5  C   UNL     1      43.972 -10.728   6.695  1.00  0.00     0.189 A 
HETATM    6  N   UNL     1      42.733 -10.985   6.144  1.00  0.00    -0.202 NA
BRANCH   5   7
HETATM    7  C   UNL     1      44.137 -10.282   8.076  1.00  0.00     0.015 A 
HETATM    8  C   UNL     1      43.047  -9.751   8.785  1.00  0.00     0.022 A 
HETATM    9  C   UNL     1      43.182  -9.337  10.118  1.00  0.00    -0.061 A 
HETATM   10  C   UNL     1      42.009  -8.791  10.878  1.00  0.00     0.048 C 
HETATM   11  C   UNL     1      44.422  -9.473  10.751  1.00  0.00     0.007 A 
HETATM   12  C   UNL     1      45.513  -9.998  10.061  1.00  0.00     0.002 A 
HETATM   13  C   UNL     1      45.373 -10.398   8.730  1.00  0.00     0.015 A 
ENDBRANCH   5   7
ENDBRANCH   1   2
BRANCH   1  14
HETATM   14  N   UNL     1      42.186 -13.421   3.876  1.00  0.00    -0.335 N 
HETATM   15  C   UNL     1      41.165 -14.081   4.485  1.00  0.00     0.321 C 
HETATM   16  N   UNL     1      41.138 -15.437   4.401  1.00  0.00    -0.309 N 
HETATM   17  O   UNL     1      40.249 -13.495   5.058  1.00  0.00    -0.247 OA
HETATM   18  H   UNL     1      40.245 -15.797   4.716  1.00  0.00     0.170 HD
HETATM   19  H   UNL     1      42.504 -13.864   3.024  1.00  0.00     0.164 HD
BRANCH  16  20
HETATM   20  C   UNL     1      42.107 -16.398   4.062  1.00  0.00     0.036 A 
HETATM   21  C   UNL     1      43.077 -16.889   4.937  1.00  0.00     0.029 A 
HETATM   22  C   UNL     1      43.983 -17.869   4.513  1.00  0.00     0.002 A 
HETATM   23  C   UNL     1      43.916 -18.374   3.217  1.00  0.00     0.000 A 
HETATM   24  C   UNL     1      42.938 -17.909   2.344  1.00  0.00     0.002 A 
HETATM   25  C   UNL     1      42.034 -16.932   2.768  1.00  0.00     0.029 A 
ENDBRANCH  16  20
ENDBRANCH   1  14
TORSDOF 4
ENDMDL
