MODEL 1
REMARK VINA RESULT:      -9.6      0.000      0.000
REMARK  1 active torsions:
REMARK  status: ('A' for Active; 'I' for Inactive)
REMARK    1  A    between atoms: C_4  and  C_5 
REMARK       I    between atoms: C_5  and  N_6 
ROOT
HETATM    1  C   UNL     1      42.778 -15.414   2.203  1.00  0.00     0.275 C 
HETATM    2  N   UNL     1      41.457 -15.420   1.768  1.00  0.00    -0.342 N 
HETATM    3  C   UNL     1      41.164 -14.849   0.443  1.00  0.00     0.167 C 
HETATM    4  C   UNL     1      40.210 -13.706   0.607  1.00  0.00    -0.005 A 
HETATM    5  C   UNL     1      39.524 -13.454   1.781  1.00  0.00     0.020 A 
HETATM    6  N   UNL     1      38.751 -12.344   1.604  1.00  0.00    -0.358 N 
HETATM    7  H   UNL     1      38.160 -11.915   2.303  1.00  0.00     0.166 HD
HETATM    8  C   UNL     1      38.887 -11.886   0.309  1.00  0.00     0.043 A 
HETATM    9  C   UNL     1      39.799 -12.726  -0.339  1.00  0.00     0.000 A 
HETATM   10  C   UNL     1      38.278 -10.801  -0.332  1.00  0.00     0.030 A 
HETATM   11  C   UNL     1      38.604 -10.572  -1.673  1.00  0.00     0.002 A 
HETATM   12  C   UNL     1      39.505 -11.395  -2.344  1.00  0.00     0.001 A 
HETATM   13  C   UNL     1      40.111 -12.473  -1.689  1.00  0.00     0.014 A 
HETATM   14  C   UNL     1      39.647 -14.261   3.030  1.00  0.00     0.077 C 
HETATM   15  C   UNL     1      40.289 -15.619   2.654  1.00  0.00     0.132 C 
HETATM   16  O   UNL     1      43.737 -15.064   1.523  1.00  0.00    -0.266 OA
ENDROOT
BRANCH   1  17
HETATM   17  C   UNL     1      43.076 -15.957   3.590  1.00  0.00     0.156 A 
HETATM   18  N   UNL     1      43.048 -15.116   4.583  1.00  0.00    -0.164 NA
HETATM   19  N   UNL     1      43.294 -15.584   5.851  1.00  0.00    -0.238 N 
HETATM   20  C   UNL     1      43.248 -14.609   6.922  1.00  0.00     0.183 C 
HETATM   21  C   UNL     1      43.634 -16.900   6.154  1.00  0.00     0.274 A 
HETATM   22  C   UNL     1      43.682 -17.842   5.021  1.00  0.00     0.046 A 
HETATM   23  O   UNL     1      43.879 -17.301   7.289  1.00  0.00    -0.266 OA
HETATM   24  C   UNL     1      43.392 -17.388   3.739  1.00  0.00     0.016 A 
HETATM   25  C   UNL     1      44.015 -19.186   5.234  1.00  0.00     0.018 A 
HETATM   26  C   UNL     1      43.424 -18.282   2.662  1.00  0.00     0.015 A 
HETATM   27  C   UNL     1      43.759 -19.623   2.875  1.00  0.00     0.001 A 
HETATM   28  C   UNL     1      44.054 -20.075   4.160  1.00  0.00     0.001 A 
ENDBRANCH   1  17
TORSDOF 1
ENDMDL
MODEL 2
REMARK VINA RESULT:      -9.5      2.433      7.523
REMARK  1 active torsions:
REMARK  status: ('A' for Active; 'I' for Inactive)
REMARK    1  A    between atoms: C_4  and  C_5 
REMARK       I    between atoms: C_5  and  N_6 
ROOT
HETATM    1  C   UNL     1      40.970 -14.252   1.433  1.00  0.00     0.275 C 
HETATM    2  N   UNL     1      42.278 -14.655   1.677  1.00  0.00    -0.342 N 
HETATM    3  C   UNL     1      42.635 -16.053   1.389  1.00  0.00     0.167 C 
HETATM    4  C   UNL     1      43.102 -16.705   2.655  1.00  0.00    -0.005 A 
HETATM    5  C   UNL     1      43.406 -15.998   3.804  1.00  0.00     0.020 A 
HETATM    6  N   UNL     1      43.788 -16.881   4.771  1.00  0.00    -0.358 N 
HETATM    7  H   UNL     1      44.045 -16.647   5.720  1.00  0.00     0.166 HD
HETATM    8  C   UNL     1      43.781 -18.162   4.256  1.00  0.00     0.043 A 
HETATM    9  C   UNL     1      43.354 -18.078   2.927  1.00  0.00     0.000 A 
HETATM   10  C   UNL     1      44.116 -19.379   4.863  1.00  0.00     0.030 A 
HETATM   11  C   UNL     1      44.020 -20.539   4.088  1.00  0.00     0.002 A 
HETATM   12  C   UNL     1      43.603 -20.485   2.761  1.00  0.00     0.001 A 
HETATM   13  C   UNL     1      43.264 -19.263   2.169  1.00  0.00     0.014 A 
HETATM   14  C   UNL     1      43.299 -14.517   3.946  1.00  0.00     0.077 C 
HETATM   15  C   UNL     1      43.234 -13.908   2.523  1.00  0.00     0.132 C 
HETATM   16  O   UNL     1      40.112 -14.946   0.896  1.00  0.00    -0.266 OA
ENDROOT
BRANCH   1  17
HETATM   17  C   UNL     1      40.585 -12.823   1.775  1.00  0.00     0.156 A 
HETATM   18  N   UNL     1      40.686 -11.931   0.832  1.00  0.00    -0.164 NA
HETATM   19  N   UNL     1      40.326 -10.635   1.109  1.00  0.00    -0.238 N 
HETATM   20  C   UNL     1      40.453  -9.681   0.025  1.00  0.00     0.183 C 
HETATM   21  C   UNL     1      39.908 -10.182   2.358  1.00  0.00     0.274 A 
HETATM   22  C   UNL     1      39.815 -11.194   3.425  1.00  0.00     0.046 A 
HETATM   23  O   UNL     1      39.614  -9.014   2.601  1.00  0.00    -0.266 OA
HETATM   24  C   UNL     1      40.136 -12.518   3.145  1.00  0.00     0.016 A 
HETATM   25  C   UNL     1      39.403 -10.826   4.713  1.00  0.00     0.018 A 
HETATM   26  C   UNL     1      40.037 -13.485   4.153  1.00  0.00     0.015 A 
HETATM   27  C   UNL     1      39.628 -13.117   5.438  1.00  0.00     0.001 A 
HETATM   28  C   UNL     1      39.313 -11.789   5.718  1.00  0.00     0.001 A 
ENDBRANCH   1  17
TORSDOF 1
ENDMDL
MODEL 3
REMARK VINA RESULT:      -9.4      1.669      2.838
REMARK  1 active torsions:
REMARK  status: ('A' for Active; 'I' for Inactive)
REMARK    1  A    between atoms: C_4  and  C_5 
REMARK       I    between atoms: C_5  and  N_6 
ROOT
HETATM    1  C   UNL     1      42.924 -15.722   1.856  1.00  0.00     0.275 C 
HETATM    2  N   UNL     1      41.604 -15.597   1.438  1.00  0.00    -0.342 N 
HETATM    3  C   UNL     1      41.252 -14.437   0.602  1.00  0.00     0.167 C 
HETATM    4  C   UNL     1      40.209 -13.628   1.310  1.00  0.00    -0.005 A 
HETATM    5  C   UNL     1      39.516 -14.084   2.417  1.00  0.00     0.020 A 
HETATM    6  N   UNL     1      38.653 -13.110   2.824  1.00  0.00    -0.358 N 
HETATM    7  H   UNL     1      38.036 -13.160   3.623  1.00  0.00     0.166 HD
HETATM    8  C   UNL     1      38.739 -12.029   1.969  1.00  0.00     0.043 A 
HETATM    9  C   UNL     1      39.710 -12.330   1.008  1.00  0.00     0.000 A 
HETATM   10  C   UNL     1      38.037 -10.818   1.975  1.00  0.00     0.030 A 
HETATM   11  C   UNL     1      38.329  -9.893   0.967  1.00  0.00     0.002 A 
HETATM   12  C   UNL     1      39.287 -10.167  -0.005  1.00  0.00     0.001 A 
HETATM   13  C   UNL     1      39.987 -11.380   0.005  1.00  0.00     0.014 A 
HETATM   14  C   UNL     1      39.718 -15.417   3.057  1.00  0.00     0.077 C 
HETATM   15  C   UNL     1      40.465 -16.320   2.045  1.00  0.00     0.132 C 
HETATM   16  O   UNL     1      43.845 -14.996   1.496  1.00  0.00    -0.266 OA
ENDROOT
BRANCH   1  17
HETATM   17  C   UNL     1      43.280 -16.891   2.760  1.00  0.00     0.156 A 
HETATM   18  N   UNL     1      43.435 -18.056   2.201  1.00  0.00    -0.164 NA
HETATM   19  N   UNL     1      43.777 -19.126   2.992  1.00  0.00    -0.238 N 
HETATM   20  C   UNL     1      43.941 -20.401   2.322  1.00  0.00     0.183 C 
HETATM   21  C   UNL     1      43.916 -19.071   4.377  1.00  0.00     0.274 A 
HETATM   22  C   UNL     1      43.719 -17.751   5.003  1.00  0.00     0.046 A 
HETATM   23  O   UNL     1      44.195 -20.041   5.077  1.00  0.00    -0.266 OA
HETATM   24  C   UNL     1      43.416 -16.652   4.207  1.00  0.00     0.016 A 
HETATM   25  C   UNL     1      43.841 -17.604   6.392  1.00  0.00     0.018 A 
HETATM   26  C   UNL     1      43.241 -15.394   4.797  1.00  0.00     0.015 A 
HETATM   27  C   UNL     1      43.360 -15.249   6.183  1.00  0.00     0.001 A 
HETATM   28  C   UNL     1      43.659 -16.352   6.979  1.00  0.00     0.001 A 
ENDBRANCH   1  17
TORSDOF 1
ENDMDL
MODEL 4
REMARK VINA RESULT:      -9.3      2.226      7.796
REMARK  1 active torsions:
REMARK  status: ('A' for Active; 'I' for Inactive)
REMARK    1  A    between atoms: C_4  and  C_5 
REMARK       I    between atoms: C_5  and  N_6 
ROOT
HETATM    1  C   UNL     1      40.890 -14.517   1.188  1.00  0.00     0.275 C 
HETATM    2  N   UNL     1      42.203 -14.858   1.497  1.00  0.00    -0.342 N 
HETATM    3  C   UNL     1      42.620 -16.254   1.287  1.00  0.00     0.167 C 
HETATM    4  C   UNL     1      43.063 -16.830   2.597  1.00  0.00    -0.005 A 
HETATM    5  C   UNL     1      43.299 -16.062   3.722  1.00  0.00     0.020 A 
HETATM    6  N   UNL     1      43.676 -16.885   4.742  1.00  0.00    -0.358 N 
HETATM    7  H   UNL     1      43.889 -16.599   5.688  1.00  0.00     0.166 HD
HETATM    8  C   UNL     1      43.734 -18.187   4.288  1.00  0.00     0.043 A 
HETATM    9  C   UNL     1      43.353 -18.179   2.942  1.00  0.00     0.000 A 
HETATM   10  C   UNL     1      44.090 -19.362   4.961  1.00  0.00     0.030 A 
HETATM   11  C   UNL     1      44.065 -20.559   4.238  1.00  0.00     0.002 A 
HETATM   12  C   UNL     1      43.695 -20.580   2.896  1.00  0.00     0.001 A 
HETATM   13  C   UNL     1      43.334 -19.399   2.237  1.00  0.00     0.014 A 
HETATM   14  C   UNL     1      43.133 -14.580   3.792  1.00  0.00     0.077 C 
HETATM   15  C   UNL     1      43.099 -14.039   2.341  1.00  0.00     0.132 C 
HETATM   16  O   UNL     1      40.079 -15.266   0.654  1.00  0.00    -0.266 OA
ENDROOT
BRANCH   1  17
HETATM   17  C   UNL     1      40.442 -13.089   1.450  1.00  0.00     0.156 A 
HETATM   18  N   UNL     1      39.998 -12.807   2.640  1.00  0.00    -0.164 NA
HETATM   19  N   UNL     1      39.605 -11.519   2.910  1.00  0.00    -0.238 N 
HETATM   20  C   UNL     1      39.121 -11.256   4.251  1.00  0.00     0.183 C 
HETATM   21  C   UNL     1      39.592 -10.486   1.976  1.00  0.00     0.274 A 
HETATM   22  C   UNL     1      40.079 -10.818   0.625  1.00  0.00     0.046 A 
HETATM   23  O   UNL     1      39.213  -9.344   2.222  1.00  0.00    -0.266 OA
HETATM   24  C   UNL     1      40.520 -12.109   0.352  1.00  0.00     0.016 A 
HETATM   25  C   UNL     1      40.101  -9.840  -0.378  1.00  0.00     0.018 A 
HETATM   26  C   UNL     1      40.995 -12.425  -0.926  1.00  0.00     0.015 A 
HETATM   27  C   UNL     1      41.014 -11.449  -1.927  1.00  0.00     0.001 A 
HETATM   28  C   UNL     1      40.567 -10.158  -1.653  1.00  0.00     0.001 A 
ENDBRANCH   1  17
TORSDOF 1
ENDMDL
MODEL 5
REMARK VINA RESULT:      -9.2      3.822      7.176
REMARK  1 active torsions:
REMARK  status: ('A' for Active; 'I' for Inactive)
REMARK    1  A    between atoms: C_4  and  C_5 
REMARK       I    between atoms: C_5  and  N_6 
ROOT
HETATM    1  C   UNL     1      42.689 -14.082   6.082  1.00  0.00     0.275 C 
HETATM    2  N   UNL     1      43.477 -12.938   6.009  1.00  0.00    -0.342 N 
HETATM    3  C   UNL     1      44.072 -12.429   7.255  1.00  0.00     0.167 C 
HETATM    4  C   UNL     1      43.575 -11.037   7.497  1.00  0.00    -0.005 A 
HETATM    5  C   UNL     1      42.907 -10.294   6.540  1.00  0.00     0.020 A 
HETATM    6  N   UNL     1      42.584  -9.082   7.077  1.00  0.00    -0.358 N 
HETATM    7  H   UNL     1      42.073  -8.345   6.612  1.00  0.00     0.166 HD
HETATM    8  C   UNL     1      43.071  -9.002   8.366  1.00  0.00     0.043 A 
HETATM    9  C   UNL     1      43.699 -10.219   8.654  1.00  0.00     0.000 A 
HETATM   10  C   UNL     1      43.003  -7.954   9.292  1.00  0.00     0.030 A 
HETATM   11  C   UNL     1      43.598  -8.152  10.542  1.00  0.00     0.002 A 
HETATM   12  C   UNL     1      44.234  -9.351  10.854  1.00  0.00     0.001 A 
HETATM   13  C   UNL     1      44.289 -10.393   9.922  1.00  0.00     0.014 A 
HETATM   14  C   UNL     1      42.583 -10.771   5.165  1.00  0.00     0.077 C 
HETATM   15  C   UNL     1      43.478 -12.000   4.866  1.00  0.00     0.132 C 
HETATM   16  O   UNL     1      42.535 -14.762   7.091  1.00  0.00    -0.266 OA
ENDROOT
BRANCH   1  17
HETATM   17  C   UNL     1      42.033 -14.582   4.806  1.00  0.00     0.156 A 
HETATM   18  N   UNL     1      41.032 -13.896   4.337  1.00  0.00    -0.164 NA
HETATM   19  N   UNL     1      40.434 -14.314   3.174  1.00  0.00    -0.238 N 
HETATM   20  C   UNL     1      39.325 -13.514   2.691  1.00  0.00     0.183 C 
HETATM   21  C   UNL     1      40.785 -15.467   2.476  1.00  0.00     0.274 A 
HETATM   22  C   UNL     1      41.908 -16.249   3.025  1.00  0.00     0.046 A 
HETATM   23  O   UNL     1      40.224 -15.846   1.450  1.00  0.00    -0.266 OA
HETATM   24  C   UNL     1      42.549 -15.811   4.178  1.00  0.00     0.016 A 
HETATM   25  C   UNL     1      42.329 -17.423   2.386  1.00  0.00     0.018 A 
HETATM   26  C   UNL     1      43.624 -16.544   4.696  1.00  0.00     0.015 A 
HETATM   27  C   UNL     1      44.042 -17.716   4.060  1.00  0.00     0.001 A 
HETATM   28  C   UNL     1      43.395 -18.156   2.907  1.00  0.00     0.001 A 
ENDBRANCH   1  17
TORSDOF 1
ENDMDL
MODEL 6
REMARK VINA RESULT:      -9.1      1.912      2.535
REMARK  1 active torsions:
REMARK  status: ('A' for Active; 'I' for Inactive)
REMARK    1  A    between atoms: C_4  and  C_5 
REMARK       I    between atoms: C_5  and  N_6 
ROOT
HETATM    1  C   UNL     1      42.511 -14.586   2.630  1.00  0.00     0.275 C 
HETATM    2  N   UNL     1      41.155 -14.734   2.358  1.00  0.00    -0.342 N 
HETATM    3  C   UNL     1      40.761 -15.085   0.984  1.00  0.00     0.167 C 
HETATM    4  C   UNL     1      39.879 -14.003   0.441  1.00  0.00    -0.005 A 
HETATM    5  C   UNL     1      39.321 -13.013   1.229  1.00  0.00     0.020 A 
HETATM    6  N   UNL     1      38.585 -12.185   0.433  1.00  0.00    -0.358 N 
HETATM    7  H   UNL     1      38.084 -11.361   0.737  1.00  0.00     0.166 HD
HETATM    8  C   UNL     1      38.616 -12.646  -0.868  1.00  0.00     0.043 A 
HETATM    9  C   UNL     1      39.423 -13.788  -0.889  1.00  0.00     0.000 A 
HETATM   10  C   UNL     1      37.997 -12.141  -2.017  1.00  0.00     0.030 A 
HETATM   11  C   UNL     1      38.201 -12.826  -3.219  1.00  0.00     0.002 A 
HETATM   12  C   UNL     1      38.995 -13.969  -3.270  1.00  0.00     0.001 A 
HETATM   13  C   UNL     1      39.614 -14.459  -2.113  1.00  0.00     0.014 A 
HETATM   14  C   UNL     1      39.529 -12.877   2.701  1.00  0.00     0.077 C 
HETATM   15  C   UNL     1      40.071 -14.229   3.228  1.00  0.00     0.132 C 
HETATM   16  O   UNL     1      43.414 -14.827   1.837  1.00  0.00    -0.266 OA
ENDROOT
BRANCH   1  17
HETATM   17  C   UNL     1      42.917 -14.175   4.036  1.00  0.00     0.156 A 
HETATM   18  N   UNL     1      43.114 -12.908   4.259  1.00  0.00    -0.164 NA
HETATM   19  N   UNL     1      43.463 -12.508   5.525  1.00  0.00    -0.238 N 
HETATM   20  C   UNL     1      43.667 -11.086   5.722  1.00  0.00     0.183 C 
HETATM   21  C   UNL     1      43.682 -13.373   6.594  1.00  0.00     0.274 A 
HETATM   22  C   UNL     1      43.476 -14.808   6.328  1.00  0.00     0.046 A 
HETATM   23  O   UNL     1      44.020 -13.005   7.716  1.00  0.00    -0.266 OA
HETATM   24  C   UNL     1      43.080 -15.221   5.061  1.00  0.00     0.016 A 
HETATM   25  C   UNL     1      43.674 -15.750   7.347  1.00  0.00     0.018 A 
HETATM   26  C   UNL     1      42.871 -16.583   4.807  1.00  0.00     0.015 A 
HETATM   27  C   UNL     1      43.071 -17.522   5.823  1.00  0.00     0.001 A 
HETATM   28  C   UNL     1      43.473 -17.107   7.091  1.00  0.00     0.001 A 
ENDBRANCH   1  17
TORSDOF 1
ENDMDL
MODEL 7
REMARK VINA RESULT:      -8.8      1.344      2.974
REMARK  1 active torsions:
REMARK  status: ('A' for Active; 'I' for Inactive)
REMARK    1  A    between atoms: C_4  and  C_5 
REMARK       I    between atoms: C_5  and  N_6 
ROOT
HETATM    1  C   UNL     1      42.645 -15.637   2.440  1.00  0.00     0.275 C 
HETATM    2  N   UNL     1      41.310 -15.624   2.049  1.00  0.00    -0.342 N 
HETATM    3  C   UNL     1      41.011 -15.408   0.624  1.00  0.00     0.167 C 
HETATM    4  C   UNL     1      40.177 -14.171   0.487  1.00  0.00    -0.005 A 
HETATM    5  C   UNL     1      39.573 -13.541   1.559  1.00  0.00     0.020 A 
HETATM    6  N   UNL     1      38.900 -12.446   1.100  1.00  0.00    -0.358 N 
HETATM    7  H   UNL     1      38.385 -11.786   1.666  1.00  0.00     0.166 HD
HETATM    8  C   UNL     1      39.018 -12.374  -0.274  1.00  0.00     0.043 A 
HETATM    9  C   UNL     1      39.816 -13.447  -0.684  1.00  0.00     0.000 A 
HETATM   10  C   UNL     1      38.484 -11.446  -1.176  1.00  0.00     0.030 A 
HETATM   11  C   UNL     1      38.767 -11.624  -2.534  1.00  0.00     0.002 A 
HETATM   12  C   UNL     1      39.554 -12.686  -2.972  1.00  0.00     0.001 A 
HETATM   13  C   UNL     1      40.087 -13.602  -2.058  1.00  0.00     0.014 A 
HETATM   14  C   UNL     1      39.678 -13.988   2.979  1.00  0.00     0.077 C 
HETATM   15  C   UNL     1      40.172 -15.455   2.978  1.00  0.00     0.132 C 
HETATM   16  O   UNL     1      43.600 -15.585   1.672  1.00  0.00    -0.266 OA
ENDROOT
BRANCH   1  17
HETATM   17  C   UNL     1      42.956 -15.811   3.917  1.00  0.00     0.156 A 
HETATM   18  N   UNL     1      43.045 -17.027   4.373  1.00  0.00    -0.164 NA
HETATM   19  N   UNL     1      43.344 -17.213   5.700  1.00  0.00    -0.238 N 
HETATM   20  C   UNL     1      43.435 -18.585   6.158  1.00  0.00     0.183 C 
HETATM   21  C   UNL     1      43.507 -16.184   6.624  1.00  0.00     0.274 A 
HETATM   22  C   UNL     1      43.386 -14.810   6.103  1.00  0.00     0.046 A 
HETATM   23  O   UNL     1      43.749 -16.364   7.815  1.00  0.00    -0.266 OA
HETATM   24  C   UNL     1      43.126 -14.609   4.752  1.00  0.00     0.016 A 
HETATM   25  C   UNL     1      43.536 -13.714   6.963  1.00  0.00     0.018 A 
HETATM   26  C   UNL     1      43.023 -13.306   4.251  1.00  0.00     0.015 A 
HETATM   27  C   UNL     1      43.170 -12.213   5.110  1.00  0.00     0.001 A 
HETATM   28  C   UNL     1      43.425 -12.416   6.464  1.00  0.00     0.001 A 
ENDBRANCH   1  17
TORSDOF 1
ENDMDL
MODEL 8
REMARK VINA RESULT:      -8.7      4.286      8.022
REMARK  1 active torsions:
REMARK  status: ('A' for Active; 'I' for Inactive)
REMARK    1  A    between atoms: C_4  and  C_5 
REMARK       I    between atoms: C_5  and  N_6 
ROOT
HETATM    1  C   UNL     1      43.793 -12.395   6.542  1.00  0.00     0.275 C 
HETATM    2  N   UNL     1      42.908 -13.467   6.522  1.00  0.00    -0.342 N 
HETATM    3  C   UNL     1      43.468 -14.821   6.383  1.00  0.00     0.167 C 
HETATM    4  C   UNL     1      42.920 -15.447   5.138  1.00  0.00    -0.005 A 
HETATM    5  C   UNL     1      41.853 -14.922   4.431  1.00  0.00     0.020 A 
HETATM    6  N   UNL     1      41.610 -15.719   3.351  1.00  0.00    -0.358 N 
HETATM    7  H   UNL     1      40.902 -15.564   2.647  1.00  0.00     0.166 HD
HETATM    8  C   UNL     1      42.479 -16.791   3.362  1.00  0.00     0.043 A 
HETATM    9  C   UNL     1      43.313 -16.644   4.476  1.00  0.00     0.000 A 
HETATM   10  C   UNL     1      42.591 -17.870   2.477  1.00  0.00     0.030 A 
HETATM   11  C   UNL     1      43.575 -18.828   2.742  1.00  0.00     0.002 A 
HETATM   12  C   UNL     1      44.416 -18.710   3.845  1.00  0.00     0.001 A 
HETATM   13  C   UNL     1      44.298 -17.622   4.718  1.00  0.00     0.014 A 
HETATM   14  C   UNL     1      41.123 -13.673   4.796  1.00  0.00     0.077 C 
HETATM   15  C   UNL     1      41.456 -13.344   6.272  1.00  0.00     0.132 C 
HETATM   16  O   UNL     1      45.015 -12.495   6.557  1.00  0.00    -0.266 OA
ENDROOT
BRANCH   1  17
HETATM   17  C   UNL     1      43.215 -10.993   6.636  1.00  0.00     0.156 A 
HETATM   18  N   UNL     1      42.598 -10.526   5.589  1.00  0.00    -0.164 NA
HETATM   19  N   UNL     1      42.048  -9.269   5.654  1.00  0.00    -0.238 N 
HETATM   20  C   UNL     1      41.369  -8.796   4.464  1.00  0.00     0.183 C 
HETATM   21  C   UNL     1      42.152  -8.418   6.751  1.00  0.00     0.274 A 
HETATM   22  C   UNL     1      42.869  -8.947   7.926  1.00  0.00     0.046 A 
HETATM   23  O   UNL     1      41.679  -7.285   6.788  1.00  0.00    -0.266 OA
HETATM   24  C   UNL     1      43.392 -10.235   7.887  1.00  0.00     0.016 A 
HETATM   25  C   UNL     1      43.020  -8.159   9.075  1.00  0.00     0.018 A 
HETATM   26  C   UNL     1      44.063 -10.746   9.005  1.00  0.00     0.015 A 
HETATM   27  C   UNL     1      44.216  -9.958  10.150  1.00  0.00     0.001 A 
HETATM   28  C   UNL     1      43.696  -8.666  10.185  1.00  0.00     0.001 A 
ENDBRANCH   1  17
TORSDOF 1
ENDMDL
MODEL 9
REMARK VINA RESULT:      -8.5      3.790      7.520
REMARK  1 active torsions:
REMARK  status: ('A' for Active; 'I' for Inactive)
REMARK    1  A    between atoms: C_4  and  C_5 
REMARK       I    between atoms: C_5  and  N_6 
ROOT
HETATM    1  C   UNL     1      42.728 -12.384   5.538  1.00  0.00     0.275 C 
HETATM    2  N   UNL     1      42.016 -13.578   5.603  1.00  0.00    -0.342 N 
HETATM    3  C   UNL     1      42.779 -14.830   5.729  1.00  0.00     0.167 C 
HETATM    4  C   UNL     1      42.475 -15.703   4.550  1.00  0.00    -0.005 A 
HETATM    5  C   UNL     1      41.433 -15.460   3.674  1.00  0.00     0.020 A 
HETATM    6  N   UNL     1      41.436 -16.428   2.713  1.00  0.00    -0.358 N 
HETATM    7  H   UNL     1      40.800 -16.488   1.930  1.00  0.00     0.166 HD
HETATM    8  C   UNL     1      42.445 -17.334   2.972  1.00  0.00     0.043 A 
HETATM    9  C   UNL     1      43.113 -16.901   4.123  1.00  0.00     0.000 A 
HETATM   10  C   UNL     1      42.814 -18.494   2.280  1.00  0.00     0.030 A 
HETATM   11  C   UNL     1      43.889 -19.235   2.781  1.00  0.00     0.002 A 
HETATM   12  C   UNL     1      44.569 -18.831   3.927  1.00  0.00     0.001 A 
HETATM   13  C   UNL     1      44.194 -17.665   4.605  1.00  0.00     0.014 A 
HETATM   14  C   UNL     1      40.493 -14.306   3.770  1.00  0.00     0.077 C 
HETATM   15  C   UNL     1      40.600 -13.725   5.202  1.00  0.00     0.132 C 
HETATM   16  O   UNL     1      43.941 -12.284   5.684  1.00  0.00    -0.266 OA
ENDROOT
BRANCH   1  17
HETATM   17  C   UNL     1      41.946 -11.094   5.359  1.00  0.00     0.156 A 
HETATM   18  N   UNL     1      41.529 -10.489   6.433  1.00  0.00    -0.164 NA
HETATM   19  N   UNL     1      40.837  -9.311   6.300  1.00  0.00    -0.238 N 
HETATM   20  C   UNL     1      40.398  -8.674   7.526  1.00  0.00     0.183 C 
HETATM   21  C   UNL     1      40.491  -8.732   5.081  1.00  0.00     0.274 A 
HETATM   22  C   UNL     1      40.950  -9.434   3.869  1.00  0.00     0.046 A 
HETATM   23  O   UNL     1      39.848  -7.691   4.974  1.00  0.00    -0.266 OA
HETATM   24  C   UNL     1      41.689 -10.605   3.992  1.00  0.00     0.016 A 
HETATM   25  C   UNL     1      40.647  -8.923   2.600  1.00  0.00     0.018 A 
HETATM   26  C   UNL     1      42.137 -11.268   2.843  1.00  0.00     0.015 A 
HETATM   27  C   UNL     1      41.832 -10.759   1.578  1.00  0.00     0.001 A 
HETATM   28  C   UNL     1      41.087  -9.588   1.456  1.00  0.00     0.001 A 
ENDBRANCH   1  17
TORSDOF 1
ENDMDL
MODEL 10
REMARK VINA RESULT:      -8.4      2.987      3.922
REMARK  1 active torsions:
REMARK  status: ('A' for Active; 'I' for Inactive)
REMARK    1  A    between atoms: C_4  and  C_5 
REMARK       I    between atoms: C_5  and  N_6 
ROOT
HETATM    1  C   UNL     1      40.310 -11.933   3.731  1.00  0.00     0.275 C 
HETATM    2  N   UNL     1      40.819 -11.830   2.441  1.00  0.00    -0.342 N 
HETATM    3  C   UNL     1      39.878 -11.531   1.350  1.00  0.00     0.167 C 
HETATM    4  C   UNL     1      39.912 -12.653   0.358  1.00  0.00    -0.005 A 
HETATM    5  C   UNL     1      40.885 -13.636   0.358  1.00  0.00     0.020 A 
HETATM    6  N   UNL     1      40.626 -14.507  -0.659  1.00  0.00    -0.358 N 
HETATM    7  H   UNL     1      41.160 -15.335  -0.881  1.00  0.00     0.166 HD
HETATM    8  C   UNL     1      39.513 -14.083  -1.359  1.00  0.00     0.043 A 
HETATM    9  C   UNL     1      39.046 -12.920  -0.739  1.00  0.00     0.000 A 
HETATM   10  C   UNL     1      38.890 -14.639  -2.482  1.00  0.00     0.030 A 
HETATM   11  C   UNL     1      37.765 -13.984  -2.991  1.00  0.00     0.002 A 
HETATM   12  C   UNL     1      37.280 -12.821  -2.398  1.00  0.00     0.001 A 
HETATM   13  C   UNL     1      37.909 -12.280  -1.271  1.00  0.00     0.014 A 
HETATM   14  C   UNL     1      42.008 -13.722   1.337  1.00  0.00     0.077 C 
HETATM   15  C   UNL     1      42.143 -12.341   2.025  1.00  0.00     0.132 C 
HETATM   16  O   UNL     1      39.151 -11.689   4.048  1.00  0.00    -0.266 OA
ENDROOT
BRANCH   1  17
HETATM   17  C   UNL     1      41.272 -12.290   4.852  1.00  0.00     0.156 A 
HETATM   18  N   UNL     1      41.944 -11.320   5.400  1.00  0.00    -0.164 NA
HETATM   19  N   UNL     1      42.805 -11.612   6.429  1.00  0.00    -0.238 N 
HETATM   20  C   UNL     1      43.527 -10.496   7.007  1.00  0.00     0.183 C 
HETATM   21  C   UNL     1      43.062 -12.897   6.902  1.00  0.00     0.274 A 
HETATM   22  C   UNL     1      42.310 -13.992   6.263  1.00  0.00     0.046 A 
HETATM   23  O   UNL     1      43.855 -13.149   7.806  1.00  0.00    -0.266 OA
HETATM   24  C   UNL     1      41.403 -13.703   5.250  1.00  0.00     0.016 A 
HETATM   25  C   UNL     1      42.506 -15.317   6.677  1.00  0.00     0.018 A 
HETATM   26  C   UNL     1      40.679 -14.740   4.649  1.00  0.00     0.015 A 
HETATM   27  C   UNL     1      40.876 -16.061   5.061  1.00  0.00     0.001 A 
HETATM   28  C   UNL     1      41.789 -16.350   6.073  1.00  0.00     0.001 A 
ENDBRANCH   1  17
TORSDOF 1
ENDMDL
