MODEL 1
REMARK VINA RESULT:      -9.3      0.000      0.000
REMARK  9 active torsions:
REMARK  status: ('A' for Active; 'I' for Inactive)
REMARK    1  A    between atoms: O_2  and  C_3 
REMARK    2  A    between atoms: C_4  and  O_5 
REMARK    3  A    between atoms: C_6  and  C_7 
REMARK    4  A    between atoms: N_8  and  N_9 
REMARK       I    between atoms: N_9  and  C_10 
REMARK    5  A    between atoms: C_10  and  C_11 
REMARK    6  A    between atoms: C_11  and  N_12 
REMARK       I    between atoms: N_12  and  C_13 
REMARK    7  A    between atoms: C_13  and  C_14 
REMARK    8  A    between atoms: C_15  and  C_16 
REMARK    9  A    between atoms: C_15  and  C_22 
ROOT
HETATM    1  N   UNL     1      41.339 -13.950   2.698  1.00  0.00    -0.352 N 
HETATM    2  C   UNL     1      40.944 -15.252   2.528  1.00  0.00     0.223 C 
HETATM    3  O   UNL     1      39.777 -15.617   2.608  1.00  0.00    -0.273 OA
HETATM    4  H   UNL     1      42.323 -13.717   2.705  1.00  0.00     0.162 HD
ENDROOT
BRANCH   1   5
HETATM    5  C   UNL     1      40.380 -12.871   2.809  1.00  0.00     0.227 C 
BRANCH   5   6
HETATM    6  C   UNL     1      40.741 -11.830   3.865  1.00  0.00     0.255 C 
HETATM    7  N   UNL     1      42.095 -11.531   3.873  1.00  0.00    -0.246 N 
HETATM    8  H   UNL     1      42.690 -11.869   3.111  1.00  0.00     0.192 HD
HETATM    9  O   UNL     1      39.894 -11.371   4.629  1.00  0.00    -0.270 OA
BRANCH   7  10
HETATM   10  N   UNL     1      42.635 -10.834   4.909  1.00  0.00    -0.184 NA
HETATM   11  C   UNL     1      43.495 -11.491   5.623  1.00  0.00     0.153 C 
BRANCH  11  12
HETATM   12  C   UNL     1      44.111 -10.893   6.825  1.00  0.00     0.019 A 
HETATM   13  C   UNL     1      43.311 -10.333   7.822  1.00  0.00     0.110 A 
HETATM   14  C   UNL     1      43.885  -9.714   8.942  1.00  0.00     0.102 A 
HETATM   15  C   UNL     1      45.275  -9.678   9.066  1.00  0.00     0.040 A 
HETATM   16  C   UNL     1      46.081 -10.245   8.074  1.00  0.00     0.004 A 
HETATM   17  C   UNL     1      45.503 -10.847   6.954  1.00  0.00     0.016 A 
BRANCH  13  18
HETATM   18  O   UNL     1      41.943 -10.358   7.712  1.00  0.00    -0.357 OA
HETATM   19  H   UNL     1      41.763 -10.804   6.860  1.00  0.00     0.218 HD
ENDBRANCH  13  18
BRANCH  14  20
HETATM   20  O   UNL     1      42.984  -9.185   9.834  1.00  0.00    -0.353 OA
HETATM   21  C   UNL     1      42.859  -9.855  11.084  1.00  0.00     0.210 C 
ENDBRANCH  14  20
ENDBRANCH  11  12
ENDBRANCH   7  10
ENDBRANCH   5   6
ENDBRANCH   1   5
BRANCH   2  22
HETATM   22  C   UNL     1      42.064 -16.175   2.234  1.00  0.00     0.097 A 
HETATM   23  C   UNL     1      42.944 -16.735   3.364  1.00  0.00     0.027 A 
HETATM   24  C   UNL     1      43.500 -15.762   2.323  1.00  0.00     0.035 A 
BRANCH  23  25
HETATM   25  C   UNL     1      42.880 -16.200   4.799  1.00  0.00    -0.044 A 
HETATM   26  C   UNL     1      43.850 -15.324   5.320  1.00  0.00     0.008 A 
HETATM   27  C   UNL     1      43.766 -14.831   6.625  1.00  0.00     0.001 A 
HETATM   28  C   UNL     1      42.696 -15.191   7.440  1.00  0.00     0.000 A 
HETATM   29  C   UNL     1      41.711 -16.041   6.948  1.00  0.00     0.001 A 
HETATM   30  C   UNL     1      41.805 -16.535   5.645  1.00  0.00     0.008 A 
ENDBRANCH  23  25
BRANCH  23  31
HETATM   31  C   UNL     1      43.265 -18.228   3.255  1.00  0.00    -0.044 A 
HETATM   32  C   UNL     1      43.003 -18.964   2.086  1.00  0.00     0.008 A 
HETATM   33  C   UNL     1      43.316 -20.324   1.996  1.00  0.00     0.001 A 
HETATM   34  C   UNL     1      43.903 -20.978   3.074  1.00  0.00     0.000 A 
HETATM   35  C   UNL     1      44.183 -20.274   4.241  1.00  0.00     0.001 A 
HETATM   36  C   UNL     1      43.869 -18.916   4.326  1.00  0.00     0.008 A 
ENDBRANCH  23  31
ENDBRANCH   2  22
TORSDOF 9
ENDMDL
MODEL 2
REMARK VINA RESULT:      -9.0      4.931      6.705
REMARK  9 active torsions:
REMARK  status: ('A' for Active; 'I' for Inactive)
REMARK    1  A    between atoms: O_2  and  C_3 
REMARK    2  A    between atoms: C_4  and  O_5 
REMARK    3  A    between atoms: C_6  and  C_7 
REMARK    4  A    between atoms: N_8  and  N_9 
REMARK       I    between atoms: N_9  and  C_10 
REMARK    5  A    between atoms: C_10  and  C_11 
REMARK    6  A    between atoms: C_11  and  N_12 
REMARK       I    between atoms: N_12  and  C_13 
REMARK    7  A    between atoms: C_13  and  C_14 
REMARK    8  A    between atoms: C_15  and  C_16 
REMARK    9  A    between atoms: C_15  and  C_22 
ROOT
HETATM    1  N   UNL     1      41.317 -14.014   0.776  1.00  0.00    -0.352 N 
HETATM    2  C   UNL     1      41.050 -15.282   1.227  1.00  0.00     0.223 C 
HETATM    3  O   UNL     1      39.917 -15.696   1.441  1.00  0.00    -0.273 OA
HETATM    4  H   UNL     1      42.274 -13.696   0.697  1.00  0.00     0.162 HD
ENDROOT
BRANCH   1   5
HETATM    5  C   UNL     1      40.261 -13.122   0.345  1.00  0.00     0.227 C 
BRANCH   5   6
HETATM    6  C   UNL     1      40.698 -11.665   0.221  1.00  0.00     0.255 C 
HETATM    7  N   UNL     1      39.996 -10.983  -0.762  1.00  0.00    -0.246 N 
HETATM    8  H   UNL     1      39.172 -11.418  -1.186  1.00  0.00     0.192 HD
HETATM    9  O   UNL     1      41.607 -11.207   0.911  1.00  0.00    -0.270 OA
BRANCH   7  10
HETATM   10  N   UNL     1      40.428  -9.766  -1.190  1.00  0.00    -0.184 NA
HETATM   11  C   UNL     1      41.190  -9.793  -2.239  1.00  0.00     0.153 C 
BRANCH  11  12
HETATM   12  C   UNL     1      41.797  -8.559  -2.778  1.00  0.00     0.019 A 
HETATM   13  C   UNL     1      42.715  -7.834  -2.017  1.00  0.00     0.110 A 
HETATM   14  C   UNL     1      43.258  -6.633  -2.496  1.00  0.00     0.102 A 
HETATM   15  C   UNL     1      42.885  -6.170  -3.759  1.00  0.00     0.040 A 
HETATM   16  C   UNL     1      41.971  -6.896  -4.530  1.00  0.00     0.004 A 
HETATM   17  C   UNL     1      41.425  -8.084  -4.040  1.00  0.00     0.016 A 
BRANCH  13  18
HETATM   18  O   UNL     1      43.088  -8.275  -0.772  1.00  0.00    -0.357 OA
HETATM   19  H   UNL     1      42.763  -7.593  -0.151  1.00  0.00     0.218 HD
ENDBRANCH  13  18
BRANCH  14  20
HETATM   20  O   UNL     1      44.130  -6.012  -1.637  1.00  0.00    -0.353 OA
HETATM   21  C   UNL     1      43.771  -4.705  -1.198  1.00  0.00     0.210 C 
ENDBRANCH  14  20
ENDBRANCH  11  12
ENDBRANCH   7  10
ENDBRANCH   5   6
ENDBRANCH   1   5
BRANCH   2  22
HETATM   22  C   UNL     1      42.265 -16.104   1.428  1.00  0.00     0.097 A 
HETATM   23  C   UNL     1      42.772 -16.434   2.842  1.00  0.00     0.027 A 
HETATM   24  C   UNL     1      43.565 -15.530   1.897  1.00  0.00     0.035 A 
BRANCH  23  25
HETATM   25  C   UNL     1      42.215 -15.750   4.096  1.00  0.00    -0.044 A 
HETATM   26  C   UNL     1      42.750 -14.551   4.601  1.00  0.00     0.008 A 
HETATM   27  C   UNL     1      42.217 -13.932   5.735  1.00  0.00     0.001 A 
HETATM   28  C   UNL     1      41.121 -14.492   6.386  1.00  0.00     0.000 A 
HETATM   29  C   UNL     1      40.558 -15.667   5.901  1.00  0.00     0.001 A 
HETATM   30  C   UNL     1      41.098 -16.283   4.771  1.00  0.00     0.008 A 
ENDBRANCH  23  25
BRANCH  23  31
HETATM   31  C   UNL     1      43.211 -17.886   3.050  1.00  0.00    -0.044 A 
HETATM   32  C   UNL     1      43.914 -18.295   4.197  1.00  0.00     0.008 A 
HETATM   33  C   UNL     1      44.296 -19.627   4.380  1.00  0.00     0.001 A 
HETATM   34  C   UNL     1      43.979 -20.583   3.420  1.00  0.00     0.000 A 
HETATM   35  C   UNL     1      43.276 -20.210   2.279  1.00  0.00     0.001 A 
HETATM   36  C   UNL     1      42.897 -18.878   2.101  1.00  0.00     0.008 A 
ENDBRANCH  23  31
ENDBRANCH   2  22
TORSDOF 9
ENDMDL
MODEL 3
REMARK VINA RESULT:      -8.9      2.589      2.862
REMARK  9 active torsions:
REMARK  status: ('A' for Active; 'I' for Inactive)
REMARK    1  A    between atoms: O_2  and  C_3 
REMARK    2  A    between atoms: C_4  and  O_5 
REMARK    3  A    between atoms: C_6  and  C_7 
REMARK    4  A    between atoms: N_8  and  N_9 
REMARK       I    between atoms: N_9  and  C_10 
REMARK    5  A    between atoms: C_10  and  C_11 
REMARK    6  A    between atoms: C_11  and  N_12 
REMARK       I    between atoms: N_12  and  C_13 
REMARK    7  A    between atoms: C_13  and  C_14 
REMARK    8  A    between atoms: C_15  and  C_16 
REMARK    9  A    between atoms: C_15  and  C_22 
ROOT
HETATM    1  N   UNL     1      41.403 -13.947   1.006  1.00  0.00    -0.352 N 
HETATM    2  C   UNL     1      41.104 -15.264   1.241  1.00  0.00     0.223 C 
HETATM    3  O   UNL     1      39.959 -15.697   1.292  1.00  0.00    -0.273 OA
HETATM    4  H   UNL     1      42.361 -13.628   1.057  1.00  0.00     0.162 HD
ENDROOT
BRANCH   1   5
HETATM    5  C   UNL     1      40.384 -12.993   0.620  1.00  0.00     0.227 C 
BRANCH   5   6
HETATM    6  C   UNL     1      40.250 -11.812   1.578  1.00  0.00     0.255 C 
HETATM    7  N   UNL     1      40.266 -12.204   2.907  1.00  0.00    -0.246 N 
HETATM    8  H   UNL     1      40.524 -13.166   3.146  1.00  0.00     0.192 HD
HETATM    9  O   UNL     1      40.104 -10.663   1.163  1.00  0.00    -0.270 OA
BRANCH   7  10
HETATM   10  N   UNL     1      39.895 -11.330   3.882  1.00  0.00    -0.184 NA
HETATM   11  C   UNL     1      40.861 -10.910   4.639  1.00  0.00     0.153 C 
BRANCH  11  12
HETATM   12  C   UNL     1      40.604 -10.015   5.785  1.00  0.00     0.019 A 
HETATM   13  C   UNL     1      39.856 -10.464   6.875  1.00  0.00     0.110 A 
HETATM   14  C   UNL     1      39.560  -9.608   7.946  1.00  0.00     0.102 A 
HETATM   15  C   UNL     1      40.037  -8.296   7.924  1.00  0.00     0.040 A 
HETATM   16  C   UNL     1      40.793  -7.843   6.839  1.00  0.00     0.004 A 
HETATM   17  C   UNL     1      41.073  -8.698   5.770  1.00  0.00     0.016 A 
BRANCH  13  18
HETATM   18  O   UNL     1      39.377 -11.750   6.908  1.00  0.00    -0.357 OA
HETATM   19  H   UNL     1      39.522 -12.053   7.827  1.00  0.00     0.218 HD
ENDBRANCH  13  18
BRANCH  14  20
HETATM   20  O   UNL     1      38.799 -10.171   8.941  1.00  0.00    -0.353 OA
HETATM   21  C   UNL     1      39.225  -9.936  10.279  1.00  0.00     0.210 C 
ENDBRANCH  14  20
ENDBRANCH  11  12
ENDBRANCH   7  10
ENDBRANCH   5   6
ENDBRANCH   1   5
BRANCH   2  22
HETATM   22  C   UNL     1      42.301 -16.117   1.424  1.00  0.00     0.097 A 
HETATM   23  C   UNL     1      42.809 -16.475   2.830  1.00  0.00     0.027 A 
HETATM   24  C   UNL     1      43.617 -15.578   1.891  1.00  0.00     0.035 A 
BRANCH  23  25
HETATM   25  C   UNL     1      42.277 -15.793   4.097  1.00  0.00    -0.044 A 
HETATM   26  C   UNL     1      42.860 -14.628   4.627  1.00  0.00     0.008 A 
HETATM   27  C   UNL     1      42.349 -14.010   5.772  1.00  0.00     0.001 A 
HETATM   28  C   UNL     1      41.228 -14.535   6.408  1.00  0.00     0.000 A 
HETATM   29  C   UNL     1      40.617 -15.675   5.897  1.00  0.00     0.001 A 
HETATM   30  C   UNL     1      41.136 -16.292   4.756  1.00  0.00     0.008 A 
ENDBRANCH  23  25
BRANCH  23  31
HETATM   31  C   UNL     1      43.217 -17.939   3.019  1.00  0.00    -0.044 A 
HETATM   32  C   UNL     1      43.889 -18.384   4.171  1.00  0.00     0.008 A 
HETATM   33  C   UNL     1      44.241 -19.726   4.336  1.00  0.00     0.001 A 
HETATM   34  C   UNL     1      43.925 -20.657   3.351  1.00  0.00     0.000 A 
HETATM   35  C   UNL     1      43.253 -20.249   2.204  1.00  0.00     0.001 A 
HETATM   36  C   UNL     1      42.903 -18.906   2.044  1.00  0.00     0.008 A 
ENDBRANCH  23  31
ENDBRANCH   2  22
TORSDOF 9
ENDMDL
MODEL 4
REMARK VINA RESULT:      -8.7      3.607      6.680
REMARK  9 active torsions:
REMARK  status: ('A' for Active; 'I' for Inactive)
REMARK    1  A    between atoms: O_2  and  C_3 
REMARK    2  A    between atoms: C_4  and  O_5 
REMARK    3  A    between atoms: C_6  and  C_7 
REMARK    4  A    between atoms: N_8  and  N_9 
REMARK       I    between atoms: N_9  and  C_10 
REMARK    5  A    between atoms: C_10  and  C_11 
REMARK    6  A    between atoms: C_11  and  N_12 
REMARK       I    between atoms: N_12  and  C_13 
REMARK    7  A    between atoms: C_13  and  C_14 
REMARK    8  A    between atoms: C_15  and  C_16 
REMARK    9  A    between atoms: C_15  and  C_22 
ROOT
HETATM    1  N   UNL     1      42.911 -13.019   5.693  1.00  0.00    -0.352 N 
HETATM    2  C   UNL     1      41.699 -13.627   5.488  1.00  0.00     0.223 C 
HETATM    3  O   UNL     1      40.670 -13.012   5.238  1.00  0.00    -0.273 OA
HETATM    4  H   UNL     1      43.710 -13.568   5.980  1.00  0.00     0.162 HD
ENDROOT
BRANCH   1   5
HETATM    5  C   UNL     1      43.102 -11.604   5.451  1.00  0.00     0.227 C 
BRANCH   5   6
HETATM    6  C   UNL     1      43.391 -11.262   3.992  1.00  0.00     0.255 C 
HETATM    7  N   UNL     1      42.280 -10.751   3.338  1.00  0.00    -0.246 N 
HETATM    8  H   UNL     1      41.451 -10.490   3.880  1.00  0.00     0.192 HD
HETATM    9  O   UNL     1      44.493 -11.475   3.489  1.00  0.00    -0.270 OA
BRANCH   7  10
HETATM   10  N   UNL     1      42.276 -10.641   1.982  1.00  0.00    -0.184 NA
HETATM   11  C   UNL     1      41.126 -10.348   1.459  1.00  0.00     0.153 C 
BRANCH  11  12
HETATM   12  C   UNL     1      40.948 -10.268  -0.005  1.00  0.00     0.019 A 
HETATM   13  C   UNL     1      41.657  -9.325  -0.751  1.00  0.00     0.110 A 
HETATM   14  C   UNL     1      41.456  -9.204  -2.134  1.00  0.00     0.102 A 
HETATM   15  C   UNL     1      40.549 -10.052  -2.771  1.00  0.00     0.040 A 
HETATM   16  C   UNL     1      39.842 -11.004  -2.029  1.00  0.00     0.004 A 
HETATM   17  C   UNL     1      40.036 -11.110  -0.650  1.00  0.00     0.016 A 
BRANCH  13  18
HETATM   18  O   UNL     1      42.550  -8.482  -0.138  1.00  0.00    -0.357 OA
HETATM   19  H   UNL     1      42.972  -9.021   0.561  1.00  0.00     0.218 HD
ENDBRANCH  13  18
BRANCH  14  20
HETATM   20  O   UNL     1      42.201  -8.222  -2.740  1.00  0.00    -0.353 OA
HETATM   21  C   UNL     1      41.839  -7.881  -4.075  1.00  0.00     0.210 C 
ENDBRANCH  14  20
ENDBRANCH  11  12
ENDBRANCH   7  10
ENDBRANCH   5   6
ENDBRANCH   1   5
BRANCH   2  22
HETATM   22  C   UNL     1      41.755 -15.104   5.595  1.00  0.00     0.097 A 
HETATM   23  C   UNL     1      41.695 -15.989   4.339  1.00  0.00     0.027 A 
HETATM   24  C   UNL     1      40.564 -15.979   5.368  1.00  0.00     0.035 A 
BRANCH  23  25
HETATM   25  C   UNL     1      41.334 -15.434   2.956  1.00  0.00    -0.044 A 
HETATM   26  C   UNL     1      42.140 -14.494   2.288  1.00  0.00     0.008 A 
HETATM   27  C   UNL     1      41.804 -14.013   1.019  1.00  0.00     0.001 A 
HETATM   28  C   UNL     1      40.658 -14.474   0.378  1.00  0.00     0.000 A 
HETATM   29  C   UNL     1      39.850 -15.417   1.004  1.00  0.00     0.001 A 
HETATM   30  C   UNL     1      40.188 -15.889   2.275  1.00  0.00     0.008 A 
ENDBRANCH  23  25
BRANCH  23  31
HETATM   31  C   UNL     1      42.692 -17.152   4.318  1.00  0.00    -0.044 A 
HETATM   32  C   UNL     1      43.108 -17.799   5.495  1.00  0.00     0.008 A 
HETATM   33  C   UNL     1      44.007 -18.868   5.458  1.00  0.00     0.001 A 
HETATM   34  C   UNL     1      44.508 -19.319   4.240  1.00  0.00     0.000 A 
HETATM   35  C   UNL     1      44.107 -18.705   3.059  1.00  0.00     0.001 A 
HETATM   36  C   UNL     1      43.208 -17.636   3.101  1.00  0.00     0.008 A 
ENDBRANCH  23  31
ENDBRANCH   2  22
TORSDOF 9
ENDMDL
MODEL 5
REMARK VINA RESULT:      -8.7      2.485      3.106
REMARK  9 active torsions:
REMARK  status: ('A' for Active; 'I' for Inactive)
REMARK    1  A    between atoms: O_2  and  C_3 
REMARK    2  A    between atoms: C_4  and  O_5 
REMARK    3  A    between atoms: C_6  and  C_7 
REMARK    4  A    between atoms: N_8  and  N_9 
REMARK       I    between atoms: N_9  and  C_10 
REMARK    5  A    between atoms: C_10  and  C_11 
REMARK    6  A    between atoms: C_11  and  N_12 
REMARK       I    between atoms: N_12  and  C_13 
REMARK    7  A    between atoms: C_13  and  C_14 
REMARK    8  A    between atoms: C_15  and  C_16 
REMARK    9  A    between atoms: C_15  and  C_22 
ROOT
HETATM    1  N   UNL     1      41.359 -14.075   0.492  1.00  0.00    -0.352 N 
HETATM    2  C   UNL     1      41.087 -15.269   1.109  1.00  0.00     0.223 C 
HETATM    3  O   UNL     1      39.955 -15.631   1.406  1.00  0.00    -0.273 OA
HETATM    4  H   UNL     1      42.317 -13.788   0.345  1.00  0.00     0.162 HD
ENDROOT
BRANCH   1   5
HETATM    5  C   UNL     1      40.304 -13.224  -0.017  1.00  0.00     0.227 C 
BRANCH   5   6
HETATM    6  C   UNL     1      39.769 -12.225   1.005  1.00  0.00     0.255 C 
HETATM    7  N   UNL     1      40.752 -11.365   1.470  1.00  0.00    -0.246 N 
HETATM    8  H   UNL     1      41.663 -11.341   1.003  1.00  0.00     0.192 HD
HETATM    9  O   UNL     1      38.596 -12.250   1.374  1.00  0.00    -0.270 OA
BRANCH   7  10
HETATM   10  N   UNL     1      40.522 -10.593   2.567  1.00  0.00    -0.184 NA
HETATM   11  C   UNL     1      40.712 -11.187   3.704  1.00  0.00     0.153 C 
BRANCH  11  12
HETATM   12  C   UNL     1      40.432 -10.502   4.983  1.00  0.00     0.019 A 
HETATM   13  C   UNL     1      41.017  -9.266   5.263  1.00  0.00     0.110 A 
HETATM   14  C   UNL     1      40.801  -8.631   6.495  1.00  0.00     0.102 A 
HETATM   15  C   UNL     1      39.975  -9.239   7.442  1.00  0.00     0.040 A 
HETATM   16  C   UNL     1      39.379 -10.473   7.163  1.00  0.00     0.004 A 
HETATM   17  C   UNL     1      39.610 -11.106   5.940  1.00  0.00     0.016 A 
BRANCH  13  18
HETATM   18  O   UNL     1      41.834  -8.659   4.342  1.00  0.00    -0.357 OA
HETATM   19  H   UNL     1      41.228  -8.248   3.694  1.00  0.00     0.218 HD
ENDBRANCH  13  18
BRANCH  14  20
HETATM   20  O   UNL     1      41.454  -7.433   6.647  1.00  0.00    -0.353 OA
HETATM   21  C   UNL     1      42.424  -7.364   7.687  1.00  0.00     0.210 C 
ENDBRANCH  14  20
ENDBRANCH  11  12
ENDBRANCH   7  10
ENDBRANCH   5   6
ENDBRANCH   1   5
BRANCH   2  22
HETATM   22  C   UNL     1      42.295 -16.083   1.376  1.00  0.00     0.097 A 
HETATM   23  C   UNL     1      42.728 -16.405   2.816  1.00  0.00     0.027 A 
HETATM   24  C   UNL     1      43.564 -15.499   1.912  1.00  0.00     0.035 A 
BRANCH  23  25
HETATM   25  C   UNL     1      42.101 -15.721   4.037  1.00  0.00    -0.044 A 
HETATM   26  C   UNL     1      40.975 -16.245   4.698  1.00  0.00     0.008 A 
HETATM   27  C   UNL     1      40.428 -15.618   5.821  1.00  0.00     0.001 A 
HETATM   28  C   UNL     1      41.006 -14.455   6.323  1.00  0.00     0.000 A 
HETATM   29  C   UNL     1      42.131 -13.922   5.703  1.00  0.00     0.001 A 
HETATM   30  C   UNL     1      42.669 -14.551   4.577  1.00  0.00     0.008 A 
ENDBRANCH  23  25
BRANCH  23  31
HETATM   31  C   UNL     1      43.165 -17.854   3.053  1.00  0.00    -0.044 A 
HETATM   32  C   UNL     1      42.912 -18.872   2.117  1.00  0.00     0.008 A 
HETATM   33  C   UNL     1      43.330 -20.186   2.339  1.00  0.00     0.001 A 
HETATM   34  C   UNL     1      44.017 -20.513   3.505  1.00  0.00     0.000 A 
HETATM   35  C   UNL     1      44.290 -19.525   4.446  1.00  0.00     0.001 A 
HETATM   36  C   UNL     1      43.870 -18.213   4.218  1.00  0.00     0.008 A 
ENDBRANCH  23  31
ENDBRANCH   2  22
TORSDOF 9
ENDMDL
MODEL 6
REMARK VINA RESULT:      -8.6      5.027      7.135
REMARK  9 active torsions:
REMARK  status: ('A' for Active; 'I' for Inactive)
REMARK    1  A    between atoms: O_2  and  C_3 
REMARK    2  A    between atoms: C_4  and  O_5 
REMARK    3  A    between atoms: C_6  and  C_7 
REMARK    4  A    between atoms: N_8  and  N_9 
REMARK       I    between atoms: N_9  and  C_10 
REMARK    5  A    between atoms: C_10  and  C_11 
REMARK    6  A    between atoms: C_11  and  N_12 
REMARK       I    between atoms: N_12  and  C_13 
REMARK    7  A    between atoms: C_13  and  C_14 
REMARK    8  A    between atoms: C_15  and  C_16 
REMARK    9  A    between atoms: C_15  and  C_22 
ROOT
HETATM    1  N   UNL     1      40.897 -14.508   0.219  1.00  0.00    -0.352 N 
HETATM    2  C   UNL     1      40.835 -15.401   1.257  1.00  0.00     0.223 C 
HETATM    3  O   UNL     1      39.841 -15.553   1.956  1.00  0.00    -0.273 OA
HETATM    4  H   UNL     1      41.769 -14.362  -0.272  1.00  0.00     0.162 HD
ENDROOT
BRANCH   1   5
HETATM    5  C   UNL     1      39.723 -13.798  -0.246  1.00  0.00     0.227 C 
BRANCH   5   6
HETATM    6  C   UNL     1      40.017 -12.761  -1.326  1.00  0.00     0.255 C 
HETATM    7  N   UNL     1      41.325 -12.305  -1.281  1.00  0.00    -0.246 N 
HETATM    8  H   UNL     1      42.007 -12.786  -0.687  1.00  0.00     0.192 HD
HETATM    9  O   UNL     1      39.142 -12.374  -2.099  1.00  0.00    -0.270 OA
BRANCH   7  10
HETATM   10  N   UNL     1      41.688 -11.198  -1.986  1.00  0.00    -0.184 NA
HETATM   11  C   UNL     1      41.752 -10.104  -1.294  1.00  0.00     0.153 C 
BRANCH  11  12
HETATM   12  C   UNL     1      42.060  -8.809  -1.934  1.00  0.00     0.019 A 
HETATM   13  C   UNL     1      41.310  -8.366  -3.025  1.00  0.00     0.110 A 
HETATM   14  C   UNL     1      41.627  -7.163  -3.674  1.00  0.00     0.102 A 
HETATM   15  C   UNL     1      42.694  -6.394  -3.208  1.00  0.00     0.040 A 
HETATM   16  C   UNL     1      43.443  -6.830  -2.110  1.00  0.00     0.004 A 
HETATM   17  C   UNL     1      43.131  -8.035  -1.477  1.00  0.00     0.016 A 
BRANCH  13  18
HETATM   18  O   UNL     1      40.260  -9.113  -3.497  1.00  0.00    -0.357 OA
HETATM   19  H   UNL     1      40.537  -9.409  -4.387  1.00  0.00     0.218 HD
ENDBRANCH  13  18
BRANCH  14  20
HETATM   20  O   UNL     1      40.823  -6.858  -4.745  1.00  0.00    -0.353 OA
HETATM   21  C   UNL     1      41.467  -6.734  -6.009  1.00  0.00     0.210 C 
ENDBRANCH  14  20
ENDBRANCH  11  12
ENDBRANCH   7  10
ENDBRANCH   5   6
ENDBRANCH   1   5
BRANCH   2  22
HETATM   22  C   UNL     1      42.087 -16.169   1.450  1.00  0.00     0.097 A 
HETATM   23  C   UNL     1      42.635 -16.446   2.859  1.00  0.00     0.027 A 
HETATM   24  C   UNL     1      43.371 -15.532   1.878  1.00  0.00     0.035 A 
BRANCH  23  25
HETATM   25  C   UNL     1      42.077 -15.757   4.110  1.00  0.00    -0.044 A 
HETATM   26  C   UNL     1      42.467 -14.461   4.493  1.00  0.00     0.008 A 
HETATM   27  C   UNL     1      41.933 -13.841   5.627  1.00  0.00     0.001 A 
HETATM   28  C   UNL     1      40.980 -14.499   6.399  1.00  0.00     0.000 A 
HETATM   29  C   UNL     1      40.560 -15.774   6.037  1.00  0.00     0.001 A 
HETATM   30  C   UNL     1      41.102 -16.390   4.906  1.00  0.00     0.008 A 
ENDBRANCH  23  25
BRANCH  23  31
HETATM   31  C   UNL     1      43.138 -17.874   3.090  1.00  0.00    -0.044 A 
HETATM   32  C   UNL     1      43.891 -18.225   4.224  1.00  0.00     0.008 A 
HETATM   33  C   UNL     1      44.331 -19.536   4.428  1.00  0.00     0.001 A 
HETATM   34  C   UNL     1      44.022 -20.529   3.503  1.00  0.00     0.000 A 
HETATM   35  C   UNL     1      43.271 -20.213   2.376  1.00  0.00     0.001 A 
HETATM   36  C   UNL     1      42.834 -18.902   2.176  1.00  0.00     0.008 A 
ENDBRANCH  23  31
ENDBRANCH   2  22
TORSDOF 9
ENDMDL
MODEL 7
REMARK VINA RESULT:      -8.6      2.479      4.656
REMARK  9 active torsions:
REMARK  status: ('A' for Active; 'I' for Inactive)
REMARK    1  A    between atoms: O_2  and  C_3 
REMARK    2  A    between atoms: C_4  and  O_5 
REMARK    3  A    between atoms: C_6  and  C_7 
REMARK    4  A    between atoms: N_8  and  N_9 
REMARK       I    between atoms: N_9  and  C_10 
REMARK    5  A    between atoms: C_10  and  C_11 
REMARK    6  A    between atoms: C_11  and  N_12 
REMARK       I    between atoms: N_12  and  C_13 
REMARK    7  A    between atoms: C_13  and  C_14 
REMARK    8  A    between atoms: C_15  and  C_16 
REMARK    9  A    between atoms: C_15  and  C_22 
ROOT
HETATM    1  N   UNL     1      44.024 -13.202   6.266  1.00  0.00    -0.352 N 
HETATM    2  C   UNL     1      42.704 -13.558   6.158  1.00  0.00     0.223 C 
HETATM    3  O   UNL     1      41.780 -12.760   6.258  1.00  0.00    -0.273 OA
HETATM    4  H   UNL     1      44.742 -13.913   6.259  1.00  0.00     0.162 HD
ENDROOT
BRANCH   1   5
HETATM    5  C   UNL     1      44.434 -11.815   6.332  1.00  0.00     0.227 C 
BRANCH   5   6
HETATM    6  C   UNL     1      44.683 -11.312   7.752  1.00  0.00     0.255 C 
HETATM    7  N   UNL     1      43.506 -11.038   8.431  1.00  0.00    -0.246 N 
HETATM    8  H   UNL     1      42.612 -11.336   8.030  1.00  0.00     0.192 HD
HETATM    9  O   UNL     1      45.823 -11.145   8.182  1.00  0.00    -0.270 OA
BRANCH   7  10
HETATM   10  N   UNL     1      43.537 -10.338   9.597  1.00  0.00    -0.184 NA
HETATM   11  C   UNL     1      42.565  -9.494   9.756  1.00  0.00     0.153 C 
BRANCH  11  12
HETATM   12  C   UNL     1      42.503  -8.609  10.937  1.00  0.00     0.019 A 
HETATM   13  C   UNL     1      42.313  -9.147  12.211  1.00  0.00     0.110 A 
HETATM   14  C   UNL     1      42.200  -8.313  13.334  1.00  0.00     0.102 A 
HETATM   15  C   UNL     1      42.297  -6.930  13.171  1.00  0.00     0.040 A 
HETATM   16  C   UNL     1      42.495  -6.387  11.898  1.00  0.00     0.004 A 
HETATM   17  C   UNL     1      42.593  -7.222  10.783  1.00  0.00     0.016 A 
BRANCH  13  18
HETATM   18  O   UNL     1      42.212 -10.505  12.385  1.00  0.00    -0.357 OA
HETATM   19  H   UNL     1      41.612 -10.620  13.149  1.00  0.00     0.218 HD
ENDBRANCH  13  18
BRANCH  14  20
HETATM   20  O   UNL     1      41.993  -8.971  14.521  1.00  0.00    -0.353 OA
HETATM   21  C   UNL     1      41.378  -8.223  15.565  1.00  0.00     0.210 C 
ENDBRANCH  14  20
ENDBRANCH  11  12
ENDBRANCH   7  10
ENDBRANCH   5   6
ENDBRANCH   1   5
BRANCH   2  22
HETATM   22  C   UNL     1      42.503 -15.003   5.901  1.00  0.00     0.097 A 
HETATM   23  C   UNL     1      42.047 -15.505   4.521  1.00  0.00     0.027 A 
HETATM   24  C   UNL     1      41.148 -15.619   5.753  1.00  0.00     0.035 A 
BRANCH  23  25
HETATM   25  C   UNL     1      41.546 -14.557   3.424  1.00  0.00    -0.044 A 
HETATM   26  C   UNL     1      42.423 -13.832   2.597  1.00  0.00     0.008 A 
HETATM   27  C   UNL     1      41.948 -12.987   1.590  1.00  0.00     0.001 A 
HETATM   28  C   UNL     1      40.579 -12.859   1.374  1.00  0.00     0.000 A 
HETATM   29  C   UNL     1      39.687 -13.576   2.163  1.00  0.00     0.001 A 
HETATM   30  C   UNL     1      40.167 -14.414   3.172  1.00  0.00     0.008 A 
ENDBRANCH  23  25
BRANCH  23  31
HETATM   31  C   UNL     1      42.788 -16.742   4.004  1.00  0.00    -0.044 A 
HETATM   32  C   UNL     1      43.810 -17.362   4.744  1.00  0.00     0.008 A 
HETATM   33  C   UNL     1      44.467 -18.499   4.266  1.00  0.00     0.001 A 
HETATM   34  C   UNL     1      44.113 -19.045   3.036  1.00  0.00     0.000 A 
HETATM   35  C   UNL     1      43.099 -18.459   2.285  1.00  0.00     0.001 A 
HETATM   36  C   UNL     1      42.445 -17.322   2.768  1.00  0.00     0.008 A 
ENDBRANCH  23  31
ENDBRANCH   2  22
TORSDOF 9
ENDMDL
MODEL 8
REMARK VINA RESULT:      -8.4      5.570      8.353
REMARK  9 active torsions:
REMARK  status: ('A' for Active; 'I' for Inactive)
REMARK    1  A    between atoms: O_2  and  C_3 
REMARK    2  A    between atoms: C_4  and  O_5 
REMARK    3  A    between atoms: C_6  and  C_7 
REMARK    4  A    between atoms: N_8  and  N_9 
REMARK       I    between atoms: N_9  and  C_10 
REMARK    5  A    between atoms: C_10  and  C_11 
REMARK    6  A    between atoms: C_11  and  N_12 
REMARK       I    between atoms: N_12  and  C_13 
REMARK    7  A    between atoms: C_13  and  C_14 
REMARK    8  A    between atoms: C_15  and  C_16 
REMARK    9  A    between atoms: C_15  and  C_22 
ROOT
HETATM    1  N   UNL     1      41.349 -13.974   0.808  1.00  0.00    -0.352 N 
HETATM    2  C   UNL     1      41.064 -15.261   1.187  1.00  0.00     0.223 C 
HETATM    3  O   UNL     1      39.925 -15.679   1.350  1.00  0.00    -0.273 OA
HETATM    4  H   UNL     1      42.308 -13.659   0.769  1.00  0.00     0.162 HD
ENDROOT
BRANCH   1   5
HETATM    5  C   UNL     1      40.308 -13.055   0.398  1.00  0.00     0.227 C 
BRANCH   5   6
HETATM    6  C   UNL     1      40.341 -12.710  -1.089  1.00  0.00     0.255 C 
HETATM    7  N   UNL     1      41.075 -11.564  -1.352  1.00  0.00    -0.246 N 
HETATM    8  H   UNL     1      41.651 -11.154  -0.611  1.00  0.00     0.192 HD
HETATM    9  O   UNL     1      39.730 -13.385  -1.917  1.00  0.00    -0.270 OA
BRANCH   7  10
HETATM   10  N   UNL     1      40.993 -10.964  -2.571  1.00  0.00    -0.184 NA
HETATM   11  C   UNL     1      40.712  -9.699  -2.541  1.00  0.00     0.153 C 
BRANCH  11  12
HETATM   12  C   UNL     1      40.517  -8.927  -3.785  1.00  0.00     0.019 A 
HETATM   13  C   UNL     1      39.381  -9.132  -4.571  1.00  0.00     0.110 A 
HETATM   14  C   UNL     1      39.211  -8.444  -5.781  1.00  0.00     0.102 A 
HETATM   15  C   UNL     1      40.183  -7.530  -6.192  1.00  0.00     0.040 A 
HETATM   16  C   UNL     1      41.318  -7.315  -5.404  1.00  0.00     0.004 A 
HETATM   17  C   UNL     1      41.488  -8.014  -4.207  1.00  0.00     0.016 A 
BRANCH  13  18
HETATM   18  O   UNL     1      38.419 -10.030  -4.182  1.00  0.00    -0.357 OA
HETATM   19  H   UNL     1      37.714  -9.489  -3.773  1.00  0.00     0.218 HD
ENDBRANCH  13  18
BRANCH  14  20
HETATM   20  O   UNL     1      38.061  -8.757  -6.464  1.00  0.00    -0.353 OA
HETATM   21  C   UNL     1      37.909  -8.175  -7.755  1.00  0.00     0.210 C 
ENDBRANCH  14  20
ENDBRANCH  11  12
ENDBRANCH   7  10
ENDBRANCH   5   6
ENDBRANCH   1   5
BRANCH   2  22
HETATM   22  C   UNL     1      42.270 -16.100   1.374  1.00  0.00     0.097 A 
HETATM   23  C   UNL     1      42.770 -16.462   2.783  1.00  0.00     0.027 A 
HETATM   24  C   UNL     1      43.575 -15.549   1.858  1.00  0.00     0.035 A 
BRANCH  23  25
HETATM   25  C   UNL     1      42.217 -15.797   4.049  1.00  0.00    -0.044 A 
HETATM   26  C   UNL     1      41.125 -16.324   4.762  1.00  0.00     0.008 A 
HETATM   27  C   UNL     1      40.647 -15.714   5.925  1.00  0.00     0.001 A 
HETATM   28  C   UNL     1      41.262 -14.565   6.414  1.00  0.00     0.000 A 
HETATM   29  C   UNL     1      42.355 -14.029   5.743  1.00  0.00     0.001 A 
HETATM   30  C   UNL     1      42.824 -14.641   4.578  1.00  0.00     0.008 A 
ENDBRANCH  23  25
BRANCH  23  31
HETATM   31  C   UNL     1      43.193 -17.923   2.965  1.00  0.00    -0.044 A 
HETATM   32  C   UNL     1      43.936 -18.351   4.079  1.00  0.00     0.008 A 
HETATM   33  C   UNL     1      44.303 -19.690   4.239  1.00  0.00     0.001 A 
HETATM   34  C   UNL     1      43.930 -20.635   3.288  1.00  0.00     0.000 A 
HETATM   35  C   UNL     1      43.187 -20.243   2.179  1.00  0.00     0.001 A 
HETATM   36  C   UNL     1      42.823 -18.903   2.024  1.00  0.00     0.008 A 
ENDBRANCH  23  31
ENDBRANCH   2  22
TORSDOF 9
ENDMDL
MODEL 9
REMARK VINA RESULT:      -8.0      2.839      6.452
REMARK  9 active torsions:
REMARK  status: ('A' for Active; 'I' for Inactive)
REMARK    1  A    between atoms: O_2  and  C_3 
REMARK    2  A    between atoms: C_4  and  O_5 
REMARK    3  A    between atoms: C_6  and  C_7 
REMARK    4  A    between atoms: N_8  and  N_9 
REMARK       I    between atoms: N_9  and  C_10 
REMARK    5  A    between atoms: C_10  and  C_11 
REMARK    6  A    between atoms: C_11  and  N_12 
REMARK       I    between atoms: N_12  and  C_13 
REMARK    7  A    between atoms: C_13  and  C_14 
REMARK    8  A    between atoms: C_15  and  C_16 
REMARK    9  A    between atoms: C_15  and  C_22 
ROOT
HETATM    1  N   UNL     1      42.071 -13.157   6.236  1.00  0.00    -0.352 N 
HETATM    2  C   UNL     1      43.170 -13.966   6.366  1.00  0.00     0.223 C 
HETATM    3  O   UNL     1      44.321 -13.546   6.357  1.00  0.00    -0.273 OA
HETATM    4  H   UNL     1      41.148 -13.565   6.166  1.00  0.00     0.162 HD
ENDROOT
BRANCH   1   5
HETATM    5  C   UNL     1      42.182 -11.714   6.255  1.00  0.00     0.227 C 
BRANCH   5   6
HETATM    6  C   UNL     1      42.398 -11.093   4.878  1.00  0.00     0.255 C 
HETATM    7  N   UNL     1      41.207 -10.743   4.261  1.00  0.00    -0.246 N 
HETATM    8  H   UNL     1      40.337 -10.759   4.800  1.00  0.00     0.192 HD
HETATM    9  O   UNL     1      43.524 -10.979   4.396  1.00  0.00    -0.270 OA
BRANCH   7  10
HETATM   10  N   UNL     1      41.190 -10.428   2.937  1.00  0.00    -0.184 NA
HETATM   11  C   UNL     1      40.587 -11.287   2.176  1.00  0.00     0.153 C 
BRANCH  11  12
HETATM   12  C   UNL     1      40.551 -11.120   0.709  1.00  0.00     0.019 A 
HETATM   13  C   UNL     1      39.596 -11.795  -0.054  1.00  0.00     0.110 A 
HETATM   14  C   UNL     1      39.585 -11.686  -1.453  1.00  0.00     0.102 A 
HETATM   15  C   UNL     1      40.531 -10.875  -2.083  1.00  0.00     0.040 A 
HETATM   16  C   UNL     1      41.484 -10.190  -1.323  1.00  0.00     0.004 A 
HETATM   17  C   UNL     1      41.498 -10.314   0.068  1.00  0.00     0.016 A 
BRANCH  13  18
HETATM   18  O   UNL     1      38.663 -12.598   0.552  1.00  0.00    -0.357 OA
HETATM   19  H   UNL     1      39.067 -12.863   1.403  1.00  0.00     0.218 HD
ENDBRANCH  13  18
BRANCH  14  20
HETATM   20  O   UNL     1      38.608 -12.419  -2.080  1.00  0.00    -0.353 OA
HETATM   21  C   UNL     1      39.051 -13.446  -2.961  1.00  0.00     0.210 C 
ENDBRANCH  14  20
ENDBRANCH  11  12
ENDBRANCH   7  10
ENDBRANCH   5   6
ENDBRANCH   1   5
BRANCH   2  22
HETATM   22  C   UNL     1      42.832 -15.400   6.525  1.00  0.00     0.097 A 
HETATM   23  C   UNL     1      42.454 -16.261   5.309  1.00  0.00     0.027 A 
HETATM   24  C   UNL     1      41.436 -15.922   6.399  1.00  0.00     0.035 A 
BRANCH  23  25
HETATM   25  C   UNL     1      42.168 -15.658   3.929  1.00  0.00    -0.044 A 
HETATM   26  C   UNL     1      43.149 -14.976   3.187  1.00  0.00     0.008 A 
HETATM   27  C   UNL     1      42.876 -14.449   1.922  1.00  0.00     0.001 A 
HETATM   28  C   UNL     1      41.613 -14.605   1.359  1.00  0.00     0.000 A 
HETATM   29  C   UNL     1      40.626 -15.291   2.058  1.00  0.00     0.001 A 
HETATM   30  C   UNL     1      40.904 -15.810   3.325  1.00  0.00     0.008 A 
ENDBRANCH  23  25
BRANCH  23  31
HETATM   31  C   UNL     1      43.095 -17.652   5.276  1.00  0.00    -0.044 A 
HETATM   32  C   UNL     1      43.087 -18.504   6.394  1.00  0.00     0.008 A 
HETATM   33  C   UNL     1      43.663 -19.776   6.344  1.00  0.00     0.001 A 
HETATM   34  C   UNL     1      44.258 -20.228   5.170  1.00  0.00     0.000 A 
HETATM   35  C   UNL     1      44.273 -19.411   4.044  1.00  0.00     0.001 A 
HETATM   36  C   UNL     1      43.696 -18.140   4.099  1.00  0.00     0.008 A 
ENDBRANCH  23  31
ENDBRANCH   2  22
TORSDOF 9
ENDMDL
MODEL 10
REMARK VINA RESULT:      -7.9      4.459      7.533
REMARK  9 active torsions:
REMARK  status: ('A' for Active; 'I' for Inactive)
REMARK    1  A    between atoms: O_2  and  C_3 
REMARK    2  A    between atoms: C_4  and  O_5 
REMARK    3  A    between atoms: C_6  and  C_7 
REMARK    4  A    between atoms: N_8  and  N_9 
REMARK       I    between atoms: N_9  and  C_10 
REMARK    5  A    between atoms: C_10  and  C_11 
REMARK    6  A    between atoms: C_11  and  N_12 
REMARK       I    between atoms: N_12  and  C_13 
REMARK    7  A    between atoms: C_13  and  C_14 
REMARK    8  A    between atoms: C_15  and  C_16 
REMARK    9  A    between atoms: C_15  and  C_22 
ROOT
HETATM    1  N   UNL     1      40.114 -14.246   1.289  1.00  0.00    -0.352 N 
HETATM    2  C   UNL     1      39.969 -14.977   2.440  1.00  0.00     0.223 C 
HETATM    3  O   UNL     1      39.437 -16.079   2.475  1.00  0.00    -0.273 OA
HETATM    4  H   UNL     1      40.485 -13.306   1.329  1.00  0.00     0.162 HD
ENDROOT
BRANCH   1   5
HETATM    5  C   UNL     1      39.806 -14.804  -0.011  1.00  0.00     0.227 C 
BRANCH   5   6
HETATM    6  C   UNL     1      40.161 -13.885  -1.177  1.00  0.00     0.255 C 
HETATM    7  N   UNL     1      41.191 -13.011  -0.868  1.00  0.00    -0.246 N 
HETATM    8  H   UNL     1      41.726 -13.147  -0.006  1.00  0.00     0.192 HD
HETATM    9  O   UNL     1      39.540 -13.927  -2.239  1.00  0.00    -0.270 OA
BRANCH   7  10
HETATM   10  N   UNL     1      41.458 -11.954  -1.683  1.00  0.00    -0.184 NA
HETATM   11  C   UNL     1      41.204 -10.789  -1.171  1.00  0.00     0.153 C 
BRANCH  11  12
HETATM   12  C   UNL     1      41.373  -9.552  -1.959  1.00  0.00     0.019 A 
HETATM   13  C   UNL     1      41.976  -8.430  -1.389  1.00  0.00     0.110 A 
HETATM   14  C   UNL     1      42.093  -7.232  -2.110  1.00  0.00     0.102 A 
HETATM   15  C   UNL     1      41.616  -7.173  -3.421  1.00  0.00     0.040 A 
HETATM   16  C   UNL     1      41.019  -8.297  -4.000  1.00  0.00     0.004 A 
HETATM   17  C   UNL     1      40.893  -9.482  -3.271  1.00  0.00     0.016 A 
BRANCH  13  18
HETATM   18  O   UNL     1      42.446  -8.472  -0.100  1.00  0.00    -0.357 OA
HETATM   19  H   UNL     1      43.396  -8.246  -0.167  1.00  0.00     0.218 HD
ENDBRANCH  13  18
BRANCH  14  20
HETATM   20  O   UNL     1      42.686  -6.201  -1.423  1.00  0.00    -0.353 OA
HETATM   21  C   UNL     1      44.030  -5.891  -1.776  1.00  0.00     0.210 C 
ENDBRANCH  14  20
ENDBRANCH  11  12
ENDBRANCH   7  10
ENDBRANCH   5   6
ENDBRANCH   1   5
BRANCH   2  22
HETATM   22  C   UNL     1      40.523 -14.305   3.638  1.00  0.00     0.097 A 
HETATM   23  C   UNL     1      41.871 -14.741   4.236  1.00  0.00     0.027 A 
HETATM   24  C   UNL     1      40.556 -14.950   4.987  1.00  0.00     0.035 A 
BRANCH  23  25
HETATM   25  C   UNL     1      42.591 -16.022   3.797  1.00  0.00    -0.044 A 
HETATM   26  C   UNL     1      42.946 -16.265   2.458  1.00  0.00     0.008 A 
HETATM   27  C   UNL     1      43.619 -17.431   2.079  1.00  0.00     0.001 A 
HETATM   28  C   UNL     1      43.968 -18.378   3.037  1.00  0.00     0.000 A 
HETATM   29  C   UNL     1      43.648 -18.158   4.372  1.00  0.00     0.001 A 
HETATM   30  C   UNL     1      42.970 -16.995   4.743  1.00  0.00     0.008 A 
ENDBRANCH  23  25
BRANCH  23  31
HETATM   31  C   UNL     1      42.802 -13.594   4.640  1.00  0.00    -0.044 A 
HETATM   32  C   UNL     1      43.194 -13.387   5.974  1.00  0.00     0.008 A 
HETATM   33  C   UNL     1      44.057 -12.345   6.326  1.00  0.00     0.001 A 
HETATM   34  C   UNL     1      44.551 -11.487   5.347  1.00  0.00     0.000 A 
HETATM   35  C   UNL     1      44.188 -11.673   4.018  1.00  0.00     0.001 A 
HETATM   36  C   UNL     1      43.326 -12.716   3.672  1.00  0.00     0.008 A 
ENDBRANCH  23  31
ENDBRANCH   2  22
TORSDOF 9
ENDMDL
