MODEL 1
REMARK VINA RESULT:      -8.8      0.000      0.000
REMARK  4 active torsions:
REMARK  status: ('A' for Active; 'I' for Inactive)
REMARK    1  A    between atoms: C_4  and  O_5 
REMARK    2  A    between atoms: C_6  and  C_7 
REMARK    3  A    between atoms: C_11  and  C_12 
REMARK       I    between atoms: C_12  and  N_13 
REMARK    4  A    between atoms: C_19  and  O_20 
ROOT
HETATM    1  C   UNL     1      39.855 -13.026   1.138  1.00  0.00     0.065 A 
HETATM    2  N   UNL     1      39.060 -12.983   2.251  1.00  0.00    -0.277 N 
HETATM    3  H   UNL     1      38.064 -13.186   2.278  1.00  0.00     0.189 HD
HETATM    4  N   UNL     1      39.710 -12.714   3.397  1.00  0.00    -0.169 NA
HETATM    5  C   UNL     1      40.979 -12.468   3.006  1.00  0.00     0.148 A 
HETATM    6  C   UNL     1      41.105 -12.665   1.601  1.00  0.00     0.071 A 
ENDROOT
BRANCH   5   7
HETATM    7  C   UNL     1      42.095 -12.147   3.933  1.00  0.00     0.299 C 
HETATM    8  N   UNL     1      42.389 -13.066   4.907  1.00  0.00    -0.189 NA
HETATM    9  C   UNL     1      42.803 -14.233   4.562  1.00  0.00     0.154 C 
HETATM   10  S   UNL     1      43.332 -15.333   5.879  1.00  0.00    -0.056 SA
HETATM   11  N   UNL     1      42.915 -14.858   3.335  1.00  0.00    -0.236 NA
HETATM   12  C   UNL     1      43.531 -16.667   4.721  1.00  0.00     0.032 A 
HETATM   13  C   UNL     1      43.207 -16.231   3.432  1.00  0.00     0.032 A 
HETATM   14  C   UNL     1      43.903 -17.975   4.972  1.00  0.00     0.057 A 
HETATM   15  C   UNL     1      43.282 -17.108   2.362  1.00  0.00     0.028 A 
HETATM   16  C   UNL     1      43.652 -18.438   2.603  1.00  0.00     0.038 A 
HETATM   17  C   UNL     1      43.961 -18.874   3.902  1.00  0.00     0.069 A 
HETATM   18  H   UNL     1      42.177 -14.628   2.671  1.00  0.00     0.136 HD
HETATM   19  O   UNL     1      42.684 -11.074   3.847  1.00  0.00    -0.263 OA
BRANCH  17  20
HETATM   20  O   UNL     1      44.336 -20.144   4.249  1.00  0.00    -0.356 OA
HETATM   21  C   UNL     1      43.960 -20.599   5.543  1.00  0.00     0.210 C 
ENDBRANCH  17  20
ENDBRANCH   5   7
BRANCH   1  22
HETATM   22  C   UNL     1      39.355 -13.406  -0.190  1.00  0.00     0.025 A 
HETATM   23  C   UNL     1      38.437 -12.617  -0.909  1.00  0.00     0.078 A 
HETATM   24  C   UNL     1      37.948 -13.020  -2.157  1.00  0.00     0.044 A 
HETATM   25  C   UNL     1      38.363 -14.234  -2.716  1.00  0.00    -0.059 A 
HETATM   26  C   UNL     1      37.862 -14.671  -4.061  1.00  0.00     0.048 C 
HETATM   27  C   UNL     1      39.293 -15.015  -2.024  1.00  0.00     0.008 A 
HETATM   28  C   UNL     1      39.777 -14.608  -0.777  1.00  0.00     0.017 A 
BRANCH  23  29
HETATM   29  O   UNL     1      37.999 -11.423  -0.384  1.00  0.00    -0.360 OA
HETATM   30  H   UNL     1      37.094 -11.553  -0.048  1.00  0.00     0.217 HD
ENDBRANCH  23  29
ENDBRANCH   1  22
TORSDOF 4
ENDMDL
MODEL 2
REMARK VINA RESULT:      -8.7      7.043     11.204
REMARK  4 active torsions:
REMARK  status: ('A' for Active; 'I' for Inactive)
REMARK    1  A    between atoms: C_4  and  O_5 
REMARK    2  A    between atoms: C_6  and  C_7 
REMARK    3  A    between atoms: C_11  and  C_12 
REMARK       I    between atoms: C_12  and  N_13 
REMARK    4  A    between atoms: C_19  and  O_20 
ROOT
HETATM    1  C   UNL     1      43.516  -9.531  11.395  1.00  0.00     0.065 A 
HETATM    2  N   UNL     1      43.457 -10.843  11.008  1.00  0.00    -0.277 N 
HETATM    3  H   UNL     1      42.969 -11.586  11.503  1.00  0.00     0.189 HD
HETATM    4  N   UNL     1      44.048 -11.110   9.830  1.00  0.00    -0.169 NA
HETATM    5  C   UNL     1      44.613  -9.937   9.472  1.00  0.00     0.148 A 
HETATM    6  C   UNL     1      44.290  -8.927  10.423  1.00  0.00     0.071 A 
ENDROOT
BRANCH   5   7
HETATM    7  C   UNL     1      45.366  -9.720   8.210  1.00  0.00     0.299 C 
HETATM    8  N   UNL     1      45.198 -10.644   7.210  1.00  0.00    -0.189 NA
HETATM    9  C   UNL     1      44.038 -10.786   6.677  1.00  0.00     0.154 C 
HETATM   10  S   UNL     1      43.919 -11.885   5.261  1.00  0.00    -0.056 SA
HETATM   11  N   UNL     1      42.797 -10.262   6.988  1.00  0.00    -0.236 NA
HETATM   12  C   UNL     1      42.150 -11.720   5.248  1.00  0.00     0.032 A 
HETATM   13  C   UNL     1      41.743 -10.862   6.274  1.00  0.00     0.032 A 
HETATM   14  C   UNL     1      41.234 -12.338   4.415  1.00  0.00     0.057 A 
HETATM   15  C   UNL     1      40.398 -10.588   6.461  1.00  0.00     0.028 A 
HETATM   16  C   UNL     1      39.459 -11.212   5.628  1.00  0.00     0.038 A 
HETATM   17  C   UNL     1      39.872 -12.085   4.608  1.00  0.00     0.069 A 
HETATM   18  H   UNL     1      42.623 -10.145   7.984  1.00  0.00     0.136 HD
HETATM   19  O   UNL     1      46.142  -8.775   8.104  1.00  0.00    -0.263 OA
BRANCH  17  20
HETATM   20  O   UNL     1      39.045 -12.743   3.738  1.00  0.00    -0.356 OA
HETATM   21  C   UNL     1      39.658 -13.413   2.644  1.00  0.00     0.210 C 
ENDBRANCH  17  20
ENDBRANCH   5   7
BRANCH   1  22
HETATM   22  C   UNL     1      42.842  -9.018  12.595  1.00  0.00     0.025 A 
HETATM   23  C   UNL     1      41.642  -9.569  13.084  1.00  0.00     0.078 A 
HETATM   24  C   UNL     1      41.001  -9.038  14.209  1.00  0.00     0.044 A 
HETATM   25  C   UNL     1      41.543  -7.931  14.871  1.00  0.00    -0.059 A 
HETATM   26  C   UNL     1      40.876  -7.362  16.088  1.00  0.00     0.048 C 
HETATM   27  C   UNL     1      42.746  -7.389  14.409  1.00  0.00     0.008 A 
HETATM   28  C   UNL     1      43.383  -7.923  13.285  1.00  0.00     0.017 A 
BRANCH  23  29
HETATM   29  O   UNL     1      41.075 -10.651  12.452  1.00  0.00    -0.360 OA
HETATM   30  H   UNL     1      40.340 -10.973  13.002  1.00  0.00     0.217 HD
ENDBRANCH  23  29
ENDBRANCH   1  22
TORSDOF 4
ENDMDL
MODEL 3
REMARK VINA RESULT:      -8.5      2.246      7.579
REMARK  4 active torsions:
REMARK  status: ('A' for Active; 'I' for Inactive)
REMARK    1  A    between atoms: C_4  and  O_5 
REMARK    2  A    between atoms: C_6  and  C_7 
REMARK    3  A    between atoms: C_11  and  C_12 
REMARK       I    between atoms: C_12  and  N_13 
REMARK    4  A    between atoms: C_19  and  O_20 
ROOT
HETATM    1  C   UNL     1      42.431 -15.557   5.419  1.00  0.00     0.065 A 
HETATM    2  N   UNL     1      43.199 -14.423   5.409  1.00  0.00    -0.277 N 
HETATM    3  H   UNL     1      44.215 -14.396   5.370  1.00  0.00     0.189 HD
HETATM    4  N   UNL     1      42.504 -13.272   5.376  1.00  0.00    -0.169 NA
HETATM    5  C   UNL     1      41.215 -13.663   5.472  1.00  0.00     0.148 A 
HETATM    6  C   UNL     1      41.134 -15.085   5.489  1.00  0.00     0.071 A 
ENDROOT
BRANCH   5   7
HETATM    7  C   UNL     1      40.054 -12.736   5.449  1.00  0.00     0.299 C 
HETATM    8  N   UNL     1      39.933 -11.906   4.364  1.00  0.00    -0.189 NA
HETATM    9  C   UNL     1      39.746 -12.418   3.201  1.00  0.00     0.154 C 
HETATM   10  S   UNL     1      39.426 -11.280   1.849  1.00  0.00    -0.056 SA
HETATM   11  N   UNL     1      39.759 -13.722   2.742  1.00  0.00    -0.236 NA
HETATM   12  C   UNL     1      39.486 -12.613   0.677  1.00  0.00     0.032 A 
HETATM   13  C   UNL     1      39.729 -13.820   1.339  1.00  0.00     0.032 A 
HETATM   14  C   UNL     1      39.364 -12.554  -0.700  1.00  0.00     0.057 A 
HETATM   15  C   UNL     1      39.824 -15.002   0.621  1.00  0.00     0.028 A 
HETATM   16  C   UNL     1      39.708 -14.955  -0.775  1.00  0.00     0.038 A 
HETATM   17  C   UNL     1      39.480 -13.737  -1.437  1.00  0.00     0.069 A 
HETATM   18  H   UNL     1      40.444 -14.325   3.195  1.00  0.00     0.136 HD
HETATM   19  O   UNL     1      39.275 -12.693   6.396  1.00  0.00    -0.263 OA
BRANCH  17  20
HETATM   20  O   UNL     1      39.348 -13.578  -2.790  1.00  0.00    -0.356 OA
HETATM   21  C   UNL     1      38.262 -14.250  -3.417  1.00  0.00     0.210 C 
ENDBRANCH  17  20
ENDBRANCH   5   7
BRANCH   1  22
HETATM   22  C   UNL     1      42.998 -16.910   5.348  1.00  0.00     0.025 A 
HETATM   23  C   UNL     1      43.507 -17.457   4.155  1.00  0.00     0.078 A 
HETATM   24  C   UNL     1      44.008 -18.762   4.107  1.00  0.00     0.044 A 
HETATM   25  C   UNL     1      44.006 -19.560   5.256  1.00  0.00    -0.059 A 
HETATM   26  C   UNL     1      44.557 -20.955   5.224  1.00  0.00     0.048 C 
HETATM   27  C   UNL     1      43.526 -19.020   6.453  1.00  0.00     0.008 A 
HETATM   28  C   UNL     1      43.026 -17.715   6.496  1.00  0.00     0.017 A 
BRANCH  23  29
HETATM   29  O   UNL     1      43.514 -16.705   3.003  1.00  0.00    -0.360 OA
HETATM   30  H   UNL     1      44.027 -17.186   2.330  1.00  0.00     0.217 HD
ENDBRANCH  23  29
ENDBRANCH   1  22
TORSDOF 4
ENDMDL
MODEL 4
REMARK VINA RESULT:      -8.4      4.127      7.904
REMARK  4 active torsions:
REMARK  status: ('A' for Active; 'I' for Inactive)
REMARK    1  A    between atoms: C_4  and  O_5 
REMARK    2  A    between atoms: C_6  and  C_7 
REMARK    3  A    between atoms: C_11  and  C_12 
REMARK       I    between atoms: C_12  and  N_13 
REMARK    4  A    between atoms: C_19  and  O_20 
ROOT
HETATM    1  C   UNL     1      42.847 -15.002   3.999  1.00  0.00     0.065 A 
HETATM    2  N   UNL     1      42.612 -14.519   5.258  1.00  0.00    -0.277 N 
HETATM    3  H   UNL     1      42.592 -15.072   6.112  1.00  0.00     0.189 HD
HETATM    4  N   UNL     1      42.471 -13.184   5.332  1.00  0.00    -0.169 NA
HETATM    5  C   UNL     1      42.515 -12.777   4.046  1.00  0.00     0.148 A 
HETATM    6  C   UNL     1      42.761 -13.887   3.188  1.00  0.00     0.071 A 
ENDROOT
BRANCH   5   7
HETATM    7  C   UNL     1      42.430 -11.358   3.612  1.00  0.00     0.299 C 
HETATM    8  N   UNL     1      41.898 -10.459   4.500  1.00  0.00    -0.189 NA
HETATM    9  C   UNL     1      42.503 -10.245   5.613  1.00  0.00     0.154 C 
HETATM   10  S   UNL     1      41.853  -8.937   6.658  1.00  0.00    -0.056 SA
HETATM   11  N   UNL     1      43.590 -10.851   6.216  1.00  0.00    -0.236 NA
HETATM   12  C   UNL     1      42.986  -9.374   7.955  1.00  0.00     0.032 A 
HETATM   13  C   UNL     1      43.785 -10.448   7.550  1.00  0.00     0.032 A 
HETATM   14  C   UNL     1      43.103  -8.820   9.218  1.00  0.00     0.057 A 
HETATM   15  C   UNL     1      44.742 -10.967   8.407  1.00  0.00     0.028 A 
HETATM   16  C   UNL     1      44.866 -10.419   9.691  1.00  0.00     0.038 A 
HETATM   17  C   UNL     1      44.052  -9.350  10.099  1.00  0.00     0.069 A 
HETATM   18  H   UNL     1      43.656 -11.856   6.062  1.00  0.00     0.136 HD
HETATM   19  O   UNL     1      42.778 -11.032   2.481  1.00  0.00    -0.263 OA
BRANCH  17  20
HETATM   20  O   UNL     1      44.091  -8.739  11.323  1.00  0.00    -0.356 OA
HETATM   21  C   UNL     1      42.883  -8.154  11.794  1.00  0.00     0.210 C 
ENDBRANCH  17  20
ENDBRANCH   5   7
BRANCH   1  22
HETATM   22  C   UNL     1      43.133 -16.416   3.723  1.00  0.00     0.025 A 
HETATM   23  C   UNL     1      43.950 -17.201   4.559  1.00  0.00     0.078 A 
HETATM   24  C   UNL     1      44.236 -18.537   4.254  1.00  0.00     0.044 A 
HETATM   25  C   UNL     1      43.714 -19.121   3.095  1.00  0.00    -0.059 A 
HETATM   26  C   UNL     1      43.997 -20.557   2.764  1.00  0.00     0.048 C 
HETATM   27  C   UNL     1      42.881 -18.360   2.270  1.00  0.00     0.008 A 
HETATM   28  C   UNL     1      42.599 -17.025   2.579  1.00  0.00     0.017 A 
BRANCH  23  29
HETATM   29  O   UNL     1      44.490 -16.656   5.701  1.00  0.00    -0.360 OA
HETATM   30  H   UNL     1      44.010 -17.020   6.466  1.00  0.00     0.217 HD
ENDBRANCH  23  29
ENDBRANCH   1  22
TORSDOF 4
ENDMDL
MODEL 5
REMARK VINA RESULT:      -8.4      2.313      7.576
REMARK  4 active torsions:
REMARK  status: ('A' for Active; 'I' for Inactive)
REMARK    1  A    between atoms: C_4  and  O_5 
REMARK    2  A    between atoms: C_6  and  C_7 
REMARK    3  A    between atoms: C_11  and  C_12 
REMARK       I    between atoms: C_12  and  N_13 
REMARK    4  A    between atoms: C_19  and  O_20 
ROOT
HETATM    1  C   UNL     1      42.215 -15.684   4.305  1.00  0.00     0.065 A 
HETATM    2  N   UNL     1      43.027 -14.680   4.759  1.00  0.00    -0.277 N 
HETATM    3  H   UNL     1      44.040 -14.723   4.832  1.00  0.00     0.189 HD
HETATM    4  N   UNL     1      42.392 -13.532   5.056  1.00  0.00    -0.169 NA
HETATM    5  C   UNL     1      41.085 -13.825   4.886  1.00  0.00     0.148 A 
HETATM    6  C   UNL     1      40.940 -15.159   4.406  1.00  0.00     0.071 A 
ENDROOT
BRANCH   5   7
HETATM    7  C   UNL     1      39.976 -12.853   5.070  1.00  0.00     0.299 C 
HETATM    8  N   UNL     1      39.928 -11.784   4.212  1.00  0.00    -0.189 NA
HETATM    9  C   UNL     1      39.743 -11.996   2.958  1.00  0.00     0.154 C 
HETATM   10  S   UNL     1      39.519 -10.553   1.911  1.00  0.00    -0.056 SA
HETATM   11  N   UNL     1      39.698 -13.153   2.203  1.00  0.00    -0.236 NA
HETATM   12  C   UNL     1      39.538 -11.573   0.456  1.00  0.00     0.032 A 
HETATM   13  C   UNL     1      39.698 -12.915   0.816  1.00  0.00     0.032 A 
HETATM   14  C   UNL     1      39.454 -11.183  -0.869  1.00  0.00     0.057 A 
HETATM   15  C   UNL     1      39.748 -13.896  -0.161  1.00  0.00     0.028 A 
HETATM   16  C   UNL     1      39.671 -13.514  -1.507  1.00  0.00     0.038 A 
HETATM   17  C   UNL     1      39.526 -12.164  -1.864  1.00  0.00     0.069 A 
HETATM   18  H   UNL     1      40.338 -13.884   2.508  1.00  0.00     0.136 HD
HETATM   19  O   UNL     1      39.176 -12.990   5.990  1.00  0.00    -0.263 OA
BRANCH  17  20
HETATM   20  O   UNL     1      39.437 -11.682  -3.142  1.00  0.00    -0.356 OA
HETATM   21  C   UNL     1      38.814 -10.415  -3.313  1.00  0.00     0.210 C 
ENDBRANCH  17  20
ENDBRANCH   5   7
BRANCH   1  22
HETATM   22  C   UNL     1      42.726 -16.976   3.830  1.00  0.00     0.025 A 
HETATM   23  C   UNL     1      43.641 -17.748   4.572  1.00  0.00     0.078 A 
HETATM   24  C   UNL     1      44.140 -18.959   4.080  1.00  0.00     0.044 A 
HETATM   25  C   UNL     1      43.741 -19.427   2.823  1.00  0.00    -0.059 A 
HETATM   26  C   UNL     1      44.254 -20.732   2.290  1.00  0.00     0.048 C 
HETATM   27  C   UNL     1      42.815 -18.682   2.088  1.00  0.00     0.008 A 
HETATM   28  C   UNL     1      42.319 -17.472   2.583  1.00  0.00     0.017 A 
BRANCH  23  29
HETATM   29  O   UNL     1      44.064 -17.313   5.807  1.00  0.00    -0.360 OA
HETATM   30  H   UNL     1      44.975 -17.627   5.942  1.00  0.00     0.217 HD
ENDBRANCH  23  29
ENDBRANCH   1  22
TORSDOF 4
ENDMDL
MODEL 6
REMARK VINA RESULT:      -8.4      3.509      7.525
REMARK  4 active torsions:
REMARK  status: ('A' for Active; 'I' for Inactive)
REMARK    1  A    between atoms: C_4  and  O_5 
REMARK    2  A    between atoms: C_6  and  C_7 
REMARK    3  A    between atoms: C_11  and  C_12 
REMARK       I    between atoms: C_12  and  N_13 
REMARK    4  A    between atoms: C_19  and  O_20 
ROOT
HETATM    1  C   UNL     1      43.007 -15.651   3.336  1.00  0.00     0.065 A 
HETATM    2  N   UNL     1      43.503 -15.139   2.167  1.00  0.00    -0.277 N 
HETATM    3  H   UNL     1      44.160 -15.607   1.547  1.00  0.00     0.189 HD
HETATM    4  N   UNL     1      42.995 -13.946   1.814  1.00  0.00    -0.169 NA
HETATM    5  C   UNL     1      42.200 -13.606   2.851  1.00  0.00     0.148 A 
HETATM    6  C   UNL     1      42.176 -14.655   3.814  1.00  0.00     0.071 A 
ENDROOT
BRANCH   5   7
HETATM    7  C   UNL     1      41.387 -12.364   2.914  1.00  0.00     0.299 C 
HETATM    8  N   UNL     1      41.089 -11.869   4.157  1.00  0.00    -0.189 NA
HETATM    9  C   UNL     1      42.044 -11.468   4.918  1.00  0.00     0.154 C 
HETATM   10  S   UNL     1      41.581 -10.675   6.461  1.00  0.00    -0.056 SA
HETATM   11  N   UNL     1      43.420 -11.539   4.804  1.00  0.00    -0.236 NA
HETATM   12  C   UNL     1      43.282 -10.618   6.973  1.00  0.00     0.032 A 
HETATM   13  C   UNL     1      44.097 -11.175   5.982  1.00  0.00     0.032 A 
HETATM   14  C   UNL     1      43.806 -10.151   8.165  1.00  0.00     0.057 A 
HETATM   15  C   UNL     1      45.468 -11.244   6.167  1.00  0.00     0.028 A 
HETATM   16  C   UNL     1      46.012 -10.781   7.373  1.00  0.00     0.038 A 
HETATM   17  C   UNL     1      45.187 -10.236   8.371  1.00  0.00     0.069 A 
HETATM   18  H   UNL     1      43.766 -12.389   4.361  1.00  0.00     0.136 HD
HETATM   19  O   UNL     1      40.965 -11.846   1.885  1.00  0.00    -0.263 OA
BRANCH  17  20
HETATM   20  O   UNL     1      45.611  -9.752   9.579  1.00  0.00    -0.356 OA
HETATM   21  C   UNL     1      44.747  -9.946  10.692  1.00  0.00     0.210 C 
ENDBRANCH  17  20
ENDBRANCH   5   7
BRANCH   1  22
HETATM   22  C   UNL     1      43.355 -16.986   3.839  1.00  0.00     0.025 A 
HETATM   23  C   UNL     1      43.481 -18.105   2.993  1.00  0.00     0.078 A 
HETATM   24  C   UNL     1      43.779 -19.374   3.502  1.00  0.00     0.044 A 
HETATM   25  C   UNL     1      43.950 -19.558   4.878  1.00  0.00    -0.059 A 
HETATM   26  C   UNL     1      44.287 -20.909   5.436  1.00  0.00     0.048 C 
HETATM   27  C   UNL     1      43.852 -18.451   5.726  1.00  0.00     0.008 A 
HETATM   28  C   UNL     1      43.554 -17.185   5.212  1.00  0.00     0.017 A 
BRANCH  23  29
HETATM   29  O   UNL     1      43.307 -17.963   1.636  1.00  0.00    -0.360 OA
HETATM   30  H   UNL     1      44.165 -18.120   1.202  1.00  0.00     0.217 HD
ENDBRANCH  23  29
ENDBRANCH   1  22
TORSDOF 4
ENDMDL
MODEL 7
REMARK VINA RESULT:      -8.2      4.779      9.009
REMARK  4 active torsions:
REMARK  status: ('A' for Active; 'I' for Inactive)
REMARK    1  A    between atoms: C_4  and  O_5 
REMARK    2  A    between atoms: C_6  and  C_7 
REMARK    3  A    between atoms: C_11  and  C_12 
REMARK       I    between atoms: C_12  and  N_13 
REMARK    4  A    between atoms: C_19  and  O_20 
ROOT
HETATM    1  C   UNL     1      40.269 -14.316   0.415  1.00  0.00     0.065 A 
HETATM    2  N   UNL     1      39.480 -13.247   0.744  1.00  0.00    -0.277 N 
HETATM    3  H   UNL     1      39.324 -12.891   1.684  1.00  0.00     0.189 HD
HETATM    4  N   UNL     1      38.942 -12.599  -0.305  1.00  0.00    -0.169 NA
HETATM    5  C   UNL     1      39.313 -13.338  -1.373  1.00  0.00     0.148 A 
HETATM    6  C   UNL     1      40.152 -14.411  -0.958  1.00  0.00     0.071 A 
ENDROOT
BRANCH   5   7
HETATM    7  C   UNL     1      38.978 -13.003  -2.781  1.00  0.00     0.299 C 
HETATM    8  N   UNL     1      38.643 -11.702  -3.056  1.00  0.00    -0.189 NA
HETATM    9  C   UNL     1      39.519 -10.779  -2.881  1.00  0.00     0.154 C 
HETATM   10  S   UNL     1      39.079  -9.123  -3.417  1.00  0.00    -0.056 SA
HETATM   11  N   UNL     1      40.783 -10.786  -2.321  1.00  0.00    -0.236 NA
HETATM   12  C   UNL     1      40.570  -8.467  -2.708  1.00  0.00     0.032 A 
HETATM   13  C   UNL     1      41.314  -9.498  -2.124  1.00  0.00     0.032 A 
HETATM   14  C   UNL     1      40.992  -7.151  -2.657  1.00  0.00     0.057 A 
HETATM   15  C   UNL     1      42.519  -9.219  -1.500  1.00  0.00     0.028 A 
HETATM   16  C   UNL     1      42.955  -7.889  -1.436  1.00  0.00     0.038 A 
HETATM   17  C   UNL     1      42.197  -6.855  -2.010  1.00  0.00     0.069 A 
HETATM   18  H   UNL     1      40.894 -11.416  -1.528  1.00  0.00     0.136 HD
HETATM   19  O   UNL     1      38.958 -13.880  -3.640  1.00  0.00    -0.263 OA
BRANCH  17  20
HETATM   20  O   UNL     1      42.529  -5.528  -2.009  1.00  0.00    -0.356 OA
HETATM   21  C   UNL     1      43.720  -5.159  -1.325  1.00  0.00     0.210 C 
ENDBRANCH  17  20
ENDBRANCH   5   7
BRANCH   1  22
HETATM   22  C   UNL     1      41.028 -15.087   1.408  1.00  0.00     0.025 A 
HETATM   23  C   UNL     1      40.422 -15.682   2.531  1.00  0.00     0.078 A 
HETATM   24  C   UNL     1      41.175 -16.381   3.481  1.00  0.00     0.044 A 
HETATM   25  C   UNL     1      42.561 -16.497   3.335  1.00  0.00    -0.059 A 
HETATM   26  C   UNL     1      43.378 -17.259   4.336  1.00  0.00     0.048 C 
HETATM   27  C   UNL     1      43.172 -15.933   2.211  1.00  0.00     0.008 A 
HETATM   28  C   UNL     1      42.415 -15.234   1.265  1.00  0.00     0.017 A 
BRANCH  23  29
HETATM   29  O   UNL     1      39.062 -15.578   2.714  1.00  0.00    -0.360 OA
HETATM   30  H   UNL     1      38.860 -14.660   2.967  1.00  0.00     0.217 HD
ENDBRANCH  23  29
ENDBRANCH   1  22
TORSDOF 4
ENDMDL
MODEL 8
REMARK VINA RESULT:      -8.0      5.498      9.175
REMARK  4 active torsions:
REMARK  status: ('A' for Active; 'I' for Inactive)
REMARK    1  A    between atoms: C_4  and  O_5 
REMARK    2  A    between atoms: C_6  and  C_7 
REMARK    3  A    between atoms: C_11  and  C_12 
REMARK       I    between atoms: C_12  and  N_13 
REMARK    4  A    between atoms: C_19  and  O_20 
ROOT
HETATM    1  C   UNL     1      41.483  -9.433   8.852  1.00  0.00     0.065 A 
HETATM    2  N   UNL     1      42.319  -9.880   7.865  1.00  0.00    -0.277 N 
HETATM    3  H   UNL     1      43.336  -9.868   7.898  1.00  0.00     0.189 HD
HETATM    4  N   UNL     1      41.699 -10.440   6.811  1.00  0.00    -0.169 NA
HETATM    5  C   UNL     1      40.386 -10.263   7.070  1.00  0.00     0.148 A 
HETATM    6  C   UNL     1      40.216  -9.647   8.343  1.00  0.00     0.071 A 
ENDROOT
BRANCH   5   7
HETATM    7  C   UNL     1      39.286 -10.745   6.196  1.00  0.00     0.299 C 
HETATM    8  N   UNL     1      39.632 -11.518   5.117  1.00  0.00    -0.189 NA
HETATM    9  C   UNL     1      40.185 -12.661   5.317  1.00  0.00     0.154 C 
HETATM   10  S   UNL     1      40.460 -13.698   3.877  1.00  0.00    -0.056 SA
HETATM   11  N   UNL     1      40.653 -13.284   6.459  1.00  0.00    -0.236 NA
HETATM   12  C   UNL     1      41.355 -14.875   4.863  1.00  0.00     0.032 A 
HETATM   13  C   UNL     1      41.397 -14.449   6.194  1.00  0.00     0.032 A 
HETATM   14  C   UNL     1      41.983 -16.038   4.455  1.00  0.00     0.057 A 
HETATM   15  C   UNL     1      42.053 -15.210   7.148  1.00  0.00     0.028 A 
HETATM   16  C   UNL     1      42.698 -16.387   6.747  1.00  0.00     0.038 A 
HETATM   17  C   UNL     1      42.666 -16.803   5.406  1.00  0.00     0.069 A 
HETATM   18  H   UNL     1      41.076 -12.657   7.142  1.00  0.00     0.136 HD
HETATM   19  O   UNL     1      38.125 -10.412   6.416  1.00  0.00    -0.263 OA
BRANCH  17  20
HETATM   20  O   UNL     1      43.257 -17.932   4.907  1.00  0.00    -0.356 OA
HETATM   21  C   UNL     1      43.622 -17.918   3.533  1.00  0.00     0.210 C 
ENDBRANCH  17  20
ENDBRANCH   5   7
BRANCH   1  22
HETATM   22  C   UNL     1      41.967  -8.888  10.127  1.00  0.00     0.025 A 
HETATM   23  C   UNL     1      42.751  -9.640  11.023  1.00  0.00     0.078 A 
HETATM   24  C   UNL     1      43.169  -9.108  12.249  1.00  0.00     0.044 A 
HETATM   25  C   UNL     1      42.804  -7.807  12.613  1.00  0.00    -0.059 A 
HETATM   26  C   UNL     1      43.260  -7.218  13.915  1.00  0.00     0.048 C 
HETATM   27  C   UNL     1      42.047  -7.043  11.721  1.00  0.00     0.008 A 
HETATM   28  C   UNL     1      41.631  -7.578  10.498  1.00  0.00     0.017 A 
BRANCH  23  29
HETATM   29  O   UNL     1      43.118 -10.926  10.703  1.00  0.00    -0.360 OA
HETATM   30  H   UNL     1      42.556 -11.537  11.211  1.00  0.00     0.217 HD
ENDBRANCH  23  29
ENDBRANCH   1  22
TORSDOF 4
ENDMDL
MODEL 9
REMARK VINA RESULT:      -7.6     15.367     18.582
REMARK  4 active torsions:
REMARK  status: ('A' for Active; 'I' for Inactive)
REMARK    1  A    between atoms: C_4  and  O_5 
REMARK    2  A    between atoms: C_6  and  C_7 
REMARK    3  A    between atoms: C_11  and  C_12 
REMARK       I    between atoms: C_12  and  N_13 
REMARK    4  A    between atoms: C_19  and  O_20 
ROOT
HETATM    1  C   UNL     1      47.712 -29.181   1.261  1.00  0.00     0.065 A 
HETATM    2  N   UNL     1      48.025 -28.353   0.217  1.00  0.00    -0.277 N 
HETATM    3  H   UNL     1      48.942 -27.957   0.028  1.00  0.00     0.189 HD
HETATM    4  N   UNL     1      47.018 -28.130  -0.646  1.00  0.00    -0.169 NA
HETATM    5  C   UNL     1      45.961 -28.760  -0.090  1.00  0.00     0.148 A 
HETATM    6  C   UNL     1      46.363 -29.435   1.098  1.00  0.00     0.071 A 
ENDROOT
BRANCH   5   7
HETATM    7  C   UNL     1      44.607 -28.822  -0.697  1.00  0.00     0.299 C 
HETATM    8  N   UNL     1      44.528 -28.777  -2.066  1.00  0.00    -0.189 NA
HETATM    9  C   UNL     1      45.052 -29.727  -2.754  1.00  0.00     0.154 C 
HETATM   10  S   UNL     1      44.770 -29.701  -4.528  1.00  0.00    -0.056 SA
HETATM   11  N   UNL     1      45.841 -30.807  -2.406  1.00  0.00    -0.236 NA
HETATM   12  C   UNL     1      45.877 -31.072  -4.751  1.00  0.00     0.032 A 
HETATM   13  C   UNL     1      46.387 -31.481  -3.514  1.00  0.00     0.032 A 
HETATM   14  C   UNL     1      46.267 -31.681  -5.931  1.00  0.00     0.057 A 
HETATM   15  C   UNL     1      47.282 -32.536  -3.444  1.00  0.00     0.028 A 
HETATM   16  C   UNL     1      47.689 -33.157  -4.633  1.00  0.00     0.038 A 
HETATM   17  C   UNL     1      47.186 -32.733  -5.874  1.00  0.00     0.069 A 
HETATM   18  H   UNL     1      46.502 -30.625  -1.653  1.00  0.00     0.136 HD
HETATM   19  O   UNL     1      43.608 -28.859   0.015  1.00  0.00    -0.263 OA
BRANCH  17  20
HETATM   20  O   UNL     1      47.512 -33.269  -7.091  1.00  0.00    -0.356 OA
HETATM   21  C   UNL     1      47.126 -32.533  -8.245  1.00  0.00     0.210 C 
ENDBRANCH  17  20
ENDBRANCH   5   7
BRANCH   1  22
HETATM   22  C   UNL     1      48.699 -29.631   2.251  1.00  0.00     0.025 A 
HETATM   23  C   UNL     1      50.051 -29.851   1.927  1.00  0.00     0.078 A 
HETATM   24  C   UNL     1      50.964 -30.314   2.882  1.00  0.00     0.044 A 
HETATM   25  C   UNL     1      50.542 -30.578   4.189  1.00  0.00    -0.059 A 
HETATM   26  C   UNL     1      51.513 -31.058   5.227  1.00  0.00     0.048 C 
HETATM   27  C   UNL     1      49.208 -30.340   4.530  1.00  0.00     0.008 A 
HETATM   28  C   UNL     1      48.299 -29.877   3.573  1.00  0.00     0.017 A 
BRANCH  23  29
HETATM   29  O   UNL     1      50.498 -29.613   0.648  1.00  0.00    -0.360 OA
HETATM   30  H   UNL     1      51.021 -30.382   0.362  1.00  0.00     0.217 HD
ENDBRANCH  23  29
ENDBRANCH   1  22
TORSDOF 4
ENDMDL
MODEL 10
REMARK VINA RESULT:      -7.6      3.667      6.551
REMARK  4 active torsions:
REMARK  status: ('A' for Active; 'I' for Inactive)
REMARK    1  A    between atoms: C_4  and  O_5 
REMARK    2  A    between atoms: C_6  and  C_7 
REMARK    3  A    between atoms: C_11  and  C_12 
REMARK       I    between atoms: C_12  and  N_13 
REMARK    4  A    between atoms: C_19  and  O_20 
ROOT
HETATM    1  C   UNL     1      41.037 -13.954   2.825  1.00  0.00     0.065 A 
HETATM    2  N   UNL     1      40.084 -13.907   3.806  1.00  0.00    -0.277 N 
HETATM    3  H   UNL     1      39.091 -13.739   3.661  1.00  0.00     0.189 HD
HETATM    4  N   UNL     1      40.534 -14.183   5.043  1.00  0.00    -0.169 NA
HETATM    5  C   UNL     1      41.868 -14.319   4.885  1.00  0.00     0.148 A 
HETATM    6  C   UNL     1      42.214 -14.192   3.509  1.00  0.00     0.071 A 
ENDROOT
BRANCH   5   7
HETATM    7  C   UNL     1      42.812 -14.660   5.980  1.00  0.00     0.299 C 
HETATM    8  N   UNL     1      43.797 -13.751   6.269  1.00  0.00    -0.189 NA
HETATM    9  C   UNL     1      43.468 -12.588   6.704  1.00  0.00     0.154 C 
HETATM   10  S   UNL     1      44.801 -11.503   7.224  1.00  0.00    -0.056 SA
HETATM   11  N   UNL     1      42.247 -11.955   6.845  1.00  0.00    -0.236 NA
HETATM   12  C   UNL     1      43.657 -10.165   7.460  1.00  0.00     0.032 A 
HETATM   13  C   UNL     1      42.359 -10.587   7.154  1.00  0.00     0.032 A 
HETATM   14  C   UNL     1      43.923  -8.863   7.845  1.00  0.00     0.057 A 
HETATM   15  C   UNL     1      41.297  -9.704   7.259  1.00  0.00     0.028 A 
HETATM   16  C   UNL     1      41.554  -8.380   7.641  1.00  0.00     0.038 A 
HETATM   17  C   UNL     1      42.861  -7.957   7.933  1.00  0.00     0.069 A 
HETATM   18  H   UNL     1      41.569 -12.172   6.116  1.00  0.00     0.136 HD
HETATM   19  O   UNL     1      42.729 -15.740   6.557  1.00  0.00    -0.263 OA
BRANCH  17  20
HETATM   20  O   UNL     1      43.223  -6.695   8.318  1.00  0.00    -0.356 OA
HETATM   21  C   UNL     1      43.128  -6.389   9.704  1.00  0.00     0.210 C 
ENDBRANCH  17  20
ENDBRANCH   5   7
BRANCH   1  22
HETATM   22  C   UNL     1      40.729 -13.787   1.399  1.00  0.00     0.025 A 
HETATM   23  C   UNL     1      40.034 -14.760   0.655  1.00  0.00     0.078 A 
HETATM   24  C   UNL     1      39.785 -14.591  -0.712  1.00  0.00     0.044 A 
HETATM   25  C   UNL     1      40.234 -13.444  -1.374  1.00  0.00    -0.059 A 
HETATM   26  C   UNL     1      39.958 -13.241  -2.834  1.00  0.00     0.048 C 
HETATM   27  C   UNL     1      40.903 -12.459  -0.641  1.00  0.00     0.008 A 
HETATM   28  C   UNL     1      41.150 -12.632   0.725  1.00  0.00     0.017 A 
BRANCH  23  29
HETATM   29  O   UNL     1      39.589 -15.906   1.270  1.00  0.00    -0.360 OA
HETATM   30  H   UNL     1      40.291 -16.223   1.865  1.00  0.00     0.217 HD
ENDBRANCH  23  29
ENDBRANCH   1  22
TORSDOF 4
ENDMDL
