MODEL 1
REMARK VINA RESULT:      -8.6      0.000      0.000
REMARK  11 active torsions:
REMARK  status: ('A' for Active; 'I' for Inactive)
REMARK    1  A    between atoms: N_2  and  C_4 
REMARK    2  A    between atoms: C_4  and  C_5 
REMARK    3  A    between atoms: C_5  and  C_6 
REMARK    4  A    between atoms: C_6  and  N_7 
REMARK    5  A    between atoms: N_7  and  C_8 
REMARK    6  A    between atoms: N_7  and  C_21 
REMARK    7  A    between atoms: C_8  and  N_9 
REMARK    8  A    between atoms: N_9  and  C_10 
REMARK    9  A    between atoms: C_11  and  C_12 
REMARK   10  A    between atoms: C_12  and  O_13 
REMARK   11  A    between atoms: C_21  and  C_22 
ROOT
HETATM    1  N   UNL     1      41.312 -15.124   2.605  1.00  0.00    -0.354 N 
ENDROOT
BRANCH   1   2
HETATM    2  C   UNL     1      40.409 -15.528   1.508  1.00  0.00     0.127 C 
BRANCH   2   3
HETATM    3  C   UNL     1      40.186 -14.484   0.404  1.00  0.00     0.047 C 
BRANCH   3   4
HETATM    4  C   UNL     1      39.469 -15.046  -0.821  1.00  0.00     0.235 C 
BRANCH   4   5
HETATM    5  N   UNL     1      38.626 -13.960  -1.476  1.00  0.00    -0.079 N 
HETATM    6  C   UNL     1      38.904 -13.783  -2.943  1.00  0.00     0.269 C 
HETATM    7  H   UNL     1      37.641 -14.244  -1.381  1.00  0.00     0.278 HD
HETATM    8  C   UNL     1      38.744 -12.653  -0.736  1.00  0.00     0.269 C 
ENDBRANCH   4   5
ENDBRANCH   3   4
ENDBRANCH   2   3
ENDBRANCH   1   2
BRANCH   1   9
HETATM    9  C   UNL     1      41.677 -15.962   3.697  1.00  0.00     0.174 C 
HETATM   10  S   UNL     1      40.735 -16.061   5.078  1.00  0.00    -0.041 SA
BRANCH   9  11
HETATM   11  N   UNL     1      42.873 -16.624   3.457  1.00  0.00    -0.332 N 
HETATM   12  H   UNL     1      43.682 -16.057   3.710  1.00  0.00     0.168 HD
BRANCH  11  13
HETATM   13  C   UNL     1      43.213 -18.002   3.337  1.00  0.00     0.050 A 
HETATM   14  C   UNL     1      43.698 -18.687   4.484  1.00  0.00     0.066 A 
HETATM   15  C   UNL     1      44.022 -20.053   4.411  1.00  0.00     0.020 A 
HETATM   16  C   UNL     1      43.880 -20.744   3.211  1.00  0.00     0.001 A 
HETATM   17  C   UNL     1      43.436 -20.073   2.077  1.00  0.00     0.002 A 
HETATM   18  C   UNL     1      43.114 -18.713   2.138  1.00  0.00     0.030 A 
BRANCH  14  19
HETATM   19  C   UNL     1      43.863 -17.963   5.779  1.00  0.00     0.295 C 
HETATM   20  O   UNL     1      43.339 -18.348   6.817  1.00  0.00    -0.259 OA
BRANCH  19  21
HETATM   21  O   UNL     1      44.686 -16.899   5.650  1.00  0.00    -0.322 OA
HETATM   22  C   UNL     1      44.407 -15.808   6.535  1.00  0.00     0.213 C 
ENDBRANCH  19  21
ENDBRANCH  14  19
ENDBRANCH  11  13
ENDBRANCH   9  11
ENDBRANCH   1   9
BRANCH   1  23
HETATM   23  C   UNL     1      42.166 -13.937   2.303  1.00  0.00     0.169 C 
BRANCH  23  24
HETATM   24  C   UNL     1      42.308 -12.990   3.475  1.00  0.00     0.029 A 
HETATM   25  C   UNL     1      41.147 -12.054   3.642  1.00  0.00     0.253 A 
HETATM   26  O   UNL     1      40.226 -12.042   2.831  1.00  0.00    -0.268 OA
HETATM   27  N   UNL     1      41.161 -11.212   4.724  1.00  0.00    -0.322 N 
HETATM   28  C   UNL     1      42.192 -11.174   5.671  1.00  0.00     0.048 A 
HETATM   29  H   UNL     1      40.359 -10.601   4.823  1.00  0.00     0.169 HD
HETATM   30  C   UNL     1      43.290 -12.023   5.505  1.00  0.00    -0.006 A 
HETATM   31  C   UNL     1      42.118 -10.317   6.769  1.00  0.00     0.070 A 
HETATM   32  C   UNL     1      44.325 -12.018   6.443  1.00  0.00     0.053 A 
HETATM   33  C   UNL     1      43.320 -12.927   4.359  1.00  0.00     0.028 A 
HETATM   34  C   UNL     1      44.259 -11.161   7.539  1.00  0.00     0.103 A 
HETATM   35  C   UNL     1      43.148 -10.329   7.713  1.00  0.00     0.104 A 
HETATM   36  O   UNL     1      45.315 -11.208   8.412  1.00  0.00    -0.346 OA
HETATM   37  O   UNL     1      43.004  -9.497   8.794  1.00  0.00    -0.346 OA
HETATM   38  C   UNL     1      43.893  -9.865   9.856  1.00  0.00     0.202 C 
HETATM   39  C   UNL     1      45.296 -10.102   9.323  1.00  0.00     0.202 C 
ENDBRANCH  23  24
ENDBRANCH   1  23
TORSDOF 11
ENDMDL
MODEL 2
REMARK VINA RESULT:      -8.3      2.317      5.033
REMARK  11 active torsions:
REMARK  status: ('A' for Active; 'I' for Inactive)
REMARK    1  A    between atoms: N_2  and  C_4 
REMARK    2  A    between atoms: C_4  and  C_5 
REMARK    3  A    between atoms: C_5  and  C_6 
REMARK    4  A    between atoms: C_6  and  N_7 
REMARK    5  A    between atoms: N_7  and  C_8 
REMARK    6  A    between atoms: N_7  and  C_21 
REMARK    7  A    between atoms: C_8  and  N_9 
REMARK    8  A    between atoms: N_9  and  C_10 
REMARK    9  A    between atoms: C_11  and  C_12 
REMARK   10  A    between atoms: C_12  and  O_13 
REMARK   11  A    between atoms: C_21  and  C_22 
ROOT
HETATM    1  N   UNL     1      42.463 -14.824   2.664  1.00  0.00    -0.354 N 
ENDROOT
BRANCH   1   2
HETATM    2  C   UNL     1      43.063 -15.812   3.583  1.00  0.00     0.127 C 
BRANCH   2   3
HETATM    3  C   UNL     1      43.002 -17.278   3.128  1.00  0.00     0.047 C 
BRANCH   3   4
HETATM    4  C   UNL     1      43.783 -18.225   4.034  1.00  0.00     0.235 C 
BRANCH   4   5
HETATM    5  N   UNL     1      44.069 -19.530   3.304  1.00  0.00    -0.079 N 
HETATM    6  C   UNL     1      43.201 -19.749   2.097  1.00  0.00     0.269 C 
HETATM    7  H   UNL     1      45.044 -19.486   2.979  1.00  0.00     0.278 HD
HETATM    8  C   UNL     1      44.008 -20.707   4.243  1.00  0.00     0.269 C 
ENDBRANCH   4   5
ENDBRANCH   3   4
ENDBRANCH   2   3
ENDBRANCH   1   2
BRANCH   1   9
HETATM    9  C   UNL     1      41.075 -14.750   2.356  1.00  0.00     0.174 C 
HETATM   10  S   UNL     1      40.523 -14.813   0.776  1.00  0.00    -0.041 SA
BRANCH   9  11
HETATM   11  N   UNL     1      40.303 -14.606   3.501  1.00  0.00    -0.332 N 
HETATM   12  H   UNL     1      40.199 -15.487   4.004  1.00  0.00     0.168 HD
BRANCH  11  13
HETATM   13  C   UNL     1      39.986 -13.488   4.324  1.00  0.00     0.050 A 
HETATM   14  C   UNL     1      40.189 -13.594   5.727  1.00  0.00     0.066 A 
HETATM   15  C   UNL     1      39.909 -12.504   6.568  1.00  0.00     0.020 A 
HETATM   16  C   UNL     1      39.420 -11.314   6.036  1.00  0.00     0.001 A 
HETATM   17  C   UNL     1      39.190 -11.214   4.668  1.00  0.00     0.002 A 
HETATM   18  C   UNL     1      39.461 -12.293   3.822  1.00  0.00     0.030 A 
BRANCH  14  19
HETATM   19  C   UNL     1      40.706 -14.862   6.318  1.00  0.00     0.295 C 
HETATM   20  O   UNL     1      40.085 -15.917   6.254  1.00  0.00    -0.259 OA
BRANCH  19  21
HETATM   21  O   UNL     1      41.931 -14.692   6.863  1.00  0.00    -0.322 OA
HETATM   22  C   UNL     1      42.512 -15.873   7.426  1.00  0.00     0.213 C 
ENDBRANCH  19  21
ENDBRANCH  14  19
ENDBRANCH  11  13
ENDBRANCH   9  11
ENDBRANCH   1   9
BRANCH   1  23
HETATM   23  C   UNL     1      43.317 -13.631   2.389  1.00  0.00     0.169 C 
BRANCH  23  24
HETATM   24  C   UNL     1      43.278 -12.601   3.497  1.00  0.00     0.029 A 
HETATM   25  C   UNL     1      42.681 -11.288   3.083  1.00  0.00     0.253 A 
HETATM   26  O   UNL     1      42.341 -11.090   1.921  1.00  0.00    -0.268 OA
HETATM   27  N   UNL     1      42.540 -10.323   4.047  1.00  0.00    -0.322 N 
HETATM   28  C   UNL     1      42.924 -10.491   5.382  1.00  0.00     0.048 A 
HETATM   29  H   UNL     1      42.120  -9.452   3.746  1.00  0.00     0.169 HD
HETATM   30  C   UNL     1      43.508 -11.701   5.768  1.00  0.00    -0.006 A 
HETATM   31  C   UNL     1      42.714  -9.477   6.316  1.00  0.00     0.070 A 
HETATM   32  C   UNL     1      43.886 -11.902   7.098  1.00  0.00     0.053 A 
HETATM   33  C   UNL     1      43.687 -12.751   4.769  1.00  0.00     0.028 A 
HETATM   34  C   UNL     1      43.682 -10.891   8.033  1.00  0.00     0.103 A 
HETATM   35  C   UNL     1      43.077  -9.690   7.648  1.00  0.00     0.104 A 
HETATM   36  O   UNL     1      44.085 -11.160   9.316  1.00  0.00    -0.346 OA
HETATM   37  O   UNL     1      42.810  -8.676   8.531  1.00  0.00    -0.346 OA
HETATM   38  C   UNL     1      42.860  -9.139   9.886  1.00  0.00     0.202 C 
HETATM   39  C   UNL     1      44.108  -9.974  10.121  1.00  0.00     0.202 C 
ENDBRANCH  23  24
ENDBRANCH   1  23
TORSDOF 11
ENDMDL
MODEL 3
REMARK VINA RESULT:      -8.2      2.150      7.890
REMARK  11 active torsions:
REMARK  status: ('A' for Active; 'I' for Inactive)
REMARK    1  A    between atoms: N_2  and  C_4 
REMARK    2  A    between atoms: C_4  and  C_5 
REMARK    3  A    between atoms: C_5  and  C_6 
REMARK    4  A    between atoms: C_6  and  N_7 
REMARK    5  A    between atoms: N_7  and  C_8 
REMARK    6  A    between atoms: N_7  and  C_21 
REMARK    7  A    between atoms: C_8  and  N_9 
REMARK    8  A    between atoms: N_9  and  C_10 
REMARK    9  A    between atoms: C_11  and  C_12 
REMARK   10  A    between atoms: C_12  and  O_13 
REMARK   11  A    between atoms: C_21  and  C_22 
ROOT
HETATM    1  N   UNL     1      41.113 -12.272   5.302  1.00  0.00    -0.354 N 
ENDROOT
BRANCH   1   2
HETATM    2  C   UNL     1      40.721 -10.875   5.575  1.00  0.00     0.127 C 
BRANCH   2   3
HETATM    3  C   UNL     1      41.783  -9.999   6.257  1.00  0.00     0.047 C 
BRANCH   3   4
HETATM    4  C   UNL     1      41.331  -9.442   7.604  1.00  0.00     0.235 C 
BRANCH   4   5
HETATM    5  N   UNL     1      42.269  -9.915   8.706  1.00  0.00    -0.079 N 
HETATM    6  C   UNL     1      42.383  -8.954   9.856  1.00  0.00     0.269 C 
HETATM    7  H   UNL     1      41.881 -10.794   9.076  1.00  0.00     0.278 HD
HETATM    8  C   UNL     1      43.625 -10.272   8.155  1.00  0.00     0.269 C 
ENDBRANCH   4   5
ENDBRANCH   3   4
ENDBRANCH   2   3
ENDBRANCH   1   2
BRANCH   1   9
HETATM    9  C   UNL     1      40.199 -13.356   5.181  1.00  0.00     0.174 C 
HETATM   10  S   UNL     1      40.059 -14.522   6.377  1.00  0.00    -0.041 SA
BRANCH   9  11
HETATM   11  N   UNL     1      39.503 -13.308   3.982  1.00  0.00    -0.332 N 
HETATM   12  H   UNL     1      38.890 -12.494   3.929  1.00  0.00     0.168 HD
BRANCH  11  13
HETATM   13  C   UNL     1      39.742 -13.872   2.696  1.00  0.00     0.050 A 
HETATM   14  C   UNL     1      40.090 -13.005   1.625  1.00  0.00     0.066 A 
HETATM   15  C   UNL     1      40.356 -13.528   0.347  1.00  0.00     0.020 A 
HETATM   16  C   UNL     1      40.270 -14.898   0.118  1.00  0.00     0.001 A 
HETATM   17  C   UNL     1      39.900 -15.748   1.154  1.00  0.00     0.002 A 
HETATM   18  C   UNL     1      39.629 -15.239   2.428  1.00  0.00     0.030 A 
BRANCH  14  19
HETATM   19  C   UNL     1      40.182 -11.533   1.848  1.00  0.00     0.295 C 
HETATM   20  O   UNL     1      39.234 -10.871   2.253  1.00  0.00    -0.259 OA
BRANCH  19  21
HETATM   21  O   UNL     1      41.427 -11.070   1.600  1.00  0.00    -0.322 OA
HETATM   22  C   UNL     1      41.481  -9.832   0.883  1.00  0.00     0.213 C 
ENDBRANCH  19  21
ENDBRANCH  14  19
ENDBRANCH  11  13
ENDBRANCH   9  11
ENDBRANCH   1   9
BRANCH   1  23
HETATM   23  C   UNL     1      42.487 -12.434   4.740  1.00  0.00     0.169 C 
BRANCH  23  24
HETATM   24  C   UNL     1      42.961 -13.871   4.726  1.00  0.00     0.029 A 
HETATM   25  C   UNL     1      43.590 -14.314   6.014  1.00  0.00     0.253 A 
HETATM   26  O   UNL     1      43.752 -13.525   6.939  1.00  0.00    -0.268 OA
HETATM   27  N   UNL     1      43.980 -15.625   6.112  1.00  0.00    -0.322 N 
HETATM   28  C   UNL     1      43.831 -16.563   5.083  1.00  0.00     0.048 A 
HETATM   29  H   UNL     1      44.387 -15.903   6.997  1.00  0.00     0.169 HD
HETATM   30  C   UNL     1      43.274 -16.149   3.870  1.00  0.00    -0.006 A 
HETATM   31  C   UNL     1      44.217 -17.890   5.269  1.00  0.00     0.070 A 
HETATM   32  C   UNL     1      43.098 -17.067   2.832  1.00  0.00     0.053 A 
HETATM   33  C   UNL     1      42.856 -14.758   3.721  1.00  0.00     0.028 A 
HETATM   34  C   UNL     1      43.486 -18.393   3.011  1.00  0.00     0.103 A 
HETATM   35  C   UNL     1      44.023 -18.808   4.234  1.00  0.00     0.104 A 
HETATM   36  O   UNL     1      43.289 -19.233   1.945  1.00  0.00    -0.346 OA
HETATM   37  O   UNL     1      44.382 -20.108   4.486  1.00  0.00    -0.346 OA
HETATM   38  C   UNL     1      43.796 -21.003   3.533  1.00  0.00     0.202 C 
HETATM   39  C   UNL     1      43.980 -20.476   2.120  1.00  0.00     0.202 C 
ENDBRANCH  23  24
ENDBRANCH   1  23
TORSDOF 11
ENDMDL
MODEL 4
REMARK VINA RESULT:      -8.2      2.634      7.029
REMARK  11 active torsions:
REMARK  status: ('A' for Active; 'I' for Inactive)
REMARK    1  A    between atoms: N_2  and  C_4 
REMARK    2  A    between atoms: C_4  and  C_5 
REMARK    3  A    between atoms: C_5  and  C_6 
REMARK    4  A    between atoms: C_6  and  N_7 
REMARK    5  A    between atoms: N_7  and  C_8 
REMARK    6  A    between atoms: N_7  and  C_21 
REMARK    7  A    between atoms: C_8  and  N_9 
REMARK    8  A    between atoms: N_9  and  C_10 
REMARK    9  A    between atoms: C_11  and  C_12 
REMARK   10  A    between atoms: C_12  and  O_13 
REMARK   11  A    between atoms: C_21  and  C_22 
ROOT
HETATM    1  N   UNL     1      43.086 -13.543   6.073  1.00  0.00    -0.354 N 
ENDROOT
BRANCH   1   2
HETATM    2  C   UNL     1      44.323 -13.109   6.754  1.00  0.00     0.127 C 
BRANCH   2   3
HETATM    3  C   UNL     1      44.587 -11.595   6.766  1.00  0.00     0.047 C 
BRANCH   3   4
HETATM    4  C   UNL     1      44.901 -11.049   8.156  1.00  0.00     0.235 C 
BRANCH   4   5
HETATM    5  N   UNL     1      43.609 -10.746   8.903  1.00  0.00    -0.079 N 
HETATM    6  C   UNL     1      42.791  -9.653   8.276  1.00  0.00     0.269 C 
HETATM    7  H   UNL     1      43.042 -11.605   8.884  1.00  0.00     0.278 HD
HETATM    8  C   UNL     1      43.872 -10.466  10.360  1.00  0.00     0.269 C 
ENDBRANCH   4   5
ENDBRANCH   3   4
ENDBRANCH   2   3
ENDBRANCH   1   2
BRANCH   1   9
HETATM    9  C   UNL     1      42.742 -14.901   5.819  1.00  0.00     0.174 C 
HETATM   10  S   UNL     1      41.629 -15.716   6.769  1.00  0.00    -0.041 SA
BRANCH   9  11
HETATM   11  N   UNL     1      43.447 -15.414   4.739  1.00  0.00    -0.332 N 
HETATM   12  H   UNL     1      44.237 -14.824   4.483  1.00  0.00     0.168 HD
BRANCH  11  13
HETATM   13  C   UNL     1      43.570 -16.724   4.194  1.00  0.00     0.050 A 
HETATM   14  C   UNL     1      42.994 -16.992   2.923  1.00  0.00     0.066 A 
HETATM   15  C   UNL     1      43.115 -18.266   2.342  1.00  0.00     0.020 A 
HETATM   16  C   UNL     1      43.792 -19.281   3.013  1.00  0.00     0.001 A 
HETATM   17  C   UNL     1      44.331 -19.035   4.271  1.00  0.00     0.002 A 
HETATM   18  C   UNL     1      44.214 -17.772   4.860  1.00  0.00     0.030 A 
BRANCH  14  19
HETATM   19  C   UNL     1      42.259 -15.920   2.189  1.00  0.00     0.295 C 
HETATM   20  O   UNL     1      42.835 -15.069   1.521  1.00  0.00    -0.259 OA
BRANCH  19  21
HETATM   21  O   UNL     1      40.921 -16.055   2.323  1.00  0.00    -0.322 OA
HETATM   22  C   UNL     1      40.160 -15.712   1.160  1.00  0.00     0.213 C 
ENDBRANCH  19  21
ENDBRANCH  14  19
ENDBRANCH  11  13
ENDBRANCH   9  11
ENDBRANCH   1   9
BRANCH   1  23
HETATM   23  C   UNL     1      42.004 -12.515   6.032  1.00  0.00     0.169 C 
BRANCH  23  24
HETATM   24  C   UNL     1      41.229 -12.516   4.733  1.00  0.00     0.029 A 
HETATM   25  C   UNL     1      39.757 -12.749   4.906  1.00  0.00     0.253 A 
HETATM   26  O   UNL     1      39.283 -12.990   6.012  1.00  0.00    -0.268 OA
HETATM   27  N   UNL     1      38.969 -12.692   3.785  1.00  0.00    -0.322 N 
HETATM   28  C   UNL     1      39.458 -12.435   2.499  1.00  0.00     0.048 A 
HETATM   29  H   UNL     1      37.977 -12.837   3.931  1.00  0.00     0.169 HD
HETATM   30  C   UNL     1      40.832 -12.246   2.327  1.00  0.00    -0.006 A 
HETATM   31  C   UNL     1      38.590 -12.353   1.411  1.00  0.00     0.070 A 
HETATM   32  C   UNL     1      41.346 -11.972   1.057  1.00  0.00     0.053 A 
HETATM   33  C   UNL     1      41.708 -12.312   3.493  1.00  0.00     0.028 A 
HETATM   34  C   UNL     1      40.484 -11.894  -0.034  1.00  0.00     0.103 A 
HETATM   35  C   UNL     1      39.107 -12.062   0.147  1.00  0.00     0.104 A 
HETATM   36  O   UNL     1      41.063 -11.629  -1.248  1.00  0.00    -0.346 OA
HETATM   37  O   UNL     1      38.204 -11.952  -0.880  1.00  0.00    -0.346 OA
HETATM   38  C   UNL     1      38.780 -11.287  -2.011  1.00  0.00     0.202 C 
HETATM   39  C   UNL     1      40.151 -11.860  -2.329  1.00  0.00     0.202 C 
ENDBRANCH  23  24
ENDBRANCH   1  23
TORSDOF 11
ENDMDL
MODEL 5
REMARK VINA RESULT:      -8.1      3.090      8.289
REMARK  11 active torsions:
REMARK  status: ('A' for Active; 'I' for Inactive)
REMARK    1  A    between atoms: N_2  and  C_4 
REMARK    2  A    between atoms: C_4  and  C_5 
REMARK    3  A    between atoms: C_5  and  C_6 
REMARK    4  A    between atoms: C_6  and  N_7 
REMARK    5  A    between atoms: N_7  and  C_8 
REMARK    6  A    between atoms: N_7  and  C_21 
REMARK    7  A    between atoms: C_8  and  N_9 
REMARK    8  A    between atoms: N_9  and  C_10 
REMARK    9  A    between atoms: C_11  and  C_12 
REMARK   10  A    between atoms: C_12  and  O_13 
REMARK   11  A    between atoms: C_21  and  C_22 
ROOT
HETATM    1  N   UNL     1      39.742 -10.433   6.985  1.00  0.00    -0.354 N 
ENDROOT
BRANCH   1   2
HETATM    2  C   UNL     1      39.283 -10.325   8.385  1.00  0.00     0.127 C 
BRANCH   2   3
HETATM    3  C   UNL     1      39.772  -9.092   9.160  1.00  0.00     0.047 C 
BRANCH   3   4
HETATM    4  C   UNL     1      39.417  -9.131  10.644  1.00  0.00     0.235 C 
BRANCH   4   5
HETATM    5  N   UNL     1      40.287 -10.153  11.362  1.00  0.00    -0.079 N 
HETATM    6  C   UNL     1      39.827 -10.462  12.759  1.00  0.00     0.269 C 
HETATM    7  H   UNL     1      40.236 -11.026  10.820  1.00  0.00     0.278 HD
HETATM    8  C   UNL     1      41.738  -9.747  11.341  1.00  0.00     0.269 C 
ENDBRANCH   4   5
ENDBRANCH   3   4
ENDBRANCH   2   3
ENDBRANCH   1   2
BRANCH   1   9
HETATM    9  C   UNL     1      41.034 -10.048   6.530  1.00  0.00     0.174 C 
HETATM   10  S   UNL     1      41.233  -9.006   5.234  1.00  0.00    -0.041 SA
BRANCH   9  11
HETATM   11  N   UNL     1      42.040 -10.652   7.272  1.00  0.00    -0.332 N 
HETATM   12  H   UNL     1      41.860 -11.645   7.421  1.00  0.00     0.168 HD
BRANCH  11  13
HETATM   13  C   UNL     1      43.405 -10.323   7.507  1.00  0.00     0.050 A 
HETATM   14  C   UNL     1      44.413 -11.172   6.975  1.00  0.00     0.066 A 
HETATM   15  C   UNL     1      45.772 -10.867   7.166  1.00  0.00     0.020 A 
HETATM   16  C   UNL     1      46.142  -9.736   7.888  1.00  0.00     0.001 A 
HETATM   17  C   UNL     1      45.161  -8.918   8.438  1.00  0.00     0.002 A 
HETATM   18  C   UNL     1      43.806  -9.214   8.257  1.00  0.00     0.030 A 
BRANCH  14  19
HETATM   19  C   UNL     1      44.038 -12.393   6.203  1.00  0.00     0.295 C 
HETATM   20  O   UNL     1      44.342 -13.521   6.573  1.00  0.00    -0.259 OA
BRANCH  19  21
HETATM   21  O   UNL     1      43.299 -12.085   5.115  1.00  0.00    -0.322 OA
HETATM   22  C   UNL     1      44.046 -11.604   3.993  1.00  0.00     0.213 C 
ENDBRANCH  19  21
ENDBRANCH  14  19
ENDBRANCH  11  13
ENDBRANCH   9  11
ENDBRANCH   1   9
BRANCH   1  23
HETATM   23  C   UNL     1      38.934 -11.357   6.135  1.00  0.00     0.169 C 
BRANCH  23  24
HETATM   24  C   UNL     1      39.721 -12.548   5.633  1.00  0.00     0.029 A 
HETATM   25  C   UNL     1      39.965 -12.533   4.153  1.00  0.00     0.253 A 
HETATM   26  O   UNL     1      39.484 -11.654   3.445  1.00  0.00    -0.268 OA
HETATM   27  N   UNL     1      40.734 -13.538   3.626  1.00  0.00    -0.322 N 
HETATM   28  C   UNL     1      41.295 -14.572   4.385  1.00  0.00     0.048 A 
HETATM   29  H   UNL     1      40.897 -13.497   2.627  1.00  0.00     0.169 HD
HETATM   30  C   UNL     1      41.047 -14.608   5.761  1.00  0.00    -0.006 A 
HETATM   31  C   UNL     1      42.100 -15.540   3.785  1.00  0.00     0.070 A 
HETATM   32  C   UNL     1      41.607 -15.619   6.545  1.00  0.00     0.053 A 
HETATM   33  C   UNL     1      40.222 -13.563   6.359  1.00  0.00     0.028 A 
HETATM   34  C   UNL     1      42.408 -16.590   5.950  1.00  0.00     0.103 A 
HETATM   35  C   UNL     1      42.672 -16.538   4.577  1.00  0.00     0.104 A 
HETATM   36  O   UNL     1      42.916 -17.554   6.783  1.00  0.00    -0.346 OA
HETATM   37  O   UNL     1      43.488 -17.439   3.942  1.00  0.00    -0.346 OA
HETATM   38  C   UNL     1      44.304 -18.153   4.879  1.00  0.00     0.202 C 
HETATM   39  C   UNL     1      43.468 -18.652   6.046  1.00  0.00     0.202 C 
ENDBRANCH  23  24
ENDBRANCH   1  23
TORSDOF 11
ENDMDL
MODEL 6
REMARK VINA RESULT:      -7.9      2.578      7.929
REMARK  11 active torsions:
REMARK  status: ('A' for Active; 'I' for Inactive)
REMARK    1  A    between atoms: N_2  and  C_4 
REMARK    2  A    between atoms: C_4  and  C_5 
REMARK    3  A    between atoms: C_5  and  C_6 
REMARK    4  A    between atoms: C_6  and  N_7 
REMARK    5  A    between atoms: N_7  and  C_8 
REMARK    6  A    between atoms: N_7  and  C_21 
REMARK    7  A    between atoms: C_8  and  N_9 
REMARK    8  A    between atoms: N_9  and  C_10 
REMARK    9  A    between atoms: C_11  and  C_12 
REMARK   10  A    between atoms: C_12  and  O_13 
REMARK   11  A    between atoms: C_21  and  C_22 
ROOT
HETATM    1  N   UNL     1      41.121 -11.802   4.428  1.00  0.00    -0.354 N 
ENDROOT
BRANCH   1   2
HETATM    2  C   UNL     1      40.268 -11.744   5.632  1.00  0.00     0.127 C 
BRANCH   2   3
HETATM    3  C   UNL     1      40.608 -10.639   6.644  1.00  0.00     0.047 C 
BRANCH   3   4
HETATM    4  C   UNL     1      39.488 -10.372   7.646  1.00  0.00     0.235 C 
BRANCH   4   5
HETATM    5  N   UNL     1      40.049  -9.697   8.889  1.00  0.00    -0.079 N 
HETATM    6  C   UNL     1      39.189  -9.869  10.109  1.00  0.00     0.269 C 
HETATM    7  H   UNL     1      40.958 -10.137   9.087  1.00  0.00     0.278 HD
HETATM    8  C   UNL     1      40.351  -8.243   8.633  1.00  0.00     0.269 C 
ENDBRANCH   4   5
ENDBRANCH   3   4
ENDBRANCH   2   3
ENDBRANCH   1   2
BRANCH   1   9
HETATM    9  C   UNL     1      40.733 -11.330   3.143  1.00  0.00     0.174 C 
HETATM   10  S   UNL     1      41.401  -9.943   2.481  1.00  0.00    -0.041 SA
BRANCH   9  11
HETATM   11  N   UNL     1      39.760 -12.138   2.572  1.00  0.00    -0.332 N 
HETATM   12  H   UNL     1      38.979 -11.595   2.206  1.00  0.00     0.168 HD
BRANCH  11  13
HETATM   13  C   UNL     1      39.788 -13.454   2.027  1.00  0.00     0.050 A 
HETATM   14  C   UNL     1      39.960 -13.608   0.625  1.00  0.00     0.066 A 
HETATM   15  C   UNL     1      40.015 -14.891   0.054  1.00  0.00     0.020 A 
HETATM   16  C   UNL     1      39.891 -16.022   0.856  1.00  0.00     0.001 A 
HETATM   17  C   UNL     1      39.692 -15.878   2.225  1.00  0.00     0.002 A 
HETATM   18  C   UNL     1      39.631 -14.606   2.803  1.00  0.00     0.030 A 
BRANCH  14  19
HETATM   19  C   UNL     1      40.088 -12.409  -0.254  1.00  0.00     0.295 C 
HETATM   20  O   UNL     1      41.083 -12.201  -0.939  1.00  0.00    -0.259 OA
BRANCH  19  21
HETATM   21  O   UNL     1      38.971 -11.649  -0.223  1.00  0.00    -0.322 OA
HETATM   22  C   UNL     1      37.932 -12.066  -1.116  1.00  0.00     0.213 C 
ENDBRANCH  19  21
ENDBRANCH  14  19
ENDBRANCH  11  13
ENDBRANCH   9  11
ENDBRANCH   1   9
BRANCH   1  23
HETATM   23  C   UNL     1      42.575 -11.998   4.705  1.00  0.00     0.169 C 
BRANCH  23  24
HETATM   24  C   UNL     1      42.986 -13.455   4.739  1.00  0.00     0.029 A 
HETATM   25  C   UNL     1      43.505 -13.907   6.072  1.00  0.00     0.253 A 
HETATM   26  O   UNL     1      43.639 -13.113   6.998  1.00  0.00    -0.268 OA
HETATM   27  N   UNL     1      43.830 -15.232   6.210  1.00  0.00    -0.322 N 
HETATM   28  C   UNL     1      43.710 -16.176   5.184  1.00  0.00     0.048 A 
HETATM   29  H   UNL     1      44.163 -15.515   7.124  1.00  0.00     0.169 HD
HETATM   30  C   UNL     1      43.255 -15.755   3.931  1.00  0.00    -0.006 A 
HETATM   31  C   UNL     1      44.024 -17.516   5.410  1.00  0.00     0.070 A 
HETATM   32  C   UNL     1      43.111 -16.680   2.894  1.00  0.00     0.053 A 
HETATM   33  C   UNL     1      42.910 -14.350   3.739  1.00  0.00     0.028 A 
HETATM   34  C   UNL     1      43.426 -18.018   3.113  1.00  0.00     0.103 A 
HETATM   35  C   UNL     1      43.861 -18.439   4.375  1.00  0.00     0.104 A 
HETATM   36  O   UNL     1      43.266 -18.863   2.045  1.00  0.00    -0.346 OA
HETATM   37  O   UNL     1      44.144 -19.749   4.664  1.00  0.00    -0.346 OA
HETATM   38  C   UNL     1      43.585 -20.632   3.683  1.00  0.00     0.202 C 
HETATM   39  C   UNL     1      43.888 -20.133   2.280  1.00  0.00     0.202 C 
ENDBRANCH  23  24
ENDBRANCH   1  23
TORSDOF 11
ENDMDL
MODEL 7
REMARK VINA RESULT:      -7.9      2.897      6.409
REMARK  11 active torsions:
REMARK  status: ('A' for Active; 'I' for Inactive)
REMARK    1  A    between atoms: N_2  and  C_4 
REMARK    2  A    between atoms: C_4  and  C_5 
REMARK    3  A    between atoms: C_5  and  C_6 
REMARK    4  A    between atoms: C_6  and  N_7 
REMARK    5  A    between atoms: N_7  and  C_8 
REMARK    6  A    between atoms: N_7  and  C_21 
REMARK    7  A    between atoms: C_8  and  N_9 
REMARK    8  A    between atoms: N_9  and  C_10 
REMARK    9  A    between atoms: C_11  and  C_12 
REMARK   10  A    between atoms: C_12  and  O_13 
REMARK   11  A    between atoms: C_21  and  C_22 
ROOT
HETATM    1  N   UNL     1      40.754 -12.934   1.381  1.00  0.00    -0.354 N 
ENDROOT
BRANCH   1   2
HETATM    2  C   UNL     1      40.000 -13.870   0.521  1.00  0.00     0.127 C 
BRANCH   2   3
HETATM    3  C   UNL     1      39.163 -13.229  -0.596  1.00  0.00     0.047 C 
BRANCH   3   4
HETATM    4  C   UNL     1      39.352 -13.901  -1.953  1.00  0.00     0.235 C 
BRANCH   4   5
HETATM    5  N   UNL     1      39.691 -12.859  -3.009  1.00  0.00    -0.079 N 
HETATM    6  C   UNL     1      41.140 -12.459  -3.019  1.00  0.00     0.269 C 
HETATM    7  H   UNL     1      39.480 -13.278  -3.925  1.00  0.00     0.278 HD
HETATM    8  C   UNL     1      38.792 -11.655  -2.899  1.00  0.00     0.269 C 
ENDBRANCH   4   5
ENDBRANCH   3   4
ENDBRANCH   2   3
ENDBRANCH   1   2
BRANCH   1   9
HETATM    9  C   UNL     1      40.190 -12.207   2.467  1.00  0.00     0.174 C 
HETATM   10  S   UNL     1      40.432 -10.558   2.637  1.00  0.00    -0.041 SA
BRANCH   9  11
HETATM   11  N   UNL     1      39.471 -13.034   3.319  1.00  0.00    -0.332 N 
HETATM   12  H   UNL     1      38.500 -13.135   3.024  1.00  0.00     0.168 HD
BRANCH  11  13
HETATM   13  C   UNL     1      39.855 -14.060   4.229  1.00  0.00     0.050 A 
HETATM   14  C   UNL     1      40.180 -13.701   5.565  1.00  0.00     0.066 A 
HETATM   15  C   UNL     1      40.541 -14.689   6.497  1.00  0.00     0.020 A 
HETATM   16  C   UNL     1      40.593 -16.027   6.117  1.00  0.00     0.001 A 
HETATM   17  C   UNL     1      40.306 -16.382   4.804  1.00  0.00     0.002 A 
HETATM   18  C   UNL     1      39.949 -15.407   3.866  1.00  0.00     0.030 A 
BRANCH  14  19
HETATM   19  C   UNL     1      40.137 -12.271   5.991  1.00  0.00     0.295 C 
HETATM   20  O   UNL     1      41.129 -11.553   5.978  1.00  0.00    -0.259 OA
BRANCH  19  21
HETATM   21  O   UNL     1      38.884 -11.892   6.326  1.00  0.00    -0.322 OA
HETATM   22  C   UNL     1      38.526 -10.566   5.921  1.00  0.00     0.213 C 
ENDBRANCH  19  21
ENDBRANCH  14  19
ENDBRANCH  11  13
ENDBRANCH   9  11
ENDBRANCH   1   9
BRANCH   1  23
HETATM   23  C   UNL     1      42.237 -13.099   1.329  1.00  0.00     0.169 C 
BRANCH  23  24
HETATM   24  C   UNL     1      42.733 -14.296   2.110  1.00  0.00     0.029 A 
HETATM   25  C   UNL     1      43.220 -13.960   3.489  1.00  0.00     0.253 A 
HETATM   26  O   UNL     1      43.264 -12.796   3.874  1.00  0.00    -0.268 OA
HETATM   27  N   UNL     1      43.618 -14.998   4.291  1.00  0.00    -0.322 N 
HETATM   28  C   UNL     1      43.601 -16.341   3.897  1.00  0.00     0.048 A 
HETATM   29  H   UNL     1      43.927 -14.747   5.222  1.00  0.00     0.169 HD
HETATM   30  C   UNL     1      43.177 -16.658   2.603  1.00  0.00    -0.006 A 
HETATM   31  C   UNL     1      43.985 -17.348   4.783  1.00  0.00     0.070 A 
HETATM   32  C   UNL     1      43.134 -17.991   2.189  1.00  0.00     0.053 A 
HETATM   33  C   UNL     1      42.755 -15.581   1.713  1.00  0.00     0.028 A 
HETATM   34  C   UNL     1      43.520 -19.000   3.067  1.00  0.00     0.103 A 
HETATM   35  C   UNL     1      43.924 -18.680   4.368  1.00  0.00     0.104 A 
HETATM   36  O   UNL     1      43.459 -20.282   2.586  1.00  0.00    -0.346 OA
HETATM   37  O   UNL     1      44.273 -19.631   5.293  1.00  0.00    -0.346 OA
HETATM   38  C   UNL     1      43.812 -20.931   4.903  1.00  0.00     0.202 C 
HETATM   39  C   UNL     1      44.145 -21.201   3.445  1.00  0.00     0.202 C 
ENDBRANCH  23  24
ENDBRANCH   1  23
TORSDOF 11
ENDMDL
MODEL 8
REMARK VINA RESULT:      -7.9      2.211      3.794
REMARK  11 active torsions:
REMARK  status: ('A' for Active; 'I' for Inactive)
REMARK    1  A    between atoms: N_2  and  C_4 
REMARK    2  A    between atoms: C_4  and  C_5 
REMARK    3  A    between atoms: C_5  and  C_6 
REMARK    4  A    between atoms: C_6  and  N_7 
REMARK    5  A    between atoms: N_7  and  C_8 
REMARK    6  A    between atoms: N_7  and  C_21 
REMARK    7  A    between atoms: C_8  and  N_9 
REMARK    8  A    between atoms: N_9  and  C_10 
REMARK    9  A    between atoms: C_11  and  C_12 
REMARK   10  A    between atoms: C_12  and  O_13 
REMARK   11  A    between atoms: C_21  and  C_22 
ROOT
HETATM    1  N   UNL     1      41.558 -11.663   4.094  1.00  0.00    -0.354 N 
ENDROOT
BRANCH   1   2
HETATM    2  C   UNL     1      40.965 -11.438   2.760  1.00  0.00     0.127 C 
BRANCH   2   3
HETATM    3  C   UNL     1      40.063 -12.562   2.228  1.00  0.00     0.047 C 
BRANCH   3   4
HETATM    4  C   UNL     1      40.363 -12.942   0.780  1.00  0.00     0.235 C 
BRANCH   4   5
HETATM    5  N   UNL     1      39.537 -14.156   0.378  1.00  0.00    -0.079 N 
HETATM    6  C   UNL     1      39.903 -15.409   1.124  1.00  0.00     0.269 C 
HETATM    7  H   UNL     1      38.556 -13.941   0.599  1.00  0.00     0.278 HD
HETATM    8  C   UNL     1      39.577 -14.375  -1.113  1.00  0.00     0.269 C 
ENDBRANCH   4   5
ENDBRANCH   3   4
ENDBRANCH   2   3
ENDBRANCH   1   2
BRANCH   1   9
HETATM    9  C   UNL     1      41.362 -12.837   4.875  1.00  0.00     0.174 C 
HETATM   10  S   UNL     1      40.014 -13.024   5.852  1.00  0.00    -0.041 SA
BRANCH   9  11
HETATM   11  N   UNL     1      42.409 -13.735   4.723  1.00  0.00    -0.332 N 
HETATM   12  H   UNL     1      42.892 -13.911   5.603  1.00  0.00     0.168 HD
BRANCH  11  13
HETATM   13  C   UNL     1      42.693 -14.742   3.756  1.00  0.00     0.050 A 
HETATM   14  C   UNL     1      42.377 -16.092   4.065  1.00  0.00     0.066 A 
HETATM   15  C   UNL     1      42.621 -17.111   3.128  1.00  0.00     0.020 A 
HETATM   16  C   UNL     1      43.184 -16.806   1.892  1.00  0.00     0.001 A 
HETATM   17  C   UNL     1      43.524 -15.490   1.595  1.00  0.00     0.002 A 
HETATM   18  C   UNL     1      43.289 -14.470   2.521  1.00  0.00     0.030 A 
BRANCH  14  19
HETATM   19  C   UNL     1      41.778 -16.441   5.387  1.00  0.00     0.295 C 
HETATM   20  O   UNL     1      40.568 -16.538   5.554  1.00  0.00    -0.259 OA
BRANCH  19  21
HETATM   21  O   UNL     1      42.731 -16.679   6.316  1.00  0.00    -0.322 OA
HETATM   22  C   UNL     1      42.611 -15.908   7.516  1.00  0.00     0.213 C 
ENDBRANCH  19  21
ENDBRANCH  14  19
ENDBRANCH  11  13
ENDBRANCH   9  11
ENDBRANCH   1   9
BRANCH   1  23
HETATM   23  C   UNL     1      42.719 -10.781   4.416  1.00  0.00     0.169 C 
BRANCH  23  24
HETATM   24  C   UNL     1      42.896 -10.544   5.900  1.00  0.00     0.029 A 
HETATM   25  C   UNL     1      44.128 -11.180   6.472  1.00  0.00     0.253 A 
HETATM   26  O   UNL     1      44.855 -11.883   5.777  1.00  0.00    -0.268 OA
HETATM   27  N   UNL     1      44.403 -10.953   7.796  1.00  0.00    -0.322 N 
HETATM   28  C   UNL     1      43.603 -10.171   8.637  1.00  0.00     0.048 A 
HETATM   29  H   UNL     1      45.249 -11.380   8.154  1.00  0.00     0.169 HD
HETATM   30  C   UNL     1      42.437  -9.600   8.117  1.00  0.00    -0.006 A 
HETATM   31  C   UNL     1      43.967  -9.952   9.965  1.00  0.00     0.070 A 
HETATM   32  C   UNL     1      41.628  -8.802   8.930  1.00  0.00     0.053 A 
HETATM   33  C   UNL     1      42.101  -9.828   6.715  1.00  0.00     0.028 A 
HETATM   34  C   UNL     1      41.985  -8.584  10.258  1.00  0.00     0.103 A 
HETATM   35  C   UNL     1      43.163  -9.139  10.768  1.00  0.00     0.104 A 
HETATM   36  O   UNL     1      41.137  -7.797  10.994  1.00  0.00    -0.346 OA
HETATM   37  O   UNL     1      43.591  -8.924  12.053  1.00  0.00    -0.346 OA
HETATM   38  C   UNL     1      42.924  -7.800  12.642  1.00  0.00     0.202 C 
HETATM   39  C   UNL     1      41.427  -7.876  12.395  1.00  0.00     0.202 C 
ENDBRANCH  23  24
ENDBRANCH   1  23
TORSDOF 11
ENDMDL
MODEL 9
REMARK VINA RESULT:      -7.7      2.644      7.939
REMARK  11 active torsions:
REMARK  status: ('A' for Active; 'I' for Inactive)
REMARK    1  A    between atoms: N_2  and  C_4 
REMARK    2  A    between atoms: C_4  and  C_5 
REMARK    3  A    between atoms: C_5  and  C_6 
REMARK    4  A    between atoms: C_6  and  N_7 
REMARK    5  A    between atoms: N_7  and  C_8 
REMARK    6  A    between atoms: N_7  and  C_21 
REMARK    7  A    between atoms: C_8  and  N_9 
REMARK    8  A    between atoms: N_9  and  C_10 
REMARK    9  A    between atoms: C_11  and  C_12 
REMARK   10  A    between atoms: C_12  and  O_13 
REMARK   11  A    between atoms: C_21  and  C_22 
ROOT
HETATM    1  N   UNL     1      41.496 -10.294   5.951  1.00  0.00    -0.354 N 
ENDROOT
BRANCH   1   2
HETATM    2  C   UNL     1      41.540 -10.054   4.494  1.00  0.00     0.127 C 
BRANCH   2   3
HETATM    3  C   UNL     1      42.739 -10.659   3.749  1.00  0.00     0.047 C 
BRANCH   3   4
HETATM    4  C   UNL     1      42.338 -11.494   2.536  1.00  0.00     0.235 C 
BRANCH   4   5
HETATM    5  N   UNL     1      41.155 -10.850   1.827  1.00  0.00    -0.079 N 
HETATM    6  C   UNL     1      40.199 -11.841   1.225  1.00  0.00     0.269 C 
HETATM    7  H   UNL     1      40.636 -10.311   2.533  1.00  0.00     0.278 HD
HETATM    8  C   UNL     1      41.613  -9.841   0.805  1.00  0.00     0.269 C 
ENDBRANCH   4   5
ENDBRANCH   3   4
ENDBRANCH   2   3
ENDBRANCH   1   2
BRANCH   1   9
HETATM    9  C   UNL     1      41.951  -9.370   6.933  1.00  0.00     0.174 C 
HETATM   10  S   UNL     1      41.792  -7.716   6.721  1.00  0.00    -0.041 SA
BRANCH   9  11
HETATM   11  N   UNL     1      42.529 -10.018   8.016  1.00  0.00    -0.332 N 
HETATM   12  H   UNL     1      43.108 -10.805   7.726  1.00  0.00     0.168 HD
BRANCH  11  13
HETATM   13  C   UNL     1      42.826  -9.608   9.347  1.00  0.00     0.050 A 
HETATM   14  C   UNL     1      44.176  -9.319   9.687  1.00  0.00     0.066 A 
HETATM   15  C   UNL     1      44.504  -8.889  10.984  1.00  0.00     0.020 A 
HETATM   16  C   UNL     1      43.512  -8.753  11.950  1.00  0.00     0.001 A 
HETATM   17  C   UNL     1      42.194  -9.064  11.634  1.00  0.00     0.002 A 
HETATM   18  C   UNL     1      41.856  -9.496  10.348  1.00  0.00     0.030 A 
BRANCH  14  19
HETATM   19  C   UNL     1      45.255  -9.464   8.667  1.00  0.00     0.295 C 
HETATM   20  O   UNL     1      45.796  -8.498   8.143  1.00  0.00    -0.259 OA
BRANCH  19  21
HETATM   21  O   UNL     1      45.570 -10.761   8.460  1.00  0.00    -0.322 OA
HETATM   22  C   UNL     1      45.813 -11.114   7.094  1.00  0.00     0.213 C 
ENDBRANCH  19  21
ENDBRANCH  14  19
ENDBRANCH  11  13
ENDBRANCH   9  11
ENDBRANCH   1   9
BRANCH   1  23
HETATM   23  C   UNL     1      40.563 -11.381   6.374  1.00  0.00     0.169 C 
BRANCH  23  24
HETATM   24  C   UNL     1      40.863 -12.713   5.720  1.00  0.00     0.029 A 
HETATM   25  C   UNL     1      39.878 -13.102   4.658  1.00  0.00     0.253 A 
HETATM   26  O   UNL     1      38.892 -12.407   4.429  1.00  0.00    -0.268 OA
HETATM   27  N   UNL     1      40.116 -14.260   3.964  1.00  0.00    -0.322 N 
HETATM   28  C   UNL     1      41.216 -15.095   4.193  1.00  0.00     0.048 A 
HETATM   29  H   UNL     1      39.446 -14.491   3.241  1.00  0.00     0.169 HD
HETATM   30  C   UNL     1      42.121 -14.754   5.203  1.00  0.00    -0.006 A 
HETATM   31  C   UNL     1      41.414 -16.239   3.421  1.00  0.00     0.070 A 
HETATM   32  C   UNL     1      43.236 -15.561   5.443  1.00  0.00     0.053 A 
HETATM   33  C   UNL     1      41.897 -13.535   5.973  1.00  0.00     0.028 A 
HETATM   34  C   UNL     1      43.437 -16.706   4.677  1.00  0.00     0.103 A 
HETATM   35  C   UNL     1      42.540 -17.032   3.654  1.00  0.00     0.104 A 
HETATM   36  O   UNL     1      44.549 -17.450   4.976  1.00  0.00    -0.346 OA
HETATM   37  O   UNL     1      42.708 -18.121   2.837  1.00  0.00    -0.346 OA
HETATM   38  C   UNL     1      44.050 -18.620   2.904  1.00  0.00     0.202 C 
HETATM   39  C   UNL     1      44.506 -18.738   4.348  1.00  0.00     0.202 C 
ENDBRANCH  23  24
ENDBRANCH   1  23
TORSDOF 11
ENDMDL
MODEL 10
REMARK VINA RESULT:      -7.7      3.175      6.880
REMARK  11 active torsions:
REMARK  status: ('A' for Active; 'I' for Inactive)
REMARK    1  A    between atoms: N_2  and  C_4 
REMARK    2  A    between atoms: C_4  and  C_5 
REMARK    3  A    between atoms: C_5  and  C_6 
REMARK    4  A    between atoms: C_6  and  N_7 
REMARK    5  A    between atoms: N_7  and  C_8 
REMARK    6  A    between atoms: N_7  and  C_21 
REMARK    7  A    between atoms: C_8  and  N_9 
REMARK    8  A    between atoms: N_9  and  C_10 
REMARK    9  A    between atoms: C_11  and  C_12 
REMARK   10  A    between atoms: C_12  and  O_13 
REMARK   11  A    between atoms: C_21  and  C_22 
ROOT
HETATM    1  N   UNL     1      40.655 -14.185   2.440  1.00  0.00    -0.354 N 
ENDROOT
BRANCH   1   2
HETATM    2  C   UNL     1      39.493 -13.677   3.197  1.00  0.00     0.127 C 
BRANCH   2   3
HETATM    3  C   UNL     1      39.788 -12.559   4.209  1.00  0.00     0.047 C 
BRANCH   3   4
HETATM    4  C   UNL     1      39.850 -13.052   5.652  1.00  0.00     0.235 C 
BRANCH   4   5
HETATM    5  N   UNL     1      40.501 -11.998   6.537  1.00  0.00    -0.079 N 
HETATM    6  C   UNL     1      39.643 -10.784   6.760  1.00  0.00     0.269 C 
HETATM    7  H   UNL     1      40.663 -12.434   7.455  1.00  0.00     0.278 HD
HETATM    8  C   UNL     1      41.865 -11.617   6.023  1.00  0.00     0.269 C 
ENDBRANCH   4   5
ENDBRANCH   3   4
ENDBRANCH   2   3
ENDBRANCH   1   2
BRANCH   1   9
HETATM    9  C   UNL     1      41.909 -14.525   3.021  1.00  0.00     0.174 C 
HETATM   10  S   UNL     1      43.242 -13.520   2.880  1.00  0.00    -0.041 SA
BRANCH   9  11
HETATM   11  N   UNL     1      41.859 -15.754   3.664  1.00  0.00    -0.332 N 
HETATM   12  H   UNL     1      40.970 -15.898   4.144  1.00  0.00     0.168 HD
BRANCH  11  13
HETATM   13  C   UNL     1      42.560 -16.979   3.474  1.00  0.00     0.050 A 
HETATM   14  C   UNL     1      43.402 -17.452   4.517  1.00  0.00     0.066 A 
HETATM   15  C   UNL     1      44.091 -18.669   4.375  1.00  0.00     0.020 A 
HETATM   16  C   UNL     1      43.964 -19.415   3.207  1.00  0.00     0.001 A 
HETATM   17  C   UNL     1      43.166 -18.943   2.171  1.00  0.00     0.002 A 
HETATM   18  C   UNL     1      42.478 -17.732   2.299  1.00  0.00     0.030 A 
BRANCH  14  19
HETATM   19  C   UNL     1      43.557 -16.664   5.775  1.00  0.00     0.295 C 
HETATM   20  O   UNL     1      44.646 -16.258   6.163  1.00  0.00    -0.259 OA
BRANCH  19  21
HETATM   21  O   UNL     1      42.364 -16.429   6.363  1.00  0.00    -0.322 OA
HETATM   22  C   UNL     1      42.355 -15.349   7.302  1.00  0.00     0.213 C 
ENDBRANCH  19  21
ENDBRANCH  14  19
ENDBRANCH  11  13
ENDBRANCH   9  11
ENDBRANCH   1   9
BRANCH   1  23
HETATM   23  C   UNL     1      40.326 -14.728   1.088  1.00  0.00     0.169 C 
BRANCH  23  24
HETATM   24  C   UNL     1      40.422 -13.692  -0.011  1.00  0.00     0.029 A 
HETATM   25  C   UNL     1      39.720 -14.085  -1.277  1.00  0.00     0.253 A 
HETATM   26  O   UNL     1      39.196 -15.189  -1.389  1.00  0.00    -0.268 OA
HETATM   27  N   UNL     1      39.695 -13.171  -2.299  1.00  0.00    -0.322 N 
HETATM   28  C   UNL     1      40.288 -11.905  -2.229  1.00  0.00     0.048 A 
HETATM   29  H   UNL     1      39.201 -13.455  -3.137  1.00  0.00     0.169 HD
HETATM   30  C   UNL     1      40.970 -11.545  -1.063  1.00  0.00    -0.006 A 
HETATM   31  C   UNL     1      40.189 -11.013  -3.297  1.00  0.00     0.070 A 
HETATM   32  C   UNL     1      41.557 -10.281  -0.960  1.00  0.00     0.053 A 
HETATM   33  C   UNL     1      41.030 -12.494   0.044  1.00  0.00     0.028 A 
HETATM   34  C   UNL     1      41.464  -9.388  -2.024  1.00  0.00     0.103 A 
HETATM   35  C   UNL     1      40.763  -9.745  -3.181  1.00  0.00     0.104 A 
HETATM   36  O   UNL     1      42.072  -8.171  -1.852  1.00  0.00    -0.346 OA
HETATM   37  O   UNL     1      40.599  -8.894  -4.243  1.00  0.00    -0.346 OA
HETATM   38  C   UNL     1      40.877  -7.538  -3.872  1.00  0.00     0.202 C 
HETATM   39  C   UNL     1      42.176  -7.453  -3.087  1.00  0.00     0.202 C 
ENDBRANCH  23  24
ENDBRANCH   1  23
TORSDOF 11
ENDMDL
