MODEL 1
REMARK VINA RESULT:     -10.9      0.000      0.000
REMARK  6 active torsions:
REMARK  status: ('A' for Active; 'I' for Inactive)
REMARK    1  A    between atoms: C_8  and  N_9 
REMARK       I    between atoms: N_9  and  C_10 
REMARK    2  A    between atoms: C_10  and  C_12 
REMARK    3  A    between atoms: C_16  and  C_17 
REMARK    4  A    between atoms: C_17  and  N_18 
REMARK       I    between atoms: N_18  and  C_19 
REMARK    5  A    between atoms: C_19  and  C_21 
REMARK    6  A    between atoms: C_25  and  C_31 
REMARK       I    between atoms: C_31  and  N_33 
ROOT
HETATM    1  C   UNL     1      44.393 -10.259   9.118  1.00  0.00     0.032 A 
HETATM    2  C   UNL     1      45.785 -10.338   8.987  1.00  0.00     0.017 A 
HETATM    3  C   UNL     1      46.348 -10.665   7.752  1.00  0.00     0.002 A 
HETATM    4  C   UNL     1      45.529 -10.921   6.650  1.00  0.00     0.009 A 
HETATM    5  C   UNL     1      44.134 -10.846   6.766  1.00  0.00    -0.040 A 
HETATM    6  C   UNL     1      43.574 -10.525   8.011  1.00  0.00     0.026 A 
ENDROOT
BRANCH   5   7
HETATM    7  C   UNL     1      43.248 -11.153   5.588  1.00  0.00     0.161 C 
BRANCH   7   8
HETATM    8  N   UNL     1      43.420 -12.518   5.154  1.00  0.00    -0.351 N 
HETATM    9  C   UNL     1      42.438 -13.469   5.311  1.00  0.00     0.268 C 
HETATM   10  O   UNL     1      41.363 -13.199   5.840  1.00  0.00    -0.266 OA
HETATM   11  H   UNL     1      44.237 -12.733   4.606  1.00  0.00     0.163 HD
BRANCH   9  12
HETATM   12  C   UNL     1      42.780 -14.799   4.822  1.00  0.00     0.103 A 
HETATM   13  C   UNL     1      43.219 -15.916   5.519  1.00  0.00     0.049 A 
HETATM   14  C   UNL     1      43.360 -17.002   4.616  1.00  0.00    -0.006 A 
HETATM   15  C   UNL     1      43.736 -18.351   4.775  1.00  0.00     0.030 A 
HETATM   16  C   UNL     1      43.014 -16.534   3.350  1.00  0.00     0.045 A 
HETATM   17  C   UNL     1      43.753 -19.209   3.664  1.00  0.00     0.032 A 
HETATM   18  C   UNL     1      43.389 -18.722   2.406  1.00  0.00     0.019 A 
HETATM   19  C   UNL     1      43.022 -17.380   2.229  1.00  0.00     0.031 A 
HETATM   20  N   UNL     1      42.692 -15.195   3.492  1.00  0.00    -0.346 N 
HETATM   21  C   UNL     1      42.299 -14.322   2.401  1.00  0.00     0.156 C 
BRANCH  17  22
HETATM   22  C   UNL     1      44.134 -20.631   3.895  1.00  0.00     0.249 C 
HETATM   23  O   UNL     1      44.037 -21.475   3.011  1.00  0.00    -0.268 OA
HETATM   24  N   UNL     1      44.579 -20.989   5.137  1.00  0.00    -0.366 N 
HETATM   25  H   UNL     1      44.494 -20.404   5.953  1.00  0.00     0.159 HD
HETATM   26  H   UNL     1      44.752 -21.976   5.280  1.00  0.00     0.159 HD
ENDBRANCH  17  22
ENDBRANCH   9  12
ENDBRANCH   7   8
ENDBRANCH   5   7
BRANCH   1  27
HETATM   27  C   UNL     1      43.732  -9.942  10.416  1.00  0.00     0.256 C 
HETATM   28  N   UNL     1      43.426  -8.607  10.612  1.00  0.00    -0.323 N 
HETATM   29  H   UNL     1      43.591  -7.977   9.841  1.00  0.00     0.169 HD
HETATM   30  O   UNL     1      43.484 -10.873  11.173  1.00  0.00    -0.267 OA
BRANCH  28  31
HETATM   31  C   UNL     1      42.810  -8.031  11.747  1.00  0.00     0.035 A 
HETATM   32  C   UNL     1      43.401  -7.977  13.008  1.00  0.00     0.030 A 
HETATM   33  C   UNL     1      42.726  -7.395  14.086  1.00  0.00     0.010 A 
HETATM   34  C   UNL     1      41.451  -6.847  13.914  1.00  0.00    -0.048 A 
HETATM   35  C   UNL     1      40.710  -6.267  15.091  1.00  0.00     0.069 C 
HETATM   36  C   UNL     1      40.838  -6.903  12.653  1.00  0.00    -0.022 A 
HETATM   37  C   UNL     1      39.525  -5.391  14.668  1.00  0.00     0.277 C 
HETATM   38  N   UNL     1      38.702  -6.082  13.665  1.00  0.00     0.088 N 
HETATM   39  C   UNL     1      37.479  -5.331  13.389  1.00  0.00     0.310 C 
HETATM   40  C   UNL     1      39.475  -6.277  12.426  1.00  0.00     0.311 C 
HETATM   41  C   UNL     1      41.531  -7.484  11.576  1.00  0.00     0.039 A 
ENDBRANCH  28  31
ENDBRANCH   1  27
TORSDOF 6
ENDMDL
MODEL 2
REMARK VINA RESULT:     -10.6      4.417      8.963
REMARK  6 active torsions:
REMARK  status: ('A' for Active; 'I' for Inactive)
REMARK    1  A    between atoms: C_8  and  N_9 
REMARK       I    between atoms: N_9  and  C_10 
REMARK    2  A    between atoms: C_10  and  C_12 
REMARK    3  A    between atoms: C_16  and  C_17 
REMARK    4  A    between atoms: C_17  and  N_18 
REMARK       I    between atoms: N_18  and  C_19 
REMARK    5  A    between atoms: C_19  and  C_21 
REMARK    6  A    between atoms: C_25  and  C_31 
REMARK       I    between atoms: C_31  and  N_33 
ROOT
HETATM    1  C   UNL     1      41.892  -9.904   5.086  1.00  0.00     0.032 A 
HETATM    2  C   UNL     1      41.592  -8.853   5.960  1.00  0.00     0.017 A 
HETATM    3  C   UNL     1      42.238  -8.773   7.196  1.00  0.00     0.002 A 
HETATM    4  C   UNL     1      43.175  -9.741   7.565  1.00  0.00     0.009 A 
HETATM    5  C   UNL     1      43.484 -10.799   6.700  1.00  0.00    -0.040 A 
HETATM    6  C   UNL     1      42.827 -10.879   5.464  1.00  0.00     0.026 A 
ENDROOT
BRANCH   5   7
HETATM    7  C   UNL     1      44.470 -11.862   7.109  1.00  0.00     0.161 C 
BRANCH   7   8
HETATM    8  N   UNL     1      44.330 -13.040   6.289  1.00  0.00    -0.351 N 
HETATM    9  C   UNL     1      43.713 -14.183   6.743  1.00  0.00     0.268 C 
HETATM   10  O   UNL     1      43.256 -14.256   7.880  1.00  0.00    -0.266 OA
HETATM   11  H   UNL     1      44.581 -12.964   5.317  1.00  0.00     0.163 HD
BRANCH   9  12
HETATM   12  C   UNL     1      43.663 -15.281   5.785  1.00  0.00     0.103 A 
HETATM   13  C   UNL     1      44.233 -16.545   5.852  1.00  0.00     0.049 A 
HETATM   14  C   UNL     1      43.852 -17.290   4.706  1.00  0.00    -0.006 A 
HETATM   15  C   UNL     1      44.108 -18.607   4.278  1.00  0.00     0.030 A 
HETATM   16  C   UNL     1      43.049 -16.461   3.925  1.00  0.00     0.045 A 
HETATM   17  C   UNL     1      43.551 -19.074   3.076  1.00  0.00     0.032 A 
HETATM   18  C   UNL     1      42.738 -18.231   2.316  1.00  0.00     0.019 A 
HETATM   19  C   UNL     1      42.480 -16.913   2.722  1.00  0.00     0.031 A 
HETATM   20  N   UNL     1      42.968 -15.245   4.581  1.00  0.00    -0.346 N 
HETATM   21  C   UNL     1      42.243 -14.089   4.089  1.00  0.00     0.156 C 
BRANCH  17  22
HETATM   22  C   UNL     1      43.836 -20.484   2.684  1.00  0.00     0.249 C 
HETATM   23  O   UNL     1      43.846 -20.835   1.510  1.00  0.00    -0.268 OA
HETATM   24  N   UNL     1      44.065 -21.397   3.675  1.00  0.00    -0.366 N 
HETATM   25  H   UNL     1      43.875 -21.227   4.650  1.00  0.00     0.159 HD
HETATM   26  H   UNL     1      44.174 -22.359   3.377  1.00  0.00     0.159 HD
ENDBRANCH  17  22
ENDBRANCH   9  12
ENDBRANCH   7   8
ENDBRANCH   5   7
BRANCH   1  27
HETATM   27  C   UNL     1      41.217 -10.060   3.765  1.00  0.00     0.256 C 
HETATM   28  N   UNL     1      42.044 -10.427   2.719  1.00  0.00    -0.323 N 
HETATM   29  H   UNL     1      43.005 -10.642   2.943  1.00  0.00     0.169 HD
HETATM   30  O   UNL     1      40.004  -9.889   3.721  1.00  0.00    -0.267 OA
BRANCH  28  31
HETATM   31  C   UNL     1      41.673 -10.633   1.371  1.00  0.00     0.035 A 
HETATM   32  C   UNL     1      41.835  -9.680   0.366  1.00  0.00     0.030 A 
HETATM   33  C   UNL     1      41.437  -9.956  -0.946  1.00  0.00     0.010 A 
HETATM   34  C   UNL     1      40.881 -11.196  -1.275  1.00  0.00    -0.048 A 
HETATM   35  C   UNL     1      40.410 -11.466  -2.681  1.00  0.00     0.069 C 
HETATM   36  C   UNL     1      40.702 -12.162  -0.273  1.00  0.00    -0.022 A 
HETATM   37  C   UNL     1      40.188 -12.959  -2.951  1.00  0.00     0.277 C 
HETATM   38  N   UNL     1      39.391 -13.567  -1.875  1.00  0.00     0.088 N 
HETATM   39  C   UNL     1      39.027 -14.942  -2.212  1.00  0.00     0.310 C 
HETATM   40  C   UNL     1      40.143 -13.531  -0.609  1.00  0.00     0.311 C 
HETATM   41  C   UNL     1      41.113 -11.875   1.040  1.00  0.00     0.039 A 
ENDBRANCH  28  31
ENDBRANCH   1  27
TORSDOF 6
ENDMDL
MODEL 3
REMARK VINA RESULT:     -10.3      2.147     12.691
REMARK  6 active torsions:
REMARK  status: ('A' for Active; 'I' for Inactive)
REMARK    1  A    between atoms: C_8  and  N_9 
REMARK       I    between atoms: N_9  and  C_10 
REMARK    2  A    between atoms: C_10  and  C_12 
REMARK    3  A    between atoms: C_16  and  C_17 
REMARK    4  A    between atoms: C_17  and  N_18 
REMARK       I    between atoms: N_18  and  C_19 
REMARK    5  A    between atoms: C_19  and  C_21 
REMARK    6  A    between atoms: C_25  and  C_31 
REMARK       I    between atoms: C_31  and  N_33 
ROOT
HETATM    1  C   UNL     1      41.555 -11.807   5.493  1.00  0.00     0.032 A 
HETATM    2  C   UNL     1      40.606 -10.821   5.198  1.00  0.00     0.017 A 
HETATM    3  C   UNL     1      40.737  -9.545   5.749  1.00  0.00     0.002 A 
HETATM    4  C   UNL     1      41.806  -9.250   6.598  1.00  0.00     0.009 A 
HETATM    5  C   UNL     1      42.764 -10.227   6.903  1.00  0.00    -0.040 A 
HETATM    6  C   UNL     1      42.623 -11.510   6.353  1.00  0.00     0.026 A 
ENDROOT
BRANCH   5   7
HETATM    7  C   UNL     1      43.900  -9.922   7.843  1.00  0.00     0.161 C 
BRANCH   7   8
HETATM    8  N   UNL     1      43.413  -9.335   9.068  1.00  0.00    -0.351 N 
HETATM    9  C   UNL     1      43.474  -9.993  10.274  1.00  0.00     0.268 C 
HETATM   10  O   UNL     1      43.944 -11.125  10.364  1.00  0.00    -0.266 OA
HETATM   11  H   UNL     1      43.142  -8.365   9.044  1.00  0.00     0.163 HD
BRANCH   9  12
HETATM   12  C   UNL     1      42.932  -9.257  11.410  1.00  0.00     0.103 A 
HETATM   13  C   UNL     1      43.591  -8.540  12.399  1.00  0.00     0.049 A 
HETATM   14  C   UNL     1      42.632  -7.940  13.257  1.00  0.00    -0.006 A 
HETATM   15  C   UNL     1      42.731  -7.098  14.382  1.00  0.00     0.030 A 
HETATM   16  C   UNL     1      41.373  -8.310  12.789  1.00  0.00     0.045 A 
HETATM   17  C   UNL     1      41.567  -6.636  15.016  1.00  0.00     0.032 A 
HETATM   18  C   UNL     1      40.314  -7.008  14.521  1.00  0.00     0.019 A 
HETATM   19  C   UNL     1      40.197  -7.854  13.409  1.00  0.00     0.031 A 
HETATM   20  N   UNL     1      41.576  -9.125  11.689  1.00  0.00    -0.346 N 
HETATM   21  C   UNL     1      40.517  -9.750  10.918  1.00  0.00     0.156 C 
BRANCH  17  22
HETATM   22  C   UNL     1      41.731  -5.728  16.187  1.00  0.00     0.249 C 
HETATM   23  O   UNL     1      41.247  -4.602  16.200  1.00  0.00    -0.268 OA
HETATM   24  N   UNL     1      42.464  -6.172  17.252  1.00  0.00    -0.366 N 
HETATM   25  H   UNL     1      43.051  -6.991  17.227  1.00  0.00     0.159 HD
HETATM   26  H   UNL     1      42.623  -5.500  17.993  1.00  0.00     0.159 HD
ENDBRANCH  17  22
ENDBRANCH   9  12
ENDBRANCH   7   8
ENDBRANCH   5   7
BRANCH   1  27
HETATM   27  C   UNL     1      41.455 -13.195   4.958  1.00  0.00     0.256 C 
HETATM   28  N   UNL     1      42.605 -13.684   4.365  1.00  0.00    -0.323 N 
HETATM   29  H   UNL     1      43.433 -13.107   4.417  1.00  0.00     0.169 HD
HETATM   30  O   UNL     1      40.397 -13.792   5.117  1.00  0.00    -0.267 OA
BRANCH  28  31
HETATM   31  C   UNL     1      42.786 -14.955   3.772  1.00  0.00     0.035 A 
HETATM   32  C   UNL     1      42.558 -15.222   2.423  1.00  0.00     0.030 A 
HETATM   33  C   UNL     1      42.753 -16.508   1.911  1.00  0.00     0.010 A 
HETATM   34  C   UNL     1      43.190 -17.546   2.740  1.00  0.00    -0.048 A 
HETATM   35  C   UNL     1      43.349 -18.940   2.190  1.00  0.00     0.069 C 
HETATM   36  C   UNL     1      43.414 -17.295   4.103  1.00  0.00    -0.022 A 
HETATM   37  C   UNL     1      44.179 -19.845   3.110  1.00  0.00     0.277 C 
HETATM   38  N   UNL     1      43.701 -19.750   4.497  1.00  0.00     0.088 N 
HETATM   39  C   UNL     1      44.367 -20.737   5.344  1.00  0.00     0.310 C 
HETATM   40  C   UNL     1      43.931 -18.390   5.016  1.00  0.00     0.311 C 
HETATM   41  C   UNL     1      43.221 -15.996   4.604  1.00  0.00     0.039 A 
ENDBRANCH  28  31
ENDBRANCH   1  27
TORSDOF 6
ENDMDL
MODEL 4
REMARK VINA RESULT:     -10.3      2.789     12.966
REMARK  6 active torsions:
REMARK  status: ('A' for Active; 'I' for Inactive)
REMARK    1  A    between atoms: C_8  and  N_9 
REMARK       I    between atoms: N_9  and  C_10 
REMARK    2  A    between atoms: C_10  and  C_12 
REMARK    3  A    between atoms: C_16  and  C_17 
REMARK    4  A    between atoms: C_17  and  N_18 
REMARK       I    between atoms: N_18  and  C_19 
REMARK    5  A    between atoms: C_19  and  C_21 
REMARK    6  A    between atoms: C_25  and  C_31 
REMARK       I    between atoms: C_31  and  N_33 
ROOT
HETATM    1  C   UNL     1      44.417 -10.830   8.286  1.00  0.00     0.032 A 
HETATM    2  C   UNL     1      45.514 -10.480   9.082  1.00  0.00     0.017 A 
HETATM    3  C   UNL     1      45.346  -9.586  10.141  1.00  0.00     0.002 A 
HETATM    4  C   UNL     1      44.090  -9.034  10.404  1.00  0.00     0.009 A 
HETATM    5  C   UNL     1      42.983  -9.374   9.615  1.00  0.00    -0.040 A 
HETATM    6  C   UNL     1      43.160 -10.266   8.548  1.00  0.00     0.026 A 
ENDROOT
BRANCH   5   7
HETATM    7  C   UNL     1      41.635  -8.755   9.877  1.00  0.00     0.161 C 
BRANCH   7   8
HETATM    8  N   UNL     1      41.535  -8.290  11.239  1.00  0.00    -0.351 N 
HETATM    9  C   UNL     1      40.806  -8.961  12.194  1.00  0.00     0.268 C 
HETATM   10  O   UNL     1      40.195  -9.992  11.926  1.00  0.00    -0.266 OA
HETATM   11  H   UNL     1      42.126  -7.523  11.514  1.00  0.00     0.163 HD
BRANCH   9  12
HETATM   12  C   UNL     1      40.809  -8.350  13.517  1.00  0.00     0.103 A 
HETATM   13  C   UNL     1      41.700  -8.512  14.569  1.00  0.00     0.049 A 
HETATM   14  C   UNL     1      41.322  -7.655  15.636  1.00  0.00    -0.006 A 
HETATM   15  C   UNL     1      41.871  -7.390  16.906  1.00  0.00     0.030 A 
HETATM   16  C   UNL     1      40.177  -6.973  15.231  1.00  0.00     0.045 A 
HETATM   17  C   UNL     1      41.266  -6.442  17.747  1.00  0.00     0.032 A 
HETATM   18  C   UNL     1      40.127  -5.760  17.315  1.00  0.00     0.019 A 
HETATM   19  C   UNL     1      39.561  -6.019  16.058  1.00  0.00     0.031 A 
HETATM   20  N   UNL     1      39.868  -7.425  13.959  1.00  0.00    -0.346 N 
HETATM   21  C   UNL     1      38.725  -6.984  13.182  1.00  0.00     0.156 C 
BRANCH  17  22
HETATM   22  C   UNL     1      41.904  -6.185  19.069  1.00  0.00     0.249 C 
HETATM   23  O   UNL     1      41.314  -5.586  19.962  1.00  0.00    -0.268 OA
HETATM   24  N   UNL     1      43.188  -6.613  19.263  1.00  0.00    -0.366 N 
HETATM   25  H   UNL     1      43.794  -6.924  18.520  1.00  0.00     0.159 HD
HETATM   26  H   UNL     1      43.617  -6.350  20.142  1.00  0.00     0.159 HD
ENDBRANCH  17  22
ENDBRANCH   9  12
ENDBRANCH   7   8
ENDBRANCH   5   7
BRANCH   1  27
HETATM   27  C   UNL     1      44.538 -11.757   7.124  1.00  0.00     0.256 C 
HETATM   28  N   UNL     1      43.502 -12.662   6.981  1.00  0.00    -0.323 N 
HETATM   29  H   UNL     1      42.717 -12.569   7.610  1.00  0.00     0.169 HD
HETATM   30  O   UNL     1      45.506 -11.621   6.385  1.00  0.00    -0.267 OA
BRANCH  28  31
HETATM   31  C   UNL     1      43.367 -13.653   5.982  1.00  0.00     0.035 A 
HETATM   32  C   UNL     1      42.898 -13.400   4.694  1.00  0.00     0.030 A 
HETATM   33  C   UNL     1      42.787 -14.436   3.762  1.00  0.00     0.010 A 
HETATM   34  C   UNL     1      43.156 -15.741   4.100  1.00  0.00    -0.048 A 
HETATM   35  C   UNL     1      42.987 -16.860   3.105  1.00  0.00     0.069 C 
HETATM   36  C   UNL     1      43.621 -16.015   5.396  1.00  0.00    -0.022 A 
HETATM   37  C   UNL     1      43.774 -18.117   3.493  1.00  0.00     0.277 C 
HETATM   38  N   UNL     1      43.534 -18.466   4.901  1.00  0.00     0.088 N 
HETATM   39  C   UNL     1      44.137 -19.756   5.227  1.00  0.00     0.310 C 
HETATM   40  C   UNL     1      44.071 -17.411   5.778  1.00  0.00     0.311 C 
HETATM   41  C   UNL     1      43.735 -14.963   6.322  1.00  0.00     0.039 A 
ENDBRANCH  28  31
ENDBRANCH   1  27
TORSDOF 6
ENDMDL
MODEL 5
REMARK VINA RESULT:      -9.8      2.588     12.966
REMARK  6 active torsions:
REMARK  status: ('A' for Active; 'I' for Inactive)
REMARK    1  A    between atoms: C_8  and  N_9 
REMARK       I    between atoms: N_9  and  C_10 
REMARK    2  A    between atoms: C_10  and  C_12 
REMARK    3  A    between atoms: C_16  and  C_17 
REMARK    4  A    between atoms: C_17  and  N_18 
REMARK       I    between atoms: N_18  and  C_19 
REMARK    5  A    between atoms: C_19  and  C_21 
REMARK    6  A    between atoms: C_25  and  C_31 
REMARK       I    between atoms: C_31  and  N_33 
ROOT
HETATM    1  C   UNL     1      44.558 -10.615   8.347  1.00  0.00     0.032 A 
HETATM    2  C   UNL     1      45.192  -9.368   8.316  1.00  0.00     0.017 A 
HETATM    3  C   UNL     1      45.102  -8.515   9.418  1.00  0.00     0.002 A 
HETATM    4  C   UNL     1      44.375  -8.899  10.547  1.00  0.00     0.009 A 
HETATM    5  C   UNL     1      43.733 -10.144  10.593  1.00  0.00    -0.040 A 
HETATM    6  C   UNL     1      43.821 -10.992   9.480  1.00  0.00     0.026 A 
ENDROOT
BRANCH   5   7
HETATM    7  C   UNL     1      42.922 -10.546  11.796  1.00  0.00     0.161 C 
BRANCH   7   8
HETATM    8  N   UNL     1      42.114  -9.447  12.266  1.00  0.00    -0.351 N 
HETATM    9  C   UNL     1      40.937  -9.639  12.951  1.00  0.00     0.268 C 
HETATM   10  O   UNL     1      40.512 -10.767  13.191  1.00  0.00    -0.266 OA
HETATM   11  H   UNL     1      42.502  -8.520  12.195  1.00  0.00     0.163 HD
BRANCH   9  12
HETATM   12  C   UNL     1      40.245  -8.419  13.347  1.00  0.00     0.103 A 
HETATM   13  C   UNL     1      39.219  -7.734  12.711  1.00  0.00     0.049 A 
HETATM   14  C   UNL     1      38.826  -6.632  13.515  1.00  0.00    -0.006 A 
HETATM   15  C   UNL     1      37.837  -5.638  13.380  1.00  0.00     0.030 A 
HETATM   16  C   UNL     1      39.635  -6.641  14.649  1.00  0.00     0.045 A 
HETATM   17  C   UNL     1      37.671  -4.673  14.386  1.00  0.00     0.032 A 
HETATM   18  C   UNL     1      38.484  -4.709  15.521  1.00  0.00     0.019 A 
HETATM   19  C   UNL     1      39.480  -5.685  15.668  1.00  0.00     0.031 A 
HETATM   20  N   UNL     1      40.502  -7.712  14.517  1.00  0.00    -0.346 N 
HETATM   21  C   UNL     1      41.533  -8.063  15.476  1.00  0.00     0.156 C 
BRANCH  17  22
HETATM   22  C   UNL     1      36.592  -3.661  14.202  1.00  0.00     0.249 C 
HETATM   23  O   UNL     1      36.381  -3.137  13.114  1.00  0.00    -0.268 OA
HETATM   24  N   UNL     1      35.847  -3.304  15.291  1.00  0.00    -0.366 N 
HETATM   25  H   UNL     1      36.093  -3.537  16.240  1.00  0.00     0.159 HD
HETATM   26  H   UNL     1      35.179  -2.556  15.147  1.00  0.00     0.159 HD
ENDBRANCH  17  22
ENDBRANCH   9  12
ENDBRANCH   7   8
ENDBRANCH   5   7
BRANCH   1  27
HETATM   27  C   UNL     1      44.595 -11.557   7.192  1.00  0.00     0.256 C 
HETATM   28  N   UNL     1      43.508 -12.407   7.089  1.00  0.00    -0.323 N 
HETATM   29  H   UNL     1      42.748 -12.267   7.740  1.00  0.00     0.169 HD
HETATM   30  O   UNL     1      45.545 -11.480   6.423  1.00  0.00    -0.267 OA
BRANCH  28  31
HETATM   31  C   UNL     1      43.291 -13.398   6.105  1.00  0.00     0.035 A 
HETATM   32  C   UNL     1      42.674 -13.155   4.879  1.00  0.00     0.030 A 
HETATM   33  C   UNL     1      42.490 -14.190   3.957  1.00  0.00     0.010 A 
HETATM   34  C   UNL     1      42.931 -15.485   4.244  1.00  0.00    -0.048 A 
HETATM   35  C   UNL     1      42.683 -16.605   3.267  1.00  0.00     0.069 C 
HETATM   36  C   UNL     1      43.545 -15.750   5.479  1.00  0.00    -0.022 A 
HETATM   37  C   UNL     1      43.544 -17.841   3.556  1.00  0.00     0.277 C 
HETATM   38  N   UNL     1      43.471 -18.200   4.980  1.00  0.00     0.088 N 
HETATM   39  C   UNL     1      44.143 -19.474   5.229  1.00  0.00     0.310 C 
HETATM   40  C   UNL     1      44.073 -17.134   5.800  1.00  0.00     0.311 C 
HETATM   41  C   UNL     1      43.731 -14.698   6.393  1.00  0.00     0.039 A 
ENDBRANCH  28  31
ENDBRANCH   1  27
TORSDOF 6
ENDMDL
MODEL 6
REMARK VINA RESULT:      -9.6      2.716      4.888
REMARK  6 active torsions:
REMARK  status: ('A' for Active; 'I' for Inactive)
REMARK    1  A    between atoms: C_8  and  N_9 
REMARK       I    between atoms: N_9  and  C_10 
REMARK    2  A    between atoms: C_10  and  C_12 
REMARK    3  A    between atoms: C_16  and  C_17 
REMARK    4  A    between atoms: C_17  and  N_18 
REMARK       I    between atoms: N_18  and  C_19 
REMARK    5  A    between atoms: C_19  and  C_21 
REMARK    6  A    between atoms: C_25  and  C_31 
REMARK       I    between atoms: C_31  and  N_33 
ROOT
HETATM    1  C   UNL     1      39.520 -10.489   4.571  1.00  0.00     0.032 A 
HETATM    2  C   UNL     1      38.870  -9.281   4.293  1.00  0.00     0.017 A 
HETATM    3  C   UNL     1      38.236  -9.100   3.062  1.00  0.00     0.002 A 
HETATM    4  C   UNL     1      38.256 -10.117   2.105  1.00  0.00     0.009 A 
HETATM    5  C   UNL     1      38.903 -11.332   2.368  1.00  0.00    -0.040 A 
HETATM    6  C   UNL     1      39.544 -11.504   3.604  1.00  0.00     0.026 A 
ENDROOT
BRANCH   5   7
HETATM    7  C   UNL     1      38.953 -12.418   1.326  1.00  0.00     0.161 C 
BRANCH   7   8
HETATM    8  N   UNL     1      39.694 -13.559   1.804  1.00  0.00    -0.351 N 
HETATM    9  C   UNL     1      41.025 -13.747   1.511  1.00  0.00     0.268 C 
HETATM   10  O   UNL     1      41.648 -12.947   0.816  1.00  0.00    -0.266 OA
HETATM   11  H   UNL     1      39.244 -14.159   2.476  1.00  0.00     0.163 HD
BRANCH   9  12
HETATM   12  C   UNL     1      41.618 -14.956   2.070  1.00  0.00     0.103 A 
HETATM   13  C   UNL     1      41.655 -16.246   1.558  1.00  0.00     0.049 A 
HETATM   14  C   UNL     1      42.403 -17.074   2.434  1.00  0.00    -0.006 A 
HETATM   15  C   UNL     1      42.779 -18.431   2.399  1.00  0.00     0.030 A 
HETATM   16  C   UNL     1      42.814 -16.279   3.502  1.00  0.00     0.045 A 
HETATM   17  C   UNL     1      43.566 -18.967   3.430  1.00  0.00     0.032 A 
HETATM   18  C   UNL     1      43.980 -18.148   4.484  1.00  0.00     0.019 A 
HETATM   19  C   UNL     1      43.606 -16.798   4.540  1.00  0.00     0.031 A 
HETATM   20  N   UNL     1      42.309 -15.010   3.275  1.00  0.00    -0.346 N 
HETATM   21  C   UNL     1      42.487 -13.880   4.168  1.00  0.00     0.156 C 
BRANCH  17  22
HETATM   22  C   UNL     1      43.956 -20.403   3.329  1.00  0.00     0.249 C 
HETATM   23  O   UNL     1      43.949 -20.996   2.256  1.00  0.00    -0.268 OA
HETATM   24  N   UNL     1      44.302 -21.062   4.475  1.00  0.00    -0.366 N 
HETATM   25  H   UNL     1      44.136 -20.702   5.401  1.00  0.00     0.159 HD
HETATM   26  H   UNL     1      44.481 -22.054   4.380  1.00  0.00     0.159 HD
ENDBRANCH  17  22
ENDBRANCH   9  12
ENDBRANCH   7   8
ENDBRANCH   5   7
BRANCH   1  27
HETATM   27  C   UNL     1      40.238 -10.731   5.856  1.00  0.00     0.256 C 
HETATM   28  N   UNL     1      40.999  -9.671   6.315  1.00  0.00    -0.323 N 
HETATM   29  H   UNL     1      40.942  -8.804   5.801  1.00  0.00     0.169 HD
HETATM   30  O   UNL     1      40.069 -11.811   6.408  1.00  0.00    -0.267 OA
BRANCH  28  31
HETATM   31  C   UNL     1      41.783  -9.631   7.491  1.00  0.00     0.035 A 
HETATM   32  C   UNL     1      43.138  -9.955   7.532  1.00  0.00     0.030 A 
HETATM   33  C   UNL     1      43.847  -9.898   8.736  1.00  0.00     0.010 A 
HETATM   34  C   UNL     1      43.211  -9.502   9.918  1.00  0.00    -0.048 A 
HETATM   35  C   UNL     1      43.969  -9.491  11.220  1.00  0.00     0.069 C 
HETATM   36  C   UNL     1      41.844  -9.182   9.894  1.00  0.00    -0.022 A 
HETATM   37  C   UNL     1      43.251  -8.689  12.312  1.00  0.00     0.277 C 
HETATM   38  N   UNL     1      41.836  -9.078  12.394  1.00  0.00     0.088 N 
HETATM   39  C   UNL     1      41.190  -8.450  13.545  1.00  0.00     0.310 C 
HETATM   40  C   UNL     1      41.139  -8.708  11.150  1.00  0.00     0.311 C 
HETATM   41  C   UNL     1      41.146  -9.237   8.676  1.00  0.00     0.039 A 
ENDBRANCH  28  31
ENDBRANCH   1  27
TORSDOF 6
ENDMDL
MODEL 7
REMARK VINA RESULT:      -9.4      4.784      8.594
REMARK  6 active torsions:
REMARK  status: ('A' for Active; 'I' for Inactive)
REMARK    1  A    between atoms: C_8  and  N_9 
REMARK       I    between atoms: N_9  and  C_10 
REMARK    2  A    between atoms: C_10  and  C_12 
REMARK    3  A    between atoms: C_16  and  C_17 
REMARK    4  A    between atoms: C_17  and  N_18 
REMARK       I    between atoms: N_18  and  C_19 
REMARK    5  A    between atoms: C_19  and  C_21 
REMARK    6  A    between atoms: C_25  and  C_31 
REMARK       I    between atoms: C_31  and  N_33 
ROOT
HETATM    1  C   UNL     1      42.660 -15.168   4.593  1.00  0.00     0.032 A 
HETATM    2  C   UNL     1      43.368 -16.311   4.203  1.00  0.00     0.017 A 
HETATM    3  C   UNL     1      42.884 -17.106   3.162  1.00  0.00     0.002 A 
HETATM    4  C   UNL     1      41.693 -16.769   2.514  1.00  0.00     0.009 A 
HETATM    5  C   UNL     1      40.973 -15.629   2.894  1.00  0.00    -0.040 A 
HETATM    6  C   UNL     1      41.460 -14.839   3.946  1.00  0.00     0.026 A 
ENDROOT
BRANCH   5   7
HETATM    7  C   UNL     1      39.672 -15.281   2.219  1.00  0.00     0.161 C 
BRANCH   7   8
HETATM    8  N   UNL     1      39.832 -14.148   1.341  1.00  0.00    -0.351 N 
HETATM    9  C   UNL     1      39.742 -14.259  -0.027  1.00  0.00     0.268 C 
HETATM   10  O   UNL     1      39.527 -15.340  -0.570  1.00  0.00    -0.266 OA
HETATM   11  H   UNL     1      39.883 -13.235   1.763  1.00  0.00     0.163 HD
BRANCH   9  12
HETATM   12  C   UNL     1      39.935 -13.016  -0.763  1.00  0.00     0.103 A 
HETATM   13  C   UNL     1      41.007 -12.134  -0.753  1.00  0.00     0.049 A 
HETATM   14  C   UNL     1      40.765 -11.094  -1.687  1.00  0.00    -0.006 A 
HETATM   15  C   UNL     1      41.510  -9.973  -2.103  1.00  0.00     0.030 A 
HETATM   16  C   UNL     1      39.521 -11.340  -2.264  1.00  0.00     0.045 A 
HETATM   17  C   UNL     1      40.998  -9.120  -3.094  1.00  0.00     0.032 A 
HETATM   18  C   UNL     1      39.754  -9.394  -3.669  1.00  0.00     0.019 A 
HETATM   19  C   UNL     1      38.995 -10.500  -3.260  1.00  0.00     0.031 A 
HETATM   20  N   UNL     1      39.025 -12.491  -1.674  1.00  0.00    -0.346 N 
HETATM   21  C   UNL     1      37.735 -13.082  -1.976  1.00  0.00     0.156 C 
BRANCH  17  22
HETATM   22  C   UNL     1      41.839  -7.964  -3.513  1.00  0.00     0.249 C 
HETATM   23  O   UNL     1      41.741  -7.467  -4.630  1.00  0.00    -0.268 OA
HETATM   24  N   UNL     1      42.755  -7.474  -2.624  1.00  0.00    -0.366 N 
HETATM   25  H   UNL     1      43.028  -7.951  -1.780  1.00  0.00     0.159 HD
HETATM   26  H   UNL     1      43.364  -6.743  -2.970  1.00  0.00     0.159 HD
ENDBRANCH  17  22
ENDBRANCH   9  12
ENDBRANCH   7   8
ENDBRANCH   5   7
BRANCH   1  27
HETATM   27  C   UNL     1      43.111 -14.296   5.715  1.00  0.00     0.256 C 
HETATM   28  N   UNL     1      43.430 -12.997   5.361  1.00  0.00    -0.323 N 
HETATM   29  H   UNL     1      43.253 -12.722   4.406  1.00  0.00     0.169 HD
HETATM   30  O   UNL     1      43.126 -14.778   6.842  1.00  0.00    -0.267 OA
BRANCH  28  31
HETATM   31  C   UNL     1      43.890 -11.969   6.216  1.00  0.00     0.035 A 
HETATM   32  C   UNL     1      45.224 -11.801   6.581  1.00  0.00     0.030 A 
HETATM   33  C   UNL     1      45.602 -10.762   7.437  1.00  0.00     0.010 A 
HETATM   34  C   UNL     1      44.649  -9.866   7.932  1.00  0.00    -0.048 A 
HETATM   35  C   UNL     1      45.057  -8.780   8.893  1.00  0.00     0.069 C 
HETATM   36  C   UNL     1      43.299 -10.028   7.582  1.00  0.00    -0.022 A 
HETATM   37  C   UNL     1      43.992  -7.685   9.031  1.00  0.00     0.277 C 
HETATM   38  N   UNL     1      42.666  -8.278   9.255  1.00  0.00     0.088 N 
HETATM   39  C   UNL     1      41.679  -7.244   9.562  1.00  0.00     0.310 C 
HETATM   40  C   UNL     1      42.251  -9.046   8.067  1.00  0.00     0.311 C 
HETATM   41  C   UNL     1      42.934 -11.072   6.715  1.00  0.00     0.039 A 
ENDBRANCH  28  31
ENDBRANCH   1  27
TORSDOF 6
ENDMDL
MODEL 8
REMARK VINA RESULT:      -9.4      8.198     12.851
REMARK  6 active torsions:
REMARK  status: ('A' for Active; 'I' for Inactive)
REMARK    1  A    between atoms: C_8  and  N_9 
REMARK       I    between atoms: N_9  and  C_10 
REMARK    2  A    between atoms: C_10  and  C_12 
REMARK    3  A    between atoms: C_16  and  C_17 
REMARK    4  A    between atoms: C_17  and  N_18 
REMARK       I    between atoms: N_18  and  C_19 
REMARK    5  A    between atoms: C_19  and  C_21 
REMARK    6  A    between atoms: C_25  and  C_31 
REMARK       I    between atoms: C_31  and  N_33 
ROOT
HETATM    1  C   UNL     1      37.608 -12.263  -2.127  1.00  0.00     0.032 A 
HETATM    2  C   UNL     1      37.798 -13.455  -2.835  1.00  0.00     0.017 A 
HETATM    3  C   UNL     1      38.809 -14.338  -2.451  1.00  0.00     0.002 A 
HETATM    4  C   UNL     1      39.636 -14.032  -1.367  1.00  0.00     0.009 A 
HETATM    5  C   UNL     1      39.458 -12.842  -0.649  1.00  0.00    -0.040 A 
HETATM    6  C   UNL     1      38.446 -11.956  -1.045  1.00  0.00     0.026 A 
ENDROOT
BRANCH   5   7
HETATM    7  C   UNL     1      40.369 -12.495   0.500  1.00  0.00     0.161 C 
BRANCH   7   8
HETATM    8  N   UNL     1      40.886 -13.687   1.127  1.00  0.00    -0.351 N 
HETATM    9  C   UNL     1      42.040 -13.682   1.876  1.00  0.00     0.268 C 
HETATM   10  O   UNL     1      42.694 -12.655   2.041  1.00  0.00    -0.266 OA
HETATM   11  H   UNL     1      40.306 -14.510   1.114  1.00  0.00     0.163 HD
BRANCH   9  12
HETATM   12  C   UNL     1      42.422 -14.974   2.433  1.00  0.00     0.103 A 
HETATM   13  C   UNL     1      42.473 -16.222   1.828  1.00  0.00     0.049 A 
HETATM   14  C   UNL     1      42.968 -17.172   2.759  1.00  0.00    -0.006 A 
HETATM   15  C   UNL     1      43.249 -18.550   2.680  1.00  0.00     0.030 A 
HETATM   16  C   UNL     1      43.209 -16.493   3.952  1.00  0.00     0.045 A 
HETATM   17  C   UNL     1      43.772 -19.224   3.796  1.00  0.00     0.032 A 
HETATM   18  C   UNL     1      44.018 -18.520   4.977  1.00  0.00     0.019 A 
HETATM   19  C   UNL     1      43.735 -17.150   5.076  1.00  0.00     0.031 A 
HETATM   20  N   UNL     1      42.848 -15.173   3.742  1.00  0.00    -0.346 N 
HETATM   21  C   UNL     1      42.920 -14.129   4.747  1.00  0.00     0.156 C 
BRANCH  17  22
HETATM   22  C   UNL     1      44.073 -20.676   3.648  1.00  0.00     0.249 C 
HETATM   23  O   UNL     1      44.032 -21.234   2.557  1.00  0.00    -0.268 OA
HETATM   24  N   UNL     1      44.377 -21.392   4.773  1.00  0.00    -0.366 N 
HETATM   25  H   UNL     1      44.233 -21.051   5.710  1.00  0.00     0.159 HD
HETATM   26  H   UNL     1      44.496 -22.389   4.646  1.00  0.00     0.159 HD
ENDBRANCH  17  22
ENDBRANCH   9  12
ENDBRANCH   7   8
ENDBRANCH   5   7
BRANCH   1  27
HETATM   27  C   UNL     1      36.564 -11.268  -2.506  1.00  0.00     0.256 C 
HETATM   28  N   UNL     1      35.746 -11.642  -3.556  1.00  0.00    -0.323 N 
HETATM   29  H   UNL     1      35.860 -12.577  -3.920  1.00  0.00     0.169 HD
HETATM   30  O   UNL     1      36.493 -10.237  -1.847  1.00  0.00    -0.267 OA
BRANCH  28  31
HETATM   31  C   UNL     1      34.689 -10.893  -4.123  1.00  0.00     0.035 A 
HETATM   32  C   UNL     1      34.784 -10.208  -5.333  1.00  0.00     0.030 A 
HETATM   33  C   UNL     1      33.696  -9.483  -5.827  1.00  0.00     0.010 A 
HETATM   34  C   UNL     1      32.489  -9.441  -5.121  1.00  0.00    -0.048 A 
HETATM   35  C   UNL     1      31.338  -8.616  -5.635  1.00  0.00     0.069 C 
HETATM   36  C   UNL     1      32.381 -10.117  -3.896  1.00  0.00    -0.022 A 
HETATM   37  C   UNL     1      30.008  -8.978  -4.964  1.00  0.00     0.277 C 
HETATM   38  N   UNL     1      30.162  -9.029  -3.503  1.00  0.00     0.088 N 
HETATM   39  C   UNL     1      28.866  -9.198  -2.849  1.00  0.00     0.310 C 
HETATM   40  C   UNL     1      31.072 -10.127  -3.131  1.00  0.00     0.311 C 
HETATM   41  C   UNL     1      33.480 -10.849  -3.415  1.00  0.00     0.039 A 
ENDBRANCH  28  31
ENDBRANCH   1  27
TORSDOF 6
ENDMDL
MODEL 9
REMARK VINA RESULT:      -9.4      1.531      2.225
REMARK  6 active torsions:
REMARK  status: ('A' for Active; 'I' for Inactive)
REMARK    1  A    between atoms: C_8  and  N_9 
REMARK       I    between atoms: N_9  and  C_10 
REMARK    2  A    between atoms: C_10  and  C_12 
REMARK    3  A    between atoms: C_16  and  C_17 
REMARK    4  A    between atoms: C_17  and  N_18 
REMARK       I    between atoms: N_18  and  C_19 
REMARK    5  A    between atoms: C_19  and  C_21 
REMARK    6  A    between atoms: C_25  and  C_31 
REMARK       I    between atoms: C_31  and  N_33 
ROOT
HETATM    1  C   UNL     1      43.039  -9.266   9.346  1.00  0.00     0.032 A 
HETATM    2  C   UNL     1      44.141  -9.979   9.832  1.00  0.00     0.017 A 
HETATM    3  C   UNL     1      44.834 -10.848   8.987  1.00  0.00     0.002 A 
HETATM    4  C   UNL     1      44.427 -11.014   7.661  1.00  0.00     0.009 A 
HETATM    5  C   UNL     1      43.325 -10.308   7.160  1.00  0.00    -0.040 A 
HETATM    6  C   UNL     1      42.629  -9.443   8.017  1.00  0.00     0.026 A 
ENDROOT
BRANCH   5   7
HETATM    7  C   UNL     1      42.864 -10.510   5.741  1.00  0.00     0.161 C 
BRANCH   7   8
HETATM    8  N   UNL     1      43.105 -11.864   5.307  1.00  0.00    -0.351 N 
HETATM    9  C   UNL     1      42.082 -12.747   5.049  1.00  0.00     0.268 C 
HETATM   10  O   UNL     1      40.905 -12.422   5.185  1.00  0.00    -0.266 OA
HETATM   11  H   UNL     1      44.050 -12.115   5.067  1.00  0.00     0.163 HD
BRANCH   9  12
HETATM   12  C   UNL     1      42.504 -14.077   4.625  1.00  0.00     0.103 A 
HETATM   13  C   UNL     1      42.815 -15.195   5.387  1.00  0.00     0.049 A 
HETATM   14  C   UNL     1      43.110 -16.280   4.522  1.00  0.00    -0.006 A 
HETATM   15  C   UNL     1      43.452 -17.629   4.742  1.00  0.00     0.030 A 
HETATM   16  C   UNL     1      42.989 -15.811   3.215  1.00  0.00     0.045 A 
HETATM   17  C   UNL     1      43.662 -18.486   3.650  1.00  0.00     0.032 A 
HETATM   18  C   UNL     1      43.522 -17.998   2.349  1.00  0.00     0.019 A 
HETATM   19  C   UNL     1      43.192 -16.655   2.111  1.00  0.00     0.031 A 
HETATM   20  N   UNL     1      42.648 -14.472   3.300  1.00  0.00    -0.346 N 
HETATM   21  C   UNL     1      42.450 -13.598   2.159  1.00  0.00     0.156 C 
BRANCH  17  22
HETATM   22  C   UNL     1      43.997 -19.909   3.942  1.00  0.00     0.249 C 
HETATM   23  O   UNL     1      43.909 -20.780   3.084  1.00  0.00    -0.268 OA
HETATM   24  N   UNL     1      44.388 -20.234   5.211  1.00  0.00    -0.366 N 
HETATM   25  H   UNL     1      44.289 -19.620   6.003  1.00  0.00     0.159 HD
HETATM   26  H   UNL     1      44.529 -21.220   5.394  1.00  0.00     0.159 HD
ENDBRANCH  17  22
ENDBRANCH   9  12
ENDBRANCH   7   8
ENDBRANCH   5   7
BRANCH   1  27
HETATM   27  C   UNL     1      42.243  -8.345  10.207  1.00  0.00     0.256 C 
HETATM   28  N   UNL     1      41.957  -8.821  11.474  1.00  0.00    -0.323 N 
HETATM   29  H   UNL     1      42.375  -9.700  11.742  1.00  0.00     0.169 HD
HETATM   30  O   UNL     1      41.944  -7.250   9.746  1.00  0.00    -0.267 OA
BRANCH  28  31
HETATM   31  C   UNL     1      41.217  -8.165  12.484  1.00  0.00     0.035 A 
HETATM   32  C   UNL     1      39.887  -7.771  12.341  1.00  0.00     0.030 A 
HETATM   33  C   UNL     1      39.223  -7.121  13.385  1.00  0.00     0.010 A 
HETATM   34  C   UNL     1      39.876  -6.864  14.594  1.00  0.00    -0.048 A 
HETATM   35  C   UNL     1      39.168  -6.118  15.696  1.00  0.00     0.069 C 
HETATM   36  C   UNL     1      41.218  -7.245  14.750  1.00  0.00    -0.022 A 
HETATM   37  C   UNL     1      39.875  -6.255  17.050  1.00  0.00     0.277 C 
HETATM   38  N   UNL     1      41.314  -5.988  16.912  1.00  0.00     0.088 N 
HETATM   39  C   UNL     1      41.962  -5.944  18.221  1.00  0.00     0.310 C 
HETATM   40  C   UNL     1      41.939  -7.020  16.065  1.00  0.00     0.311 C 
HETATM   41  C   UNL     1      41.872  -7.905  13.695  1.00  0.00     0.039 A 
ENDBRANCH  28  31
ENDBRANCH   1  27
TORSDOF 6
ENDMDL
MODEL 10
REMARK VINA RESULT:      -9.4      4.464      9.137
REMARK  6 active torsions:
REMARK  status: ('A' for Active; 'I' for Inactive)
REMARK    1  A    between atoms: C_8  and  N_9 
REMARK       I    between atoms: N_9  and  C_10 
REMARK    2  A    between atoms: C_10  and  C_12 
REMARK    3  A    between atoms: C_16  and  C_17 
REMARK    4  A    between atoms: C_17  and  N_18 
REMARK       I    between atoms: N_18  and  C_19 
REMARK    5  A    between atoms: C_19  and  C_21 
REMARK    6  A    between atoms: C_25  and  C_31 
REMARK       I    between atoms: C_31  and  N_33 
ROOT
HETATM    1  C   UNL     1      43.178 -10.807   7.032  1.00  0.00     0.032 A 
HETATM    2  C   UNL     1      43.626  -9.956   8.049  1.00  0.00     0.017 A 
HETATM    3  C   UNL     1      43.097  -8.669   8.162  1.00  0.00     0.002 A 
HETATM    4  C   UNL     1      42.127  -8.226   7.259  1.00  0.00     0.009 A 
HETATM    5  C   UNL     1      41.669  -9.065   6.235  1.00  0.00    -0.040 A 
HETATM    6  C   UNL     1      42.211 -10.354   6.122  1.00  0.00     0.026 A 
ENDROOT
BRANCH   5   7
HETATM    7  C   UNL     1      40.648  -8.578   5.242  1.00  0.00     0.161 C 
BRANCH   7   8
HETATM    8  N   UNL     1      40.465  -9.534   4.177  1.00  0.00    -0.351 N 
HETATM    9  C   UNL     1      39.300 -10.249   4.021  1.00  0.00     0.268 C 
HETATM   10  O   UNL     1      38.355 -10.110   4.793  1.00  0.00    -0.266 OA
HETATM   11  H   UNL     1      41.172  -9.574   3.460  1.00  0.00     0.163 HD
BRANCH   9  12
HETATM   12  C   UNL     1      39.288 -11.176   2.896  1.00  0.00     0.103 A 
HETATM   13  C   UNL     1      38.873 -10.977   1.586  1.00  0.00     0.049 A 
HETATM   14  C   UNL     1      39.113 -12.158   0.837  1.00  0.00    -0.006 A 
HETATM   15  C   UNL     1      38.920 -12.504  -0.515  1.00  0.00     0.030 A 
HETATM   16  C   UNL     1      39.671 -13.092   1.708  1.00  0.00     0.045 A 
HETATM   17  C   UNL     1      39.293 -13.778  -0.973  1.00  0.00     0.032 A 
HETATM   18  C   UNL     1      39.863 -14.694  -0.085  1.00  0.00     0.019 A 
HETATM   19  C   UNL     1      40.054 -14.370   1.266  1.00  0.00     0.031 A 
HETATM   20  N   UNL     1      39.744 -12.488   2.951  1.00  0.00    -0.346 N 
HETATM   21  C   UNL     1      40.244 -13.131   4.153  1.00  0.00     0.156 C 
BRANCH  17  22
HETATM   22  C   UNL     1      39.089 -14.080  -2.418  1.00  0.00     0.249 C 
HETATM   23  O   UNL     1      39.064 -15.232  -2.837  1.00  0.00    -0.268 OA
HETATM   24  N   UNL     1      38.951 -13.033  -3.285  1.00  0.00    -0.366 N 
HETATM   25  H   UNL     1      39.161 -12.076  -3.048  1.00  0.00     0.159 HD
HETATM   26  H   UNL     1      38.896 -13.273  -4.267  1.00  0.00     0.159 HD
ENDBRANCH  17  22
ENDBRANCH   9  12
ENDBRANCH   7   8
ENDBRANCH   5   7
BRANCH   1  27
HETATM   27  C   UNL     1      43.724 -12.181   6.843  1.00  0.00     0.256 C 
HETATM   28  N   UNL     1      42.782 -13.193   6.819  1.00  0.00    -0.323 N 
HETATM   29  H   UNL     1      41.810 -12.920   6.844  1.00  0.00     0.169 HD
HETATM   30  O   UNL     1      44.935 -12.298   6.690  1.00  0.00    -0.267 OA
BRANCH  28  31
HETATM   31  C   UNL     1      43.021 -14.578   6.665  1.00  0.00     0.035 A 
HETATM   32  C   UNL     1      43.214 -15.457   7.730  1.00  0.00     0.030 A 
HETATM   33  C   UNL     1      43.451 -16.815   7.498  1.00  0.00     0.010 A 
HETATM   34  C   UNL     1      43.489 -17.317   6.194  1.00  0.00    -0.048 A 
HETATM   35  C   UNL     1      43.796 -18.772   5.950  1.00  0.00     0.069 C 
HETATM   36  C   UNL     1      43.307 -16.444   5.110  1.00  0.00    -0.022 A 
HETATM   37  C   UNL     1      43.429 -19.222   4.531  1.00  0.00     0.277 C 
HETATM   38  N   UNL     1      43.956 -18.278   3.536  1.00  0.00     0.088 N 
HETATM   39  C   UNL     1      43.765 -18.790   2.180  1.00  0.00     0.310 C 
HETATM   40  C   UNL     1      43.298 -16.968   3.687  1.00  0.00     0.311 C 
HETATM   41  C   UNL     1      43.061 -15.082   5.358  1.00  0.00     0.039 A 
ENDBRANCH  28  31
ENDBRANCH   1  27
TORSDOF 6
ENDMDL
