MODEL 1
REMARK VINA RESULT:      -8.5      0.000      0.000
REMARK  4 active torsions:
REMARK  status: ('A' for Active; 'I' for Inactive)
REMARK    1  A    between atoms: C_9  and  C_10 
REMARK    2  A    between atoms: C_20  and  C_21 
REMARK       I    between atoms: C_21  and  N_22 
REMARK    3  A    between atoms: N_22  and  C_23 
REMARK    4  A    between atoms: C_24  and  O_25 
ROOT
HETATM    1  C   UNL     1      46.698 -30.416   4.014  1.00  0.00     0.070 C 
HETATM    2  C   UNL     1      45.464 -30.325   3.147  1.00  0.00     0.037 A 
HETATM    3  N   UNL     1      44.282 -30.742   3.747  1.00  0.00    -0.192 N 
HETATM    4  C   UNL     1      43.084 -30.706   3.139  1.00  0.00     0.725 A 
HETATM    5  N   UNL     1      43.003 -30.257   1.850  1.00  0.00    -0.084 N 
HETATM    6  N   UNL     1      41.716 -30.148   1.454  1.00  0.00    -0.149 NA
HETATM    7  C   UNL     1      41.088 -30.665   2.516  1.00  0.00     0.275 A 
HETATM    8  N   UNL     1      41.888 -31.008   3.574  1.00  0.00    -0.054 NA
HETATM    9  C   UNL     1      44.151 -29.769   1.075  1.00  0.00     0.203 A 
HETATM   10  C   UNL     1      45.454 -29.854   1.872  1.00  0.00     0.062 A 
HETATM   11  H   UNL     1      44.334 -31.090   4.701  1.00  0.00     0.184 HD
ENDROOT
BRANCH  10  12
HETATM   12  C   UNL     1      46.744 -29.517   1.188  1.00  0.00     0.256 C 
HETATM   13  N   UNL     1      47.404 -30.600   0.645  1.00  0.00    -0.321 N 
HETATM   14  H   UNL     1      47.114 -31.523   0.930  1.00  0.00     0.169 HD
HETATM   15  O   UNL     1      47.144 -28.361   1.228  1.00  0.00    -0.267 OA
BRANCH  13  16
HETATM   16  C   UNL     1      48.627 -30.575  -0.073  1.00  0.00     0.068 A 
HETATM   17  C   UNL     1      49.890 -30.919   0.432  1.00  0.00     0.095 A 
HETATM   18  C   UNL     1      51.016 -30.912  -0.402  1.00  0.00     0.039 A 
HETATM   19  C   UNL     1      50.909 -30.503  -1.728  1.00  0.00     0.003 A 
HETATM   20  C   UNL     1      49.674 -30.098  -2.226  1.00  0.00     0.002 A 
HETATM   21  C   UNL     1      48.544 -30.129  -1.403  1.00  0.00     0.032 A 
BRANCH  17  22
HETATM   22  O   UNL     1      50.124 -31.251   1.739  1.00  0.00    -0.354 OA
HETATM   23  C   UNL     1      50.637 -30.131   2.458  1.00  0.00     0.210 C 
ENDBRANCH  17  22
ENDBRANCH  13  16
ENDBRANCH  10  12
BRANCH   9  24
HETATM   24  C   UNL     1      44.198 -30.456  -0.293  1.00  0.00    -0.017 A 
HETATM   25  C   UNL     1      44.541 -29.746  -1.488  1.00  0.00    -0.017 A 
HETATM   26  C   UNL     1      44.630 -30.471  -2.705  1.00  0.00    -0.025 A 
HETATM   27  C   UNL     1      44.789 -28.351  -1.556  1.00  0.00     0.013 A 
HETATM   28  C   UNL     1      44.985 -29.818  -3.898  1.00  0.00     0.012 A 
HETATM   29  C   UNL     1      44.355 -31.844  -2.731  1.00  0.00     0.012 A 
HETATM   30  C   UNL     1      45.240 -28.451  -3.922  1.00  0.00     0.001 A 
HETATM   31  C   UNL     1      45.135 -27.715  -2.752  1.00  0.00     0.001 A 
HETATM   32  C   UNL     1      43.978 -32.519  -1.576  1.00  0.00     0.002 A 
HETATM   33  C   UNL     1      43.892 -31.833  -0.372  1.00  0.00     0.010 A 
ENDBRANCH   9  24
TORSDOF 4
ENDMDL
MODEL 2
REMARK VINA RESULT:      -8.2     16.362     18.579
REMARK  4 active torsions:
REMARK  status: ('A' for Active; 'I' for Inactive)
REMARK    1  A    between atoms: C_9  and  C_10 
REMARK    2  A    between atoms: C_20  and  C_21 
REMARK       I    between atoms: C_21  and  N_22 
REMARK    3  A    between atoms: N_22  and  C_23 
REMARK    4  A    between atoms: C_24  and  O_25 
ROOT
HETATM    1  C   UNL     1      40.915  -9.823   3.012  1.00  0.00     0.070 C 
HETATM    2  C   UNL     1      41.658 -10.893   3.777  1.00  0.00     0.037 A 
HETATM    3  N   UNL     1      42.697 -10.440   4.580  1.00  0.00    -0.192 N 
HETATM    4  C   UNL     1      43.449 -11.243   5.351  1.00  0.00     0.725 A 
HETATM    5  N   UNL     1      43.210 -12.589   5.345  1.00  0.00    -0.084 N 
HETATM    6  N   UNL     1      43.951 -13.218   6.284  1.00  0.00    -0.149 NA
HETATM    7  C   UNL     1      44.699 -12.201   6.728  1.00  0.00     0.275 A 
HETATM    8  N   UNL     1      44.415 -10.973   6.192  1.00  0.00    -0.054 NA
HETATM    9  C   UNL     1      42.145 -13.232   4.565  1.00  0.00     0.203 A 
HETATM   10  C   UNL     1      41.357 -12.218   3.733  1.00  0.00     0.062 A 
HETATM   11  H   UNL     1      42.891  -9.441   4.582  1.00  0.00     0.184 HD
ENDROOT
BRANCH  10  12
HETATM   12  C   UNL     1      40.317 -12.718   2.778  1.00  0.00     0.256 C 
HETATM   13  N   UNL     1      40.599 -12.481   1.448  1.00  0.00    -0.321 N 
HETATM   14  H   UNL     1      41.327 -11.819   1.230  1.00  0.00     0.169 HD
HETATM   15  O   UNL     1      39.293 -13.212   3.232  1.00  0.00    -0.267 OA
BRANCH  13  16
HETATM   16  C   UNL     1      39.809 -12.860   0.333  1.00  0.00     0.068 A 
HETATM   17  C   UNL     1      38.764 -12.114  -0.233  1.00  0.00     0.095 A 
HETATM   18  C   UNL     1      38.100 -12.574  -1.378  1.00  0.00     0.039 A 
HETATM   19  C   UNL     1      38.424 -13.808  -1.933  1.00  0.00     0.003 A 
HETATM   20  C   UNL     1      39.415 -14.588  -1.346  1.00  0.00     0.002 A 
HETATM   21  C   UNL     1      40.098 -14.120  -0.219  1.00  0.00     0.032 A 
BRANCH  17  22
HETATM   22  O   UNL     1      38.306 -10.932   0.282  1.00  0.00    -0.354 OA
HETATM   23  C   UNL     1      37.190 -11.158   1.141  1.00  0.00     0.210 C 
ENDBRANCH  17  22
ENDBRANCH  13  16
ENDBRANCH  10  12
BRANCH   9  24
HETATM   24  C   UNL     1      42.713 -14.407   3.762  1.00  0.00    -0.017 A 
HETATM   25  C   UNL     1      42.905 -15.701   4.343  1.00  0.00    -0.017 A 
HETATM   26  C   UNL     1      43.369 -16.755   3.512  1.00  0.00    -0.025 A 
HETATM   27  C   UNL     1      42.676 -16.016   5.707  1.00  0.00     0.013 A 
HETATM   28  C   UNL     1      43.551 -18.046   4.036  1.00  0.00     0.012 A 
HETATM   29  C   UNL     1      43.662 -16.514   2.165  1.00  0.00     0.012 A 
HETATM   30  C   UNL     1      43.298 -18.322   5.376  1.00  0.00     0.001 A 
HETATM   31  C   UNL     1      42.867 -17.306   6.214  1.00  0.00     0.001 A 
HETATM   32  C   UNL     1      43.517 -15.245   1.617  1.00  0.00     0.002 A 
HETATM   33  C   UNL     1      43.056 -14.201   2.407  1.00  0.00     0.010 A 
ENDBRANCH   9  24
TORSDOF 4
ENDMDL
MODEL 3
REMARK VINA RESULT:      -8.2     15.084     16.509
REMARK  4 active torsions:
REMARK  status: ('A' for Active; 'I' for Inactive)
REMARK    1  A    between atoms: C_9  and  C_10 
REMARK    2  A    between atoms: C_20  and  C_21 
REMARK       I    between atoms: C_21  and  N_22 
REMARK    3  A    between atoms: N_22  and  C_23 
REMARK    4  A    between atoms: C_24  and  O_25 
ROOT
HETATM    1  C   UNL     1      43.429 -16.068   7.970  1.00  0.00     0.070 C 
HETATM    2  C   UNL     1      43.292 -14.836   7.106  1.00  0.00     0.037 A 
HETATM    3  N   UNL     1      43.543 -13.628   7.746  1.00  0.00    -0.192 N 
HETATM    4  C   UNL     1      43.496 -12.434   7.131  1.00  0.00     0.725 A 
HETATM    5  N   UNL     1      43.165 -12.379   5.805  1.00  0.00    -0.084 N 
HETATM    6  N   UNL     1      43.314 -11.126   5.320  1.00  0.00    -0.149 NA
HETATM    7  C   UNL     1      43.619 -10.463   6.441  1.00  0.00     0.275 A 
HETATM    8  N   UNL     1      43.752 -11.229   7.570  1.00  0.00    -0.054 NA
HETATM    9  C   UNL     1      42.883 -13.558   4.978  1.00  0.00     0.203 A 
HETATM   10  C   UNL     1      42.971 -14.855   5.785  1.00  0.00     0.062 A 
HETATM   11  H   UNL     1      43.778 -13.657   8.735  1.00  0.00     0.184 HD
ENDROOT
BRANCH  10  12
HETATM   12  C   UNL     1      42.585 -16.145   5.128  1.00  0.00     0.256 C 
HETATM   13  N   UNL     1      43.617 -16.785   4.473  1.00  0.00    -0.321 N 
HETATM   14  H   UNL     1      44.459 -16.260   4.289  1.00  0.00     0.169 HD
HETATM   15  O   UNL     1      41.410 -16.486   5.150  1.00  0.00    -0.267 OA
BRANCH  13  16
HETATM   16  C   UNL     1      43.547 -18.023   3.786  1.00  0.00     0.068 A 
HETATM   17  C   UNL     1      43.897 -19.279   4.306  1.00  0.00     0.095 A 
HETATM   18  C   UNL     1      43.722 -20.440   3.541  1.00  0.00     0.039 A 
HETATM   19  C   UNL     1      43.259 -20.358   2.231  1.00  0.00     0.003 A 
HETATM   20  C   UNL     1      42.968 -19.114   1.681  1.00  0.00     0.002 A 
HETATM   21  C   UNL     1      43.117 -17.957   2.450  1.00  0.00     0.032 A 
BRANCH  17  22
HETATM   22  O   UNL     1      44.442 -19.466   5.547  1.00  0.00    -0.354 OA
HETATM   23  C   UNL     1      43.420 -19.688   6.516  1.00  0.00     0.210 C 
ENDBRANCH  17  22
ENDBRANCH  13  16
ENDBRANCH  10  12
BRANCH   9  24
HETATM   24  C   UNL     1      41.564 -13.371   4.221  1.00  0.00    -0.017 A 
HETATM   25  C   UNL     1      41.388 -13.833   2.877  1.00  0.00    -0.017 A 
HETATM   26  C   UNL     1      40.113 -13.684   2.270  1.00  0.00    -0.025 A 
HETATM   27  C   UNL     1      42.406 -14.426   2.087  1.00  0.00     0.013 A 
HETATM   28  C   UNL     1      39.890 -14.143   0.961  1.00  0.00     0.012 A 
HETATM   29  C   UNL     1      39.067 -13.067   2.968  1.00  0.00     0.012 A 
HETATM   30  C   UNL     1      40.909 -14.736   0.223  1.00  0.00     0.001 A 
HETATM   31  C   UNL     1      42.169 -14.872   0.783  1.00  0.00     0.001 A 
HETATM   32  C   UNL     1      39.257 -12.579   4.255  1.00  0.00     0.002 A 
HETATM   33  C   UNL     1      40.493 -12.722   4.873  1.00  0.00     0.010 A 
ENDBRANCH   9  24
TORSDOF 4
ENDMDL
MODEL 4
REMARK VINA RESULT:      -8.0     15.531     17.141
REMARK  4 active torsions:
REMARK  status: ('A' for Active; 'I' for Inactive)
REMARK    1  A    between atoms: C_9  and  C_10 
REMARK    2  A    between atoms: C_20  and  C_21 
REMARK       I    between atoms: C_21  and  N_22 
REMARK    3  A    between atoms: N_22  and  C_23 
REMARK    4  A    between atoms: C_24  and  O_25 
ROOT
HETATM    1  C   UNL     1      41.553 -13.893   5.947  1.00  0.00     0.070 C 
HETATM    2  C   UNL     1      41.072 -13.137   4.730  1.00  0.00     0.037 A 
HETATM    3  N   UNL     1      40.092 -12.182   4.971  1.00  0.00    -0.192 N 
HETATM    4  C   UNL     1      39.566 -11.396   4.017  1.00  0.00     0.725 A 
HETATM    5  N   UNL     1      39.990 -11.539   2.725  1.00  0.00    -0.084 N 
HETATM    6  N   UNL     1      39.472 -10.574   1.933  1.00  0.00    -0.149 NA
HETATM    7  C   UNL     1      38.651  -9.964   2.796  1.00  0.00     0.275 A 
HETATM    8  N   UNL     1      38.688 -10.429   4.085  1.00  0.00    -0.054 NA
HETATM    9  C   UNL     1      41.026 -12.489   2.300  1.00  0.00     0.203 A 
HETATM   10  C   UNL     1      41.550 -13.323   3.472  1.00  0.00     0.062 A 
HETATM   11  H   UNL     1      39.760 -12.076   5.927  1.00  0.00     0.184 HD
ENDROOT
BRANCH  10  12
HETATM   12  C   UNL     1      42.520 -14.431   3.195  1.00  0.00     0.256 C 
HETATM   13  N   UNL     1      42.137 -15.662   3.685  1.00  0.00    -0.321 N 
HETATM   14  H   UNL     1      41.389 -15.691   4.361  1.00  0.00     0.169 HD
HETATM   15  O   UNL     1      43.579 -14.159   2.644  1.00  0.00    -0.267 OA
BRANCH  13  16
HETATM   16  C   UNL     1      42.843 -16.884   3.553  1.00  0.00     0.068 A 
HETATM   17  C   UNL     1      43.815 -17.379   4.437  1.00  0.00     0.095 A 
HETATM   18  C   UNL     1      44.397 -18.635   4.225  1.00  0.00     0.039 A 
HETATM   19  C   UNL     1      44.066 -19.385   3.101  1.00  0.00     0.003 A 
HETATM   20  C   UNL     1      43.151 -18.881   2.182  1.00  0.00     0.002 A 
HETATM   21  C   UNL     1      42.549 -17.638   2.404  1.00  0.00     0.032 A 
BRANCH  17  22
HETATM   22  O   UNL     1      44.278 -16.688   5.524  1.00  0.00    -0.354 OA
HETATM   23  C   UNL     1      43.634 -17.136   6.715  1.00  0.00     0.210 C 
ENDBRANCH  17  22
ENDBRANCH  13  16
ENDBRANCH  10  12
BRANCH   9  24
HETATM   24  C   UNL     1      40.532 -13.313   1.106  1.00  0.00    -0.017 A 
HETATM   25  C   UNL     1      40.677 -12.855  -0.243  1.00  0.00    -0.017 A 
HETATM   26  C   UNL     1      40.257 -13.709  -1.296  1.00  0.00    -0.025 A 
HETATM   27  C   UNL     1      41.202 -11.592  -0.616  1.00  0.00     0.013 A 
HETATM   28  C   UNL     1      40.399 -13.310  -2.636  1.00  0.00     0.012 A 
HETATM   29  C   UNL     1      39.685 -14.955  -1.010  1.00  0.00     0.012 A 
HETATM   30  C   UNL     1      40.937 -12.069  -2.964  1.00  0.00     0.001 A 
HETATM   31  C   UNL     1      41.332 -11.207  -1.954  1.00  0.00     0.001 A 
HETATM   32  C   UNL     1      39.506 -15.374   0.303  1.00  0.00     0.002 A 
HETATM   33  C   UNL     1      39.917 -14.560   1.350  1.00  0.00     0.010 A 
ENDBRANCH   9  24
TORSDOF 4
ENDMDL
MODEL 5
REMARK VINA RESULT:      -8.0     15.917     17.937
REMARK  4 active torsions:
REMARK  status: ('A' for Active; 'I' for Inactive)
REMARK    1  A    between atoms: C_9  and  C_10 
REMARK    2  A    between atoms: C_20  and  C_21 
REMARK       I    between atoms: C_21  and  N_22 
REMARK    3  A    between atoms: N_22  and  C_23 
REMARK    4  A    between atoms: C_24  and  O_25 
ROOT
HETATM    1  C   UNL     1      42.706 -17.863   2.270  1.00  0.00     0.070 C 
HETATM    2  C   UNL     1      42.922 -17.120   3.569  1.00  0.00     0.037 A 
HETATM    3  N   UNL     1      43.102 -17.921   4.690  1.00  0.00    -0.192 N 
HETATM    4  C   UNL     1      43.334 -17.438   5.922  1.00  0.00     0.725 A 
HETATM    5  N   UNL     1      43.379 -16.084   6.111  1.00  0.00    -0.084 N 
HETATM    6  N   UNL     1      43.770 -15.782   7.369  1.00  0.00    -0.149 NA
HETATM    7  C   UNL     1      43.821 -17.004   7.910  1.00  0.00     0.275 A 
HETATM    8  N   UNL     1      43.574 -18.046   7.055  1.00  0.00    -0.054 NA
HETATM    9  C   UNL     1      43.222 -15.098   5.034  1.00  0.00     0.203 A 
HETATM   10  C   UNL     1      42.968 -15.767   3.681  1.00  0.00     0.062 A 
HETATM   11  H   UNL     1      43.058 -18.929   4.563  1.00  0.00     0.184 HD
ENDROOT
BRANCH  10  12
HETATM   12  C   UNL     1      42.656 -14.906   2.495  1.00  0.00     0.256 C 
HETATM   13  N   UNL     1      41.311 -14.778   2.219  1.00  0.00    -0.321 N 
HETATM   14  H   UNL     1      40.674 -15.422   2.661  1.00  0.00     0.169 HD
HETATM   15  O   UNL     1      43.585 -14.459   1.835  1.00  0.00    -0.267 OA
BRANCH  13  16
HETATM   16  C   UNL     1      40.729 -14.012   1.177  1.00  0.00     0.068 A 
HETATM   17  C   UNL     1      40.485 -12.631   1.200  1.00  0.00     0.095 A 
HETATM   18  C   UNL     1      39.959 -11.981   0.077  1.00  0.00     0.039 A 
HETATM   19  C   UNL     1      39.610 -12.706  -1.058  1.00  0.00     0.003 A 
HETATM   20  C   UNL     1      39.786 -14.086  -1.074  1.00  0.00     0.002 A 
HETATM   21  C   UNL     1      40.336 -14.734   0.037  1.00  0.00     0.032 A 
BRANCH  17  22
HETATM   22  O   UNL     1      40.709 -11.836   2.293  1.00  0.00    -0.354 OA
HETATM   23  C   UNL     1      42.004 -11.243   2.224  1.00  0.00     0.210 C 
ENDBRANCH  17  22
ENDBRANCH  13  16
ENDBRANCH  10  12
BRANCH   9  24
HETATM   24  C   UNL     1      42.180 -14.046   5.427  1.00  0.00    -0.017 A 
HETATM   25  C   UNL     1      42.552 -12.733   5.859  1.00  0.00    -0.017 A 
HETATM   26  C   UNL     1      41.524 -11.794   6.138  1.00  0.00    -0.025 A 
HETATM   27  C   UNL     1      43.888 -12.292   6.046  1.00  0.00     0.013 A 
HETATM   28  C   UNL     1      41.845 -10.488   6.544  1.00  0.00     0.012 A 
HETATM   29  C   UNL     1      40.179 -12.165   6.022  1.00  0.00     0.012 A 
HETATM   30  C   UNL     1      43.168 -10.086   6.699  1.00  0.00     0.001 A 
HETATM   31  C   UNL     1      44.190 -10.990   6.456  1.00  0.00     0.001 A 
HETATM   32  C   UNL     1      39.824 -13.455   5.647  1.00  0.00     0.002 A 
HETATM   33  C   UNL     1      40.811 -14.388   5.360  1.00  0.00     0.010 A 
ENDBRANCH   9  24
TORSDOF 4
ENDMDL
MODEL 6
REMARK VINA RESULT:      -8.0     17.573     19.880
REMARK  4 active torsions:
REMARK  status: ('A' for Active; 'I' for Inactive)
REMARK    1  A    between atoms: C_9  and  C_10 
REMARK    2  A    between atoms: C_20  and  C_21 
REMARK       I    between atoms: C_21  and  N_22 
REMARK    3  A    between atoms: N_22  and  C_23 
REMARK    4  A    between atoms: C_24  and  O_25 
ROOT
HETATM    1  C   UNL     1      37.747  -8.807   1.733  1.00  0.00     0.070 C 
HETATM    2  C   UNL     1      38.309  -9.772   2.752  1.00  0.00     0.037 A 
HETATM    3  N   UNL     1      38.153  -9.394   4.080  1.00  0.00    -0.192 N 
HETATM    4  C   UNL     1      38.564 -10.138   5.120  1.00  0.00     0.725 A 
HETATM    5  N   UNL     1      39.192 -11.330   4.882  1.00  0.00    -0.084 N 
HETATM    6  N   UNL     1      39.398 -12.009   6.032  1.00  0.00    -0.149 NA
HETATM    7  C   UNL     1      38.978 -11.108   6.927  1.00  0.00     0.275 A 
HETATM    8  N   UNL     1      38.449  -9.954   6.410  1.00  0.00    -0.054 NA
HETATM    9  C   UNL     1      39.426 -11.883   3.542  1.00  0.00     0.203 A 
HETATM   10  C   UNL     1      38.912 -10.950   2.443  1.00  0.00     0.062 A 
HETATM   11  H   UNL     1      37.698  -8.504   4.268  1.00  0.00     0.184 HD
ENDROOT
BRANCH  10  12
HETATM   12  C   UNL     1      39.184 -11.299   1.011  1.00  0.00     0.256 C 
HETATM   13  N   UNL     1      38.513 -12.415   0.556  1.00  0.00    -0.321 N 
HETATM   14  H   UNL     1      38.091 -13.025   1.239  1.00  0.00     0.169 HD
HETATM   15  O   UNL     1      40.012 -10.640   0.395  1.00  0.00    -0.267 OA
BRANCH  13  16
HETATM   16  C   UNL     1      38.564 -12.960  -0.752  1.00  0.00     0.068 A 
HETATM   17  C   UNL     1      37.880 -12.476  -1.878  1.00  0.00     0.095 A 
HETATM   18  C   UNL     1      38.065 -13.070  -3.133  1.00  0.00     0.039 A 
HETATM   19  C   UNL     1      38.880 -14.190  -3.270  1.00  0.00     0.003 A 
HETATM   20  C   UNL     1      39.514 -14.720  -2.151  1.00  0.00     0.002 A 
HETATM   21  C   UNL     1      39.353 -14.113  -0.902  1.00  0.00     0.032 A 
BRANCH  17  22
HETATM   22  O   UNL     1      36.989 -11.438  -1.840  1.00  0.00    -0.354 OA
HETATM   23  C   UNL     1      37.619 -10.221  -2.234  1.00  0.00     0.210 C 
ENDBRANCH  17  22
ENDBRANCH  13  16
ENDBRANCH  10  12
BRANCH   9  24
HETATM   24  C   UNL     1      40.893 -12.296   3.388  1.00  0.00    -0.017 A 
HETATM   25  C   UNL     1      41.270 -13.609   2.958  1.00  0.00    -0.017 A 
HETATM   26  C   UNL     1      42.649 -13.891   2.772  1.00  0.00    -0.025 A 
HETATM   27  C   UNL     1      40.362 -14.670   2.710  1.00  0.00     0.013 A 
HETATM   28  C   UNL     1      43.063 -15.159   2.330  1.00  0.00     0.012 A 
HETATM   29  C   UNL     1      43.612 -12.911   3.040  1.00  0.00     0.012 A 
HETATM   30  C   UNL     1      42.141 -16.171   2.080  1.00  0.00     0.001 A 
HETATM   31  C   UNL     1      40.790 -15.929   2.276  1.00  0.00     0.001 A 
HETATM   32  C   UNL     1      43.243 -11.653   3.501  1.00  0.00     0.002 A 
HETATM   33  C   UNL     1      41.899 -11.350   3.681  1.00  0.00     0.010 A 
ENDBRANCH   9  24
TORSDOF 4
ENDMDL
MODEL 7
REMARK VINA RESULT:      -7.9     15.559     17.064
REMARK  4 active torsions:
REMARK  status: ('A' for Active; 'I' for Inactive)
REMARK    1  A    between atoms: C_9  and  C_10 
REMARK    2  A    between atoms: C_20  and  C_21 
REMARK       I    between atoms: C_21  and  N_22 
REMARK    3  A    between atoms: N_22  and  C_23 
REMARK    4  A    between atoms: C_24  and  O_25 
ROOT
HETATM    1  C   UNL     1      42.979 -15.753   8.271  1.00  0.00     0.070 C 
HETATM    2  C   UNL     1      43.277 -14.658   7.274  1.00  0.00     0.037 A 
HETATM    3  N   UNL     1      43.550 -13.410   7.822  1.00  0.00    -0.192 N 
HETATM    4  C   UNL     1      43.863 -12.327   7.092  1.00  0.00     0.725 A 
HETATM    5  N   UNL     1      43.902 -12.430   5.728  1.00  0.00    -0.084 N 
HETATM    6  N   UNL     1      44.378 -11.295   5.170  1.00  0.00    -0.149 NA
HETATM    7  C   UNL     1      44.486 -10.515   6.252  1.00  0.00     0.275 A 
HETATM    8  N   UNL     1      44.193 -11.113   7.450  1.00  0.00    -0.054 NA
HETATM    9  C   UNL     1      43.653 -13.674   4.990  1.00  0.00     0.203 A 
HETATM   10  C   UNL     1      43.312 -14.835   5.927  1.00  0.00     0.062 A 
HETATM   11  H   UNL     1      43.511 -13.321   8.835  1.00  0.00     0.184 HD
ENDROOT
BRANCH  10  12
HETATM   12  C   UNL     1      42.903 -16.148   5.333  1.00  0.00     0.256 C 
HETATM   13  N   UNL     1      43.943 -16.892   4.817  1.00  0.00    -0.321 N 
HETATM   14  H   UNL     1      44.827 -16.431   4.669  1.00  0.00     0.169 HD
HETATM   15  O   UNL     1      41.710 -16.421   5.280  1.00  0.00    -0.267 OA
BRANCH  13  16
HETATM   16  C   UNL     1      43.853 -18.174   4.218  1.00  0.00     0.068 A 
HETATM   17  C   UNL     1      43.541 -18.441   2.876  1.00  0.00     0.095 A 
HETATM   18  C   UNL     1      43.545 -19.755   2.391  1.00  0.00     0.039 A 
HETATM   19  C   UNL     1      43.797 -20.822   3.249  1.00  0.00     0.003 A 
HETATM   20  C   UNL     1      44.047 -20.578   4.595  1.00  0.00     0.002 A 
HETATM   21  C   UNL     1      44.069 -19.266   5.077  1.00  0.00     0.032 A 
BRANCH  17  22
HETATM   22  O   UNL     1      43.192 -17.477   1.969  1.00  0.00    -0.354 OA
HETATM   23  C   UNL     1      41.789 -17.226   2.017  1.00  0.00     0.210 C 
ENDBRANCH  17  22
ENDBRANCH  13  16
ENDBRANCH  10  12
BRANCH   9  24
HETATM   24  C   UNL     1      42.627 -13.433   3.878  1.00  0.00    -0.017 A 
HETATM   25  C   UNL     1      41.337 -12.872   4.145  1.00  0.00    -0.017 A 
HETATM   26  C   UNL     1      40.470 -12.616   3.050  1.00  0.00    -0.025 A 
HETATM   27  C   UNL     1      40.843 -12.560   5.437  1.00  0.00     0.013 A 
HETATM   28  C   UNL     1      39.203 -12.046   3.263  1.00  0.00     0.012 A 
HETATM   29  C   UNL     1      40.865 -12.939   1.746  1.00  0.00     0.012 A 
HETATM   30  C   UNL     1      38.760 -11.736   4.545  1.00  0.00     0.001 A 
HETATM   31  C   UNL     1      39.577 -11.998   5.633  1.00  0.00     0.001 A 
HETATM   32  C   UNL     1      42.100 -13.526   1.498  1.00  0.00     0.002 A 
HETATM   33  C   UNL     1      42.969 -13.778   2.552  1.00  0.00     0.010 A 
ENDBRANCH   9  24
TORSDOF 4
ENDMDL
MODEL 8
REMARK VINA RESULT:      -7.9     15.527     17.451
REMARK  4 active torsions:
REMARK  status: ('A' for Active; 'I' for Inactive)
REMARK    1  A    between atoms: C_9  and  C_10 
REMARK    2  A    between atoms: C_20  and  C_21 
REMARK       I    between atoms: C_21  and  N_22 
REMARK    3  A    between atoms: N_22  and  C_23 
REMARK    4  A    between atoms: C_24  and  O_25 
ROOT
HETATM    1  C   UNL     1      40.434 -14.700  -0.728  1.00  0.00     0.070 C 
HETATM    2  C   UNL     1      40.220 -13.908   0.541  1.00  0.00     0.037 A 
HETATM    3  N   UNL     1      39.304 -12.867   0.447  1.00  0.00    -0.192 N 
HETATM    4  C   UNL     1      38.966 -12.075   1.478  1.00  0.00     0.725 A 
HETATM    5  N   UNL     1      39.560 -12.273   2.694  1.00  0.00    -0.084 N 
HETATM    6  N   UNL     1      38.995 -11.493   3.642  1.00  0.00    -0.149 NA
HETATM    7  C   UNL     1      38.155 -10.768   2.895  1.00  0.00     0.275 A 
HETATM    8  N   UNL     1      38.097 -11.101   1.567  1.00  0.00    -0.054 NA
HETATM    9  C   UNL     1      40.537 -13.333   2.969  1.00  0.00     0.203 A 
HETATM   10  C   UNL     1      40.837 -14.170   1.724  1.00  0.00     0.062 A 
HETATM   11  H   UNL     1      38.866 -12.704  -0.457  1.00  0.00     0.184 HD
ENDROOT
BRANCH  10  12
HETATM   12  C   UNL     1      41.910 -15.214   1.793  1.00  0.00     0.256 C 
HETATM   13  N   UNL     1      41.615 -16.284   2.612  1.00  0.00    -0.321 N 
HETATM   14  H   UNL     1      40.845 -16.189   3.256  1.00  0.00     0.169 HD
HETATM   15  O   UNL     1      42.963 -15.012   1.204  1.00  0.00    -0.267 OA
BRANCH  13  16
HETATM   16  C   UNL     1      42.429 -17.420   2.850  1.00  0.00     0.068 A 
HETATM   17  C   UNL     1      43.343 -17.578   3.902  1.00  0.00     0.095 A 
HETATM   18  C   UNL     1      44.045 -18.779   4.062  1.00  0.00     0.039 A 
HETATM   19  C   UNL     1      43.894 -19.812   3.142  1.00  0.00     0.003 A 
HETATM   20  C   UNL     1      43.038 -19.647   2.057  1.00  0.00     0.002 A 
HETATM   21  C   UNL     1      42.317 -18.459   1.910  1.00  0.00     0.032 A 
BRANCH  17  22
HETATM   22  O   UNL     1      43.635 -16.597   4.812  1.00  0.00    -0.354 OA
HETATM   23  C   UNL     1      44.767 -16.962   5.598  1.00  0.00     0.210 C 
ENDBRANCH  17  22
ENDBRANCH  13  16
ENDBRANCH  10  12
BRANCH   9  24
HETATM   24  C   UNL     1      41.777 -12.746   3.653  1.00  0.00    -0.017 A 
HETATM   25  C   UNL     1      42.235 -13.216   4.926  1.00  0.00    -0.017 A 
HETATM   26  C   UNL     1      43.431 -12.669   5.459  1.00  0.00    -0.025 A 
HETATM   27  C   UNL     1      41.570 -14.190   5.715  1.00  0.00     0.013 A 
HETATM   28  C   UNL     1      43.929 -13.116   6.695  1.00  0.00     0.012 A 
HETATM   29  C   UNL     1      44.122 -11.670   4.763  1.00  0.00     0.012 A 
HETATM   30  C   UNL     1      43.259 -14.087   7.433  1.00  0.00     0.001 A 
HETATM   31  C   UNL     1      42.076 -14.619   6.946  1.00  0.00     0.001 A 
HETATM   32  C   UNL     1      43.648 -11.186   3.550  1.00  0.00     0.002 A 
HETATM   33  C   UNL     1      42.484 -11.712   3.004  1.00  0.00     0.010 A 
ENDBRANCH   9  24
TORSDOF 4
ENDMDL
MODEL 9
REMARK VINA RESULT:      -7.8     16.931     18.781
REMARK  4 active torsions:
REMARK  status: ('A' for Active; 'I' for Inactive)
REMARK    1  A    between atoms: C_9  and  C_10 
REMARK    2  A    between atoms: C_20  and  C_21 
REMARK       I    between atoms: C_21  and  N_22 
REMARK    3  A    between atoms: N_22  and  C_23 
REMARK    4  A    between atoms: C_24  and  O_25 
ROOT
HETATM    1  C   UNL     1      41.740 -10.232   1.838  1.00  0.00     0.070 C 
HETATM    2  C   UNL     1      41.591 -11.733   1.940  1.00  0.00     0.037 A 
HETATM    3  N   UNL     1      40.671 -12.301   1.068  1.00  0.00    -0.192 N 
HETATM    4  C   UNL     1      40.427 -13.620   0.997  1.00  0.00     0.725 A 
HETATM    5  N   UNL     1      41.096 -14.469   1.836  1.00  0.00    -0.084 N 
HETATM    6  N   UNL     1      40.841 -15.759   1.525  1.00  0.00    -0.149 NA
HETATM    7  C   UNL     1      39.917 -15.604   0.570  1.00  0.00     0.275 A 
HETATM    8  N   UNL     1      39.644 -14.310   0.209  1.00  0.00    -0.054 NA
HETATM    9  C   UNL     1      42.108 -14.036   2.807  1.00  0.00     0.203 A 
HETATM   10  C   UNL     1      42.301 -12.518   2.792  1.00  0.00     0.062 A 
HETATM   11  H   UNL     1      40.159 -11.677   0.448  1.00  0.00     0.184 HD
ENDROOT
BRANCH  10  12
HETATM   12  C   UNL     1      43.204 -11.893   3.811  1.00  0.00     0.256 C 
HETATM   13  N   UNL     1      42.598 -11.614   5.018  1.00  0.00    -0.321 N 
HETATM   14  H   UNL     1      41.590 -11.629   5.057  1.00  0.00     0.169 HD
HETATM   15  O   UNL     1      44.350 -11.614   3.486  1.00  0.00    -0.267 OA
BRANCH  13  16
HETATM   16  C   UNL     1      43.210 -11.045   6.164  1.00  0.00     0.068 A 
HETATM   17  C   UNL     1      42.712  -9.978   6.926  1.00  0.00     0.095 A 
HETATM   18  C   UNL     1      43.385  -9.549   8.076  1.00  0.00     0.039 A 
HETATM   19  C   UNL     1      44.593 -10.133   8.446  1.00  0.00     0.003 A 
HETATM   20  C   UNL     1      45.133 -11.150   7.665  1.00  0.00     0.002 A 
HETATM   21  C   UNL     1      44.449 -11.598   6.530  1.00  0.00     0.032 A 
BRANCH  17  22
HETATM   22  O   UNL     1      41.581  -9.276   6.605  1.00  0.00    -0.354 OA
HETATM   23  C   UNL     1      40.583  -9.445   7.610  1.00  0.00     0.210 C 
ENDBRANCH  17  22
ENDBRANCH  13  16
ENDBRANCH  10  12
BRANCH   9  24
HETATM   24  C   UNL     1      41.801 -14.623   4.189  1.00  0.00    -0.017 A 
HETATM   25  C   UNL     1      42.510 -15.753   4.708  1.00  0.00    -0.017 A 
HETATM   26  C   UNL     1      42.214 -16.192   6.026  1.00  0.00    -0.025 A 
HETATM   27  C   UNL     1      43.491 -16.489   3.995  1.00  0.00     0.013 A 
HETATM   28  C   UNL     1      42.901 -17.284   6.583  1.00  0.00     0.012 A 
HETATM   29  C   UNL     1      41.225 -15.548   6.779  1.00  0.00     0.012 A 
HETATM   30  C   UNL     1      43.871 -17.970   5.859  1.00  0.00     0.001 A 
HETATM   31  C   UNL     1      44.161 -17.577   4.563  1.00  0.00     0.001 A 
HETATM   32  C   UNL     1      40.508 -14.480   6.252  1.00  0.00     0.002 A 
HETATM   33  C   UNL     1      40.786 -14.026   4.969  1.00  0.00     0.010 A 
ENDBRANCH   9  24
TORSDOF 4
ENDMDL
MODEL 10
REMARK VINA RESULT:      -7.7     16.467     18.322
REMARK  4 active torsions:
REMARK  status: ('A' for Active; 'I' for Inactive)
REMARK    1  A    between atoms: C_9  and  C_10 
REMARK    2  A    between atoms: C_20  and  C_21 
REMARK       I    between atoms: C_21  and  N_22 
REMARK    3  A    between atoms: N_22  and  C_23 
REMARK    4  A    between atoms: C_24  and  O_25 
ROOT
HETATM    1  C   UNL     1      39.833 -15.679   0.443  1.00  0.00     0.070 C 
HETATM    2  C   UNL     1      39.826 -14.314   1.093  1.00  0.00     0.037 A 
HETATM    3  N   UNL     1      39.351 -13.278   0.299  1.00  0.00    -0.192 N 
HETATM    4  C   UNL     1      39.247 -12.005   0.717  1.00  0.00     0.725 A 
HETATM    5  N   UNL     1      39.643 -11.685   1.986  1.00  0.00    -0.084 N 
HETATM    6  N   UNL     1      39.329 -10.405   2.284  1.00  0.00    -0.149 NA
HETATM    7  C   UNL     1      38.858  -9.987   1.103  1.00  0.00     0.275 A 
HETATM    8  N   UNL     1      38.779 -10.939   0.121  1.00  0.00    -0.054 NA
HETATM    9  C   UNL     1      40.156 -12.659   2.958  1.00  0.00     0.203 A 
HETATM   10  C   UNL     1      40.224 -14.070   2.369  1.00  0.00     0.062 A 
HETATM   11  H   UNL     1      39.065 -13.504  -0.651  1.00  0.00     0.184 HD
ENDROOT
BRANCH  10  12
HETATM   12  C   UNL     1      40.846 -15.164   3.183  1.00  0.00     0.256 C 
HETATM   13  N   UNL     1      42.092 -15.564   2.747  1.00  0.00    -0.321 N 
HETATM   14  H   UNL     1      42.386 -15.278   1.826  1.00  0.00     0.169 HD
HETATM   15  O   UNL     1      40.194 -15.659   4.093  1.00  0.00    -0.267 OA
BRANCH  13  16
HETATM   16  C   UNL     1      42.916 -16.557   3.333  1.00  0.00     0.068 A 
HETATM   17  C   UNL     1      43.564 -16.469   4.575  1.00  0.00     0.095 A 
HETATM   18  C   UNL     1      44.303 -17.550   5.071  1.00  0.00     0.039 A 
HETATM   19  C   UNL     1      44.460 -18.706   4.312  1.00  0.00     0.003 A 
HETATM   20  C   UNL     1      43.876 -18.785   3.051  1.00  0.00     0.002 A 
HETATM   21  C   UNL     1      43.115 -17.717   2.565  1.00  0.00     0.032 A 
BRANCH  17  22
HETATM   22  O   UNL     1      43.550 -15.350   5.364  1.00  0.00    -0.354 OA
HETATM   23  C   UNL     1      42.741 -15.561   6.519  1.00  0.00     0.210 C 
ENDBRANCH  17  22
ENDBRANCH  13  16
ENDBRANCH  10  12
BRANCH   9  24
HETATM   24  C   UNL     1      41.472 -12.159   3.564  1.00  0.00    -0.017 A 
HETATM   25  C   UNL     1      41.515 -11.460   4.813  1.00  0.00    -0.017 A 
HETATM   26  C   UNL     1      42.781 -11.093   5.340  1.00  0.00    -0.025 A 
HETATM   27  C   UNL     1      40.375 -11.088   5.570  1.00  0.00     0.013 A 
HETATM   28  C   UNL     1      42.871 -10.424   6.573  1.00  0.00     0.012 A 
HETATM   29  C   UNL     1      43.952 -11.384   4.631  1.00  0.00     0.012 A 
HETATM   30  C   UNL     1      41.730 -10.092   7.297  1.00  0.00     0.001 A 
HETATM   31  C   UNL     1      40.481 -10.417   6.792  1.00  0.00     0.001 A 
HETATM   32  C   UNL     1      43.901 -12.022   3.398  1.00  0.00     0.002 A 
HETATM   33  C   UNL     1      42.675 -12.399   2.865  1.00  0.00     0.010 A 
ENDBRANCH   9  24
TORSDOF 4
ENDMDL
