MODEL 1
REMARK VINA RESULT:      -8.5      0.000      0.000
REMARK  8 active torsions:
REMARK  status: ('A' for Active; 'I' for Inactive)
REMARK    1  A    between atoms: C_2  and  C_3 
REMARK    2  A    between atoms: C_3  and  C_4 
REMARK       I    between atoms: C_4  and  N_5 
REMARK    3  A    between atoms: N_8  and  C_9 
REMARK    4  A    between atoms: C_12  and  N_13 
REMARK    5  A    between atoms: N_13  and  C_14 
REMARK    6  A    between atoms: C_14  and  N_15 
REMARK       I    between atoms: N_15  and  C_16 
REMARK    7  A    between atoms: C_16  and  C_17 
REMARK    8  A    between atoms: C_21  and  O_22 
ROOT
HETATM    1  C   UNL     1      42.608 -11.310   5.350  1.00  0.00     0.030 A 
HETATM    2  C   UNL     1      41.366 -11.917   5.104  1.00  0.00     0.031 A 
HETATM    3  C   UNL     1      40.991 -12.393   3.838  1.00  0.00     0.032 A 
HETATM    4  C   UNL     1      41.864 -12.315   2.762  1.00  0.00     0.034 A 
HETATM    5  C   UNL     1      43.139 -11.805   2.995  1.00  0.00     0.032 A 
HETATM    6  C   UNL     1      43.494 -11.298   4.260  1.00  0.00     0.031 A 
ENDROOT
BRANCH   4   7
HETATM    7  N   UNL     1      41.557 -12.798   1.473  1.00  0.00    -0.333 N 
HETATM    8  H   UNL     1      41.600 -12.107   0.722  1.00  0.00     0.168 HD
BRANCH   7   9
HETATM    9  C   UNL     1      41.113 -14.036   1.077  1.00  0.00     0.179 C 
HETATM   10  S   UNL     1      39.967 -14.426  -0.080  1.00  0.00    -0.040 SA
BRANCH   9  11
HETATM   11  N   UNL     1      41.719 -15.114   1.693  1.00  0.00    -0.299 N 
HETATM   12  C   UNL     1      43.067 -15.388   1.875  1.00  0.00     0.257 C 
HETATM   13  O   UNL     1      43.984 -14.724   1.408  1.00  0.00    -0.267 OA
HETATM   14  H   UNL     1      41.047 -15.717   2.148  1.00  0.00     0.171 HD
BRANCH  12  15
HETATM   15  C   UNL     1      43.348 -16.578   2.718  1.00  0.00     0.034 A 
HETATM   16  C   UNL     1      43.357 -17.839   2.119  1.00  0.00     0.044 A 
HETATM   17  C   UNL     1      43.678 -18.964   2.884  1.00  0.00     0.068 A 
HETATM   18 CL   UNL     1      43.713 -20.498   2.085  1.00  0.00    -0.081 Cl
HETATM   19  C   UNL     1      43.978 -18.848   4.254  1.00  0.00     0.089 A 
HETATM   20  C   UNL     1      43.933 -17.581   4.848  1.00  0.00     0.039 A 
HETATM   21  C   UNL     1      43.618 -16.451   4.085  1.00  0.00     0.020 A 
BRANCH  19  22
HETATM   22  O   UNL     1      44.294 -20.003   4.920  1.00  0.00    -0.354 OA
HETATM   23  C   UNL     1      43.547 -20.324   6.086  1.00  0.00     0.210 C 
ENDBRANCH  19  22
ENDBRANCH  12  15
ENDBRANCH   9  11
ENDBRANCH   7   9
ENDBRANCH   4   7
BRANCH   1  24
HETATM   24  N   UNL     1      42.946 -10.838   6.630  1.00  0.00    -0.378 N 
HETATM   25  C   UNL     1      42.315  -9.569   7.066  1.00  0.00     0.143 C 
HETATM   26  C   UNL     1      42.386  -9.418   8.595  1.00  0.00     0.145 C 
HETATM   27  N   UNL     1      43.742  -9.554   9.128  1.00  0.00    -0.349 N 
HETATM   28  C   UNL     1      44.128  -9.094  10.382  1.00  0.00     0.219 C 
HETATM   29  C   UNL     1      44.495 -10.696   8.595  1.00  0.00     0.145 C 
HETATM   30  O   UNL     1      45.213  -9.400  10.881  1.00  0.00    -0.273 OA
HETATM   31  C   UNL     1      44.359 -10.917   7.074  1.00  0.00     0.143 C 
BRANCH  28  32
HETATM   32  C   UNL     1      43.196  -8.173  11.156  1.00  0.00     0.103 C 
BRANCH  32  33
HETATM   33  C   UNL     1      43.397  -8.267  12.666  1.00  0.00     0.005 C 
HETATM   34  C   UNL     1      42.249  -8.950  13.391  1.00  0.00     0.005 C 
ENDBRANCH  32  33
ENDBRANCH  28  32
ENDBRANCH   1  24
TORSDOF 8
ENDMDL
MODEL 2
REMARK VINA RESULT:      -8.3      1.904      2.273
REMARK  8 active torsions:
REMARK  status: ('A' for Active; 'I' for Inactive)
REMARK    1  A    between atoms: C_2  and  C_3 
REMARK    2  A    between atoms: C_3  and  C_4 
REMARK       I    between atoms: C_4  and  N_5 
REMARK    3  A    between atoms: N_8  and  C_9 
REMARK    4  A    between atoms: C_12  and  N_13 
REMARK    5  A    between atoms: N_13  and  C_14 
REMARK    6  A    between atoms: C_14  and  N_15 
REMARK       I    between atoms: N_15  and  C_16 
REMARK    7  A    between atoms: C_16  and  C_17 
REMARK    8  A    between atoms: C_21  and  O_22 
ROOT
HETATM    1  C   UNL     1      40.166 -11.217   5.588  1.00  0.00     0.030 A 
HETATM    2  C   UNL     1      40.337 -12.602   5.744  1.00  0.00     0.031 A 
HETATM    3  C   UNL     1      40.025 -13.525   4.734  1.00  0.00     0.032 A 
HETATM    4  C   UNL     1      39.559 -13.097   3.499  1.00  0.00     0.034 A 
HETATM    5  C   UNL     1      39.468 -11.725   3.278  1.00  0.00     0.032 A 
HETATM    6  C   UNL     1      39.751 -10.807   4.310  1.00  0.00     0.031 A 
ENDROOT
BRANCH   4   7
HETATM    7  N   UNL     1      39.252 -13.972   2.436  1.00  0.00    -0.333 N 
HETATM    8  H   UNL     1      38.281 -14.282   2.387  1.00  0.00     0.168 HD
BRANCH   7   9
HETATM    9  C   UNL     1      40.079 -14.552   1.505  1.00  0.00     0.179 C 
HETATM   10  S   UNL     1      40.183 -14.261  -0.141  1.00  0.00    -0.040 SA
BRANCH   9  11
HETATM   11  N   UNL     1      40.975 -15.481   1.998  1.00  0.00    -0.299 N 
HETATM   12  C   UNL     1      42.279 -15.308   2.438  1.00  0.00     0.257 C 
HETATM   13  O   UNL     1      42.907 -14.259   2.366  1.00  0.00    -0.267 OA
HETATM   14  H   UNL     1      40.545 -16.387   2.131  1.00  0.00     0.171 HD
BRANCH  12  15
HETATM   15  C   UNL     1      42.894 -16.518   3.041  1.00  0.00     0.034 A 
HETATM   16  C   UNL     1      42.873 -17.713   2.321  1.00  0.00     0.044 A 
HETATM   17  C   UNL     1      43.499 -18.847   2.846  1.00  0.00     0.068 A 
HETATM   18 CL   UNL     1      43.477 -20.292   1.896  1.00  0.00    -0.081 Cl
HETATM   19  C   UNL     1      44.139 -18.807   4.099  1.00  0.00     0.089 A 
HETATM   20  C   UNL     1      44.124 -17.610   4.824  1.00  0.00     0.039 A 
HETATM   21  C   UNL     1      43.504 -16.471   4.300  1.00  0.00     0.020 A 
BRANCH  19  22
HETATM   22  O   UNL     1      44.737 -19.963   4.527  1.00  0.00    -0.354 OA
HETATM   23  C   UNL     1      43.979 -20.839   5.351  1.00  0.00     0.210 C 
ENDBRANCH  19  22
ENDBRANCH  12  15
ENDBRANCH   9  11
ENDBRANCH   7   9
ENDBRANCH   4   7
BRANCH   1  24
HETATM   24  N   UNL     1      40.483 -10.323   6.624  1.00  0.00    -0.378 N 
HETATM   25  C   UNL     1      41.834 -10.442   7.223  1.00  0.00     0.143 C 
HETATM   26  C   UNL     1      42.213  -9.156   7.979  1.00  0.00     0.145 C 
HETATM   27  N   UNL     1      41.219  -8.753   8.973  1.00  0.00    -0.349 N 
HETATM   28  C   UNL     1      41.486  -7.881  10.022  1.00  0.00     0.219 C 
HETATM   29  C   UNL     1      39.831  -8.790   8.496  1.00  0.00     0.145 C 
HETATM   30  O   UNL     1      40.586  -7.406  10.718  1.00  0.00    -0.273 OA
HETATM   31  C   UNL     1      39.460 -10.030   7.657  1.00  0.00     0.143 C 
BRANCH  28  32
HETATM   32  C   UNL     1      42.929  -7.514  10.336  1.00  0.00     0.103 C 
BRANCH  32  33
HETATM   33  C   UNL     1      43.563  -8.446  11.365  1.00  0.00     0.005 C 
HETATM   34  C   UNL     1      43.285  -8.042  12.804  1.00  0.00     0.005 C 
ENDBRANCH  32  33
ENDBRANCH  28  32
ENDBRANCH   1  24
TORSDOF 8
ENDMDL
MODEL 3
REMARK VINA RESULT:      -8.1      1.968      2.892
REMARK  8 active torsions:
REMARK  status: ('A' for Active; 'I' for Inactive)
REMARK    1  A    between atoms: C_2  and  C_3 
REMARK    2  A    between atoms: C_3  and  C_4 
REMARK       I    between atoms: C_4  and  N_5 
REMARK    3  A    between atoms: N_8  and  C_9 
REMARK    4  A    between atoms: C_12  and  N_13 
REMARK    5  A    between atoms: N_13  and  C_14 
REMARK    6  A    between atoms: C_14  and  N_15 
REMARK       I    between atoms: N_15  and  C_16 
REMARK    7  A    between atoms: C_16  and  C_17 
REMARK    8  A    between atoms: C_21  and  O_22 
ROOT
HETATM    1  C   UNL     1      43.211 -10.221   7.608  1.00  0.00     0.030 A 
HETATM    2  C   UNL     1      42.174 -10.016   6.683  1.00  0.00     0.031 A 
HETATM    3  C   UNL     1      42.271 -10.398   5.336  1.00  0.00     0.032 A 
HETATM    4  C   UNL     1      43.405 -11.042   4.860  1.00  0.00     0.034 A 
HETATM    5  C   UNL     1      44.412 -11.346   5.772  1.00  0.00     0.032 A 
HETATM    6  C   UNL     1      44.320 -10.927   7.114  1.00  0.00     0.031 A 
ENDROOT
BRANCH   4   7
HETATM    7  N   UNL     1      43.552 -11.473   3.525  1.00  0.00    -0.333 N 
HETATM    8  H   UNL     1      44.318 -11.043   3.005  1.00  0.00     0.168 HD
BRANCH   7   9
HETATM    9  C   UNL     1      42.765 -12.315   2.778  1.00  0.00     0.179 C 
HETATM   10  S   UNL     1      41.543 -11.935   1.697  1.00  0.00    -0.040 SA
BRANCH   9  11
HETATM   11  N   UNL     1      43.041 -13.663   2.907  1.00  0.00    -0.299 N 
HETATM   12  C   UNL     1      42.790 -14.522   3.967  1.00  0.00     0.257 C 
HETATM   13  O   UNL     1      42.344 -14.178   5.054  1.00  0.00    -0.267 OA
HETATM   14  H   UNL     1      43.386 -14.062   2.043  1.00  0.00     0.171 HD
BRANCH  12  15
HETATM   15  C   UNL     1      43.094 -15.950   3.691  1.00  0.00     0.034 A 
HETATM   16  C   UNL     1      43.309 -16.812   4.767  1.00  0.00     0.044 A 
HETATM   17  C   UNL     1      43.536 -18.170   4.529  1.00  0.00     0.068 A 
HETATM   18 CL   UNL     1      43.757 -19.202   5.899  1.00  0.00    -0.081 Cl
HETATM   19  C   UNL     1      43.569 -18.681   3.218  1.00  0.00     0.089 A 
HETATM   20  C   UNL     1      43.385 -17.798   2.147  1.00  0.00     0.039 A 
HETATM   21  C   UNL     1      43.150 -16.439   2.380  1.00  0.00     0.020 A 
BRANCH  19  22
HETATM   22  O   UNL     1      43.786 -20.027   3.082  1.00  0.00    -0.354 OA
HETATM   23  C   UNL     1      43.731 -20.580   1.774  1.00  0.00     0.210 C 
ENDBRANCH  19  22
ENDBRANCH  12  15
ENDBRANCH   9  11
ENDBRANCH   7   9
ENDBRANCH   4   7
BRANCH   1  24
HETATM   24  N   UNL     1      43.081  -9.818   8.948  1.00  0.00    -0.378 N 
HETATM   25  C   UNL     1      41.735  -9.377   9.389  1.00  0.00     0.143 C 
HETATM   26  C   UNL     1      41.620  -9.420  10.922  1.00  0.00     0.145 C 
HETATM   27  N   UNL     1      42.679  -8.676  11.604  1.00  0.00    -0.349 N 
HETATM   28  C   UNL     1      42.593  -8.247  12.923  1.00  0.00     0.219 C 
HETATM   29  C   UNL     1      44.030  -8.930  11.090  1.00  0.00     0.145 C 
HETATM   30  O   UNL     1      43.573  -7.804  13.528  1.00  0.00    -0.273 OA
HETATM   31  C   UNL     1      44.146  -8.983   9.553  1.00  0.00     0.143 C 
BRANCH  28  32
HETATM   32  C   UNL     1      41.252  -8.306  13.640  1.00  0.00     0.103 C 
BRANCH  32  33
HETATM   33  C   UNL     1      41.397  -8.349  15.159  1.00  0.00     0.005 C 
HETATM   34  C   UNL     1      40.997  -7.053  15.845  1.00  0.00     0.005 C 
ENDBRANCH  32  33
ENDBRANCH  28  32
ENDBRANCH   1  24
TORSDOF 8
ENDMDL
MODEL 4
REMARK VINA RESULT:      -8.0      1.650      2.583
REMARK  8 active torsions:
REMARK  status: ('A' for Active; 'I' for Inactive)
REMARK    1  A    between atoms: C_2  and  C_3 
REMARK    2  A    between atoms: C_3  and  C_4 
REMARK       I    between atoms: C_4  and  N_5 
REMARK    3  A    between atoms: N_8  and  C_9 
REMARK    4  A    between atoms: C_12  and  N_13 
REMARK    5  A    between atoms: N_13  and  C_14 
REMARK    6  A    between atoms: C_14  and  N_15 
REMARK       I    between atoms: N_15  and  C_16 
REMARK    7  A    between atoms: C_16  and  C_17 
REMARK    8  A    between atoms: C_21  and  O_22 
ROOT
HETATM    1  C   UNL     1      43.363  -9.931   7.400  1.00  0.00     0.030 A 
HETATM    2  C   UNL     1      44.446 -10.796   7.175  1.00  0.00     0.031 A 
HETATM    3  C   UNL     1      44.580 -11.556   6.002  1.00  0.00     0.032 A 
HETATM    4  C   UNL     1      43.649 -11.453   4.978  1.00  0.00     0.034 A 
HETATM    5  C   UNL     1      42.615 -10.533   5.129  1.00  0.00     0.032 A 
HETATM    6  C   UNL     1      42.469  -9.801   6.324  1.00  0.00     0.031 A 
ENDROOT
BRANCH   4   7
HETATM    7  N   UNL     1      43.742 -12.170   3.767  1.00  0.00    -0.333 N 
HETATM    8  H   UNL     1      44.599 -12.023   3.232  1.00  0.00     0.168 HD
BRANCH   7   9
HETATM    9  C   UNL     1      42.814 -12.966   3.141  1.00  0.00     0.179 C 
HETATM   10  S   UNL     1      41.564 -12.525   2.117  1.00  0.00    -0.040 SA
BRANCH   9  11
HETATM   11  N   UNL     1      42.951 -14.325   3.354  1.00  0.00    -0.299 N 
HETATM   12  C   UNL     1      42.867 -15.376   2.452  1.00  0.00     0.257 C 
HETATM   13  O   UNL     1      42.547 -15.264   1.276  1.00  0.00    -0.267 OA
HETATM   14  H   UNL     1      43.252 -14.531   4.297  1.00  0.00     0.171 HD
BRANCH  12  15
HETATM   15  C   UNL     1      43.216 -16.705   3.017  1.00  0.00     0.034 A 
HETATM   16  C   UNL     1      43.207 -17.817   2.175  1.00  0.00     0.044 A 
HETATM   17  C   UNL     1      43.592 -19.065   2.676  1.00  0.00     0.068 A 
HETATM   18 CL   UNL     1      43.601 -20.403   1.580  1.00  0.00    -0.081 Cl
HETATM   19  C   UNL     1      43.972 -19.221   4.021  1.00  0.00     0.089 A 
HETATM   20  C   UNL     1      43.944 -18.102   4.862  1.00  0.00     0.039 A 
HETATM   21  C   UNL     1      43.567 -16.850   4.365  1.00  0.00     0.020 A 
BRANCH  19  22
HETATM   22  O   UNL     1      44.345 -20.477   4.419  1.00  0.00    -0.354 OA
HETATM   23  C   UNL     1      44.078 -20.857   5.762  1.00  0.00     0.210 C 
ENDBRANCH  19  22
ENDBRANCH  12  15
ENDBRANCH   9  11
ENDBRANCH   7   9
ENDBRANCH   4   7
BRANCH   1  24
HETATM   24  N   UNL     1      43.258  -9.191   8.590  1.00  0.00    -0.378 N 
HETATM   25  C   UNL     1      43.364  -9.948   9.861  1.00  0.00     0.143 C 
HETATM   26  C   UNL     1      43.700  -9.008  11.032  1.00  0.00     0.145 C 
HETATM   27  N   UNL     1      42.777  -7.880  11.153  1.00  0.00    -0.349 N 
HETATM   28  C   UNL     1      42.628  -7.126  12.312  1.00  0.00     0.219 C 
HETATM   29  C   UNL     1      42.483  -7.194   9.890  1.00  0.00     0.145 C 
HETATM   30  O   UNL     1      41.998  -6.066  12.321  1.00  0.00    -0.273 OA
HETATM   31  C   UNL     1      42.234  -8.123   8.683  1.00  0.00     0.143 C 
BRANCH  28  32
HETATM   32  C   UNL     1      43.244  -7.627  13.610  1.00  0.00     0.103 C 
BRANCH  32  33
HETATM   33  C   UNL     1      42.194  -8.057  14.631  1.00  0.00     0.005 C 
HETATM   34  C   UNL     1      41.195  -9.065  14.088  1.00  0.00     0.005 C 
ENDBRANCH  32  33
ENDBRANCH  28  32
ENDBRANCH   1  24
TORSDOF 8
ENDMDL
MODEL 5
REMARK VINA RESULT:      -8.0      4.352     10.278
REMARK  8 active torsions:
REMARK  status: ('A' for Active; 'I' for Inactive)
REMARK    1  A    between atoms: C_2  and  C_3 
REMARK    2  A    between atoms: C_3  and  C_4 
REMARK       I    between atoms: C_4  and  N_5 
REMARK    3  A    between atoms: N_8  and  C_9 
REMARK    4  A    between atoms: C_12  and  N_13 
REMARK    5  A    between atoms: N_13  and  C_14 
REMARK    6  A    between atoms: C_14  and  N_15 
REMARK       I    between atoms: N_15  and  C_16 
REMARK    7  A    between atoms: C_16  and  C_17 
REMARK    8  A    between atoms: C_21  and  O_22 
ROOT
HETATM    1  C   UNL     1      41.608 -13.590   5.918  1.00  0.00     0.030 A 
HETATM    2  C   UNL     1      42.386 -12.424   6.010  1.00  0.00     0.031 A 
HETATM    3  C   UNL     1      41.824 -11.143   6.119  1.00  0.00     0.032 A 
HETATM    4  C   UNL     1      40.448 -10.973   6.179  1.00  0.00     0.034 A 
HETATM    5  C   UNL     1      39.651 -12.115   6.187  1.00  0.00     0.032 A 
HETATM    6  C   UNL     1      40.223 -13.394   6.041  1.00  0.00     0.031 A 
ENDROOT
BRANCH   4   7
HETATM    7  N   UNL     1      39.824  -9.715   6.314  1.00  0.00    -0.333 N 
HETATM    8  H   UNL     1      38.956  -9.595   5.790  1.00  0.00     0.168 HD
BRANCH   7   9
HETATM    9  C   UNL     1      40.251  -8.585   6.968  1.00  0.00     0.179 C 
HETATM   10  S   UNL     1      40.546  -7.056   6.350  1.00  0.00    -0.040 SA
BRANCH   9  11
HETATM   11  N   UNL     1      40.427  -8.713   8.332  1.00  0.00    -0.299 N 
HETATM   12  C   UNL     1      39.704  -9.456   9.254  1.00  0.00     0.257 C 
HETATM   13  O   UNL     1      38.679 -10.077   9.001  1.00  0.00    -0.267 OA
HETATM   14  H   UNL     1      41.276  -8.261   8.648  1.00  0.00     0.171 HD
BRANCH  12  15
HETATM   15  C   UNL     1      40.277  -9.469  10.624  1.00  0.00     0.034 A 
HETATM   16  C   UNL     1      41.552  -8.937  10.825  1.00  0.00     0.044 A 
HETATM   17  C   UNL     1      42.082  -8.886  12.118  1.00  0.00     0.068 A 
HETATM   18 CL   UNL     1      43.650  -8.182  12.317  1.00  0.00    -0.081 Cl
HETATM   19  C   UNL     1      41.358  -9.377  13.219  1.00  0.00     0.089 A 
HETATM   20  C   UNL     1      40.094  -9.937  12.998  1.00  0.00     0.039 A 
HETATM   21  C   UNL     1      39.556  -9.985  11.707  1.00  0.00     0.020 A 
BRANCH  19  22
HETATM   22  O   UNL     1      41.952  -9.273  14.449  1.00  0.00    -0.354 OA
HETATM   23  C   UNL     1      41.479  -8.265  15.333  1.00  0.00     0.210 C 
ENDBRANCH  19  22
ENDBRANCH  12  15
ENDBRANCH   9  11
ENDBRANCH   7   9
ENDBRANCH   4   7
BRANCH   1  24
HETATM   24  N   UNL     1      42.206 -14.857   5.802  1.00  0.00    -0.378 N 
HETATM   25  C   UNL     1      42.365 -15.400   4.431  1.00  0.00     0.143 C 
HETATM   26  C   UNL     1      43.418 -16.522   4.406  1.00  0.00     0.145 C 
HETATM   27  N   UNL     1      43.157 -17.584   5.378  1.00  0.00    -0.349 N 
HETATM   28  C   UNL     1      43.714 -18.855   5.300  1.00  0.00     0.219 C 
HETATM   29  C   UNL     1      42.809 -17.108   6.722  1.00  0.00     0.145 C 
HETATM   30  O   UNL     1      43.637 -19.657   6.234  1.00  0.00    -0.273 OA
HETATM   31  C   UNL     1      41.825 -15.921   6.762  1.00  0.00     0.143 C 
BRANCH  28  32
HETATM   32  C   UNL     1      44.425 -19.279   4.023  1.00  0.00     0.103 C 
BRANCH  32  33
HETATM   33  C   UNL     1      43.757 -20.474   3.347  1.00  0.00     0.005 C 
HETATM   34  C   UNL     1      43.486 -20.262   1.867  1.00  0.00     0.005 C 
ENDBRANCH  32  33
ENDBRANCH  28  32
ENDBRANCH   1  24
TORSDOF 8
ENDMDL
MODEL 6
REMARK VINA RESULT:      -7.6      4.877     11.139
REMARK  8 active torsions:
REMARK  status: ('A' for Active; 'I' for Inactive)
REMARK    1  A    between atoms: C_2  and  C_3 
REMARK    2  A    between atoms: C_3  and  C_4 
REMARK       I    between atoms: C_4  and  N_5 
REMARK    3  A    between atoms: N_8  and  C_9 
REMARK    4  A    between atoms: C_12  and  N_13 
REMARK    5  A    between atoms: N_13  and  C_14 
REMARK    6  A    between atoms: C_14  and  N_15 
REMARK       I    between atoms: N_15  and  C_16 
REMARK    7  A    between atoms: C_16  and  C_17 
REMARK    8  A    between atoms: C_21  and  O_22 
ROOT
HETATM    1  C   UNL     1      42.061 -13.167   3.792  1.00  0.00     0.030 A 
HETATM    2  C   UNL     1      42.228 -11.852   4.255  1.00  0.00     0.031 A 
HETATM    3  C   UNL     1      42.729 -11.553   5.531  1.00  0.00     0.032 A 
HETATM    4  C   UNL     1      43.125 -12.565   6.394  1.00  0.00     0.034 A 
HETATM    5  C   UNL     1      43.062 -13.877   5.930  1.00  0.00     0.032 A 
HETATM    6  C   UNL     1      42.524 -14.169   4.661  1.00  0.00     0.031 A 
ENDROOT
BRANCH   4   7
HETATM    7  N   UNL     1      43.660 -12.329   7.678  1.00  0.00    -0.333 N 
HETATM    8  H   UNL     1      43.511 -13.074   8.360  1.00  0.00     0.168 HD
BRANCH   7   9
HETATM    9  C   UNL     1      44.270 -11.209   8.186  1.00  0.00     0.179 C 
HETATM   10  S   UNL     1      45.761 -10.552   7.798  1.00  0.00    -0.040 SA
BRANCH   9  11
HETATM   11  N   UNL     1      43.540 -10.502   9.123  1.00  0.00    -0.299 N 
HETATM   12  C   UNL     1      43.539 -10.603  10.506  1.00  0.00     0.257 C 
HETATM   13  O   UNL     1      44.152 -11.449  11.146  1.00  0.00    -0.267 OA
HETATM   14  H   UNL     1      43.017  -9.746   8.701  1.00  0.00     0.171 HD
BRANCH  12  15
HETATM   15  C   UNL     1      42.727  -9.572  11.201  1.00  0.00     0.034 A 
HETATM   16  C   UNL     1      43.299  -8.865  12.259  1.00  0.00     0.044 A 
HETATM   17  C   UNL     1      42.570  -7.850  12.885  1.00  0.00     0.068 A 
HETATM   18 CL   UNL     1      43.341  -6.978  14.166  1.00  0.00    -0.081 Cl
HETATM   19  C   UNL     1      41.261  -7.539  12.477  1.00  0.00     0.089 A 
HETATM   20  C   UNL     1      40.688  -8.278  11.435  1.00  0.00     0.039 A 
HETATM   21  C   UNL     1      41.415  -9.291  10.801  1.00  0.00     0.020 A 
BRANCH  19  22
HETATM   22  O   UNL     1      40.629  -6.520  13.139  1.00  0.00    -0.354 OA
HETATM   23  C   UNL     1      39.642  -6.864  14.103  1.00  0.00     0.210 C 
ENDBRANCH  19  22
ENDBRANCH  12  15
ENDBRANCH   9  11
ENDBRANCH   7   9
ENDBRANCH   4   7
BRANCH   1  24
HETATM   24  N   UNL     1      41.548 -13.428   2.510  1.00  0.00    -0.378 N 
HETATM   25  C   UNL     1      41.206 -12.254   1.672  1.00  0.00     0.143 C 
HETATM   26  C   UNL     1      41.115 -12.647   0.188  1.00  0.00     0.145 C 
HETATM   27  N   UNL     1      40.206 -13.767  -0.060  1.00  0.00    -0.349 N 
HETATM   28  C   UNL     1      39.665 -14.059  -1.307  1.00  0.00     0.219 C 
HETATM   29  C   UNL     1      40.369 -14.899   0.859  1.00  0.00     0.145 C 
HETATM   30  O   UNL     1      39.070 -15.117  -1.525  1.00  0.00    -0.273 OA
HETATM   31  C   UNL     1      40.555 -14.517   2.342  1.00  0.00     0.143 C 
BRANCH  28  32
HETATM   32  C   UNL     1      39.792 -13.041  -2.431  1.00  0.00     0.103 C 
BRANCH  32  33
HETATM   33  C   UNL     1      38.591 -12.102  -2.512  1.00  0.00     0.005 C 
HETATM   34  C   UNL     1      38.906 -10.768  -3.169  1.00  0.00     0.005 C 
ENDBRANCH  32  33
ENDBRANCH  28  32
ENDBRANCH   1  24
TORSDOF 8
ENDMDL
MODEL 7
REMARK VINA RESULT:      -7.5      4.523     11.569
REMARK  8 active torsions:
REMARK  status: ('A' for Active; 'I' for Inactive)
REMARK    1  A    between atoms: C_2  and  C_3 
REMARK    2  A    between atoms: C_3  and  C_4 
REMARK       I    between atoms: C_4  and  N_5 
REMARK    3  A    between atoms: N_8  and  C_9 
REMARK    4  A    between atoms: C_12  and  N_13 
REMARK    5  A    between atoms: N_13  and  C_14 
REMARK    6  A    between atoms: C_14  and  N_15 
REMARK       I    between atoms: N_15  and  C_16 
REMARK    7  A    between atoms: C_16  and  C_17 
REMARK    8  A    between atoms: C_21  and  O_22 
ROOT
HETATM    1  C   UNL     1      43.149 -11.999   5.937  1.00  0.00     0.030 A 
HETATM    2  C   UNL     1      42.103 -11.102   6.209  1.00  0.00     0.031 A 
HETATM    3  C   UNL     1      42.218 -10.060   7.142  1.00  0.00     0.032 A 
HETATM    4  C   UNL     1      43.408  -9.844   7.823  1.00  0.00     0.034 A 
HETATM    5  C   UNL     1      44.494 -10.656   7.507  1.00  0.00     0.032 A 
HETATM    6  C   UNL     1      44.359 -11.721   6.595  1.00  0.00     0.031 A 
ENDROOT
BRANCH   4   7
HETATM    7  N   UNL     1      43.595  -8.800   8.753  1.00  0.00    -0.333 N 
HETATM    8  H   UNL     1      44.410  -8.892   9.360  1.00  0.00     0.168 HD
BRANCH   7   9
HETATM    9  C   UNL     1      42.795  -7.720   9.038  1.00  0.00     0.179 C 
HETATM   10  S   UNL     1      42.157  -6.575   7.995  1.00  0.00    -0.040 SA
BRANCH   9  11
HETATM   11  N   UNL     1      42.436  -7.575  10.364  1.00  0.00    -0.299 N 
HETATM   12  C   UNL     1      43.062  -8.047  11.509  1.00  0.00     0.257 C 
HETATM   13  O   UNL     1      44.037  -8.788  11.518  1.00  0.00    -0.267 OA
HETATM   14  H   UNL     1      41.652  -6.945  10.477  1.00  0.00     0.171 HD
BRANCH  12  15
HETATM   15  C   UNL     1      42.464  -7.568  12.782  1.00  0.00     0.034 A 
HETATM   16  C   UNL     1      41.097  -7.292  12.821  1.00  0.00     0.044 A 
HETATM   17  C   UNL     1      40.507  -6.898  14.026  1.00  0.00     0.068 A 
HETATM   18 CL   UNL     1      38.802  -6.606  14.029  1.00  0.00    -0.081 Cl
HETATM   19  C   UNL     1      41.272  -6.760  15.198  1.00  0.00     0.089 A 
HETATM   20  C   UNL     1      42.648  -7.010  15.136  1.00  0.00     0.039 A 
HETATM   21  C   UNL     1      43.243  -7.410  13.935  1.00  0.00     0.020 A 
BRANCH  19  22
HETATM   22  O   UNL     1      40.606  -6.383  16.334  1.00  0.00    -0.354 OA
HETATM   23  C   UNL     1      40.443  -7.352  17.362  1.00  0.00     0.210 C 
ENDBRANCH  19  22
ENDBRANCH  12  15
ENDBRANCH   9  11
ENDBRANCH   7   9
ENDBRANCH   4   7
BRANCH   1  24
HETATM   24  N   UNL     1      42.995 -13.036   5.001  1.00  0.00    -0.378 N 
HETATM   25  C   UNL     1      43.176 -14.421   5.499  1.00  0.00     0.143 C 
HETATM   26  C   UNL     1      42.537 -15.436   4.536  1.00  0.00     0.145 C 
HETATM   27  N   UNL     1      43.000 -15.297   3.155  1.00  0.00    -0.349 N 
HETATM   28  C   UNL     1      42.880 -16.297   2.197  1.00  0.00     0.219 C 
HETATM   29  C   UNL     1      43.019 -13.917   2.656  1.00  0.00     0.145 C 
HETATM   30  O   UNL     1      43.092 -16.080   1.001  1.00  0.00    -0.273 OA
HETATM   31  C   UNL     1      43.572 -12.870   3.645  1.00  0.00     0.143 C 
BRANCH  28  32
HETATM   32  C   UNL     1      42.494 -17.703   2.632  1.00  0.00     0.103 C 
BRANCH  32  33
HETATM   33  C   UNL     1      43.689 -18.652   2.682  1.00  0.00     0.005 C 
HETATM   34  C   UNL     1      43.405 -20.018   2.080  1.00  0.00     0.005 C 
ENDBRANCH  32  33
ENDBRANCH  28  32
ENDBRANCH   1  24
TORSDOF 8
ENDMDL
MODEL 8
REMARK VINA RESULT:      -7.4      1.923      2.406
REMARK  8 active torsions:
REMARK  status: ('A' for Active; 'I' for Inactive)
REMARK    1  A    between atoms: C_2  and  C_3 
REMARK    2  A    between atoms: C_3  and  C_4 
REMARK       I    between atoms: C_4  and  N_5 
REMARK    3  A    between atoms: N_8  and  C_9 
REMARK    4  A    between atoms: C_12  and  N_13 
REMARK    5  A    between atoms: N_13  and  C_14 
REMARK    6  A    between atoms: C_14  and  N_15 
REMARK       I    between atoms: N_15  and  C_16 
REMARK    7  A    between atoms: C_16  and  C_17 
REMARK    8  A    between atoms: C_21  and  O_22 
ROOT
HETATM    1  C   UNL     1      41.720 -10.158   6.038  1.00  0.00     0.030 A 
HETATM    2  C   UNL     1      41.992 -11.535   6.010  1.00  0.00     0.031 A 
HETATM    3  C   UNL     1      42.053 -12.274   4.818  1.00  0.00     0.032 A 
HETATM    4  C   UNL     1      41.882 -11.654   3.589  1.00  0.00     0.034 A 
HETATM    5  C   UNL     1      41.706 -10.272   3.576  1.00  0.00     0.032 A 
HETATM    6  C   UNL     1      41.610  -9.545   4.779  1.00  0.00     0.031 A 
ENDROOT
BRANCH   4   7
HETATM    7  N   UNL     1      41.958 -12.335   2.356  1.00  0.00    -0.333 N 
HETATM    8  H   UNL     1      42.495 -11.866   1.626  1.00  0.00     0.168 HD
BRANCH   7   9
HETATM    9  C   UNL     1      41.339 -13.492   1.949  1.00  0.00     0.179 C 
HETATM   10  S   UNL     1      40.087 -13.689   0.854  1.00  0.00    -0.040 SA
BRANCH   9  11
HETATM   11  N   UNL     1      41.841 -14.661   2.487  1.00  0.00    -0.299 N 
HETATM   12  C   UNL     1      43.078 -15.262   2.304  1.00  0.00     0.257 C 
HETATM   13  O   UNL     1      43.933 -14.875   1.517  1.00  0.00    -0.267 OA
HETATM   14  H   UNL     1      41.223 -15.051   3.186  1.00  0.00     0.171 HD
BRANCH  12  15
HETATM   15  C   UNL     1      43.324 -16.446   3.166  1.00  0.00     0.034 A 
HETATM   16  C   UNL     1      43.313 -16.283   4.552  1.00  0.00     0.044 A 
HETATM   17  C   UNL     1      43.483 -17.397   5.379  1.00  0.00     0.068 A 
HETATM   18 CL   UNL     1      43.422 -17.146   7.090  1.00  0.00    -0.081 Cl
HETATM   19  C   UNL     1      43.682 -18.680   4.837  1.00  0.00     0.089 A 
HETATM   20  C   UNL     1      43.723 -18.823   3.445  1.00  0.00     0.039 A 
HETATM   21  C   UNL     1      43.548 -17.712   2.613  1.00  0.00     0.020 A 
BRANCH  19  22
HETATM   22  O   UNL     1      43.826 -19.713   5.725  1.00  0.00    -0.354 OA
HETATM   23  C   UNL     1      44.374 -20.933   5.243  1.00  0.00     0.210 C 
ENDBRANCH  19  22
ENDBRANCH  12  15
ENDBRANCH   9  11
ENDBRANCH   7   9
ENDBRANCH   4   7
BRANCH   1  24
HETATM   24  N   UNL     1      41.658  -9.452   7.252  1.00  0.00    -0.378 N 
HETATM   25  C   UNL     1      42.865  -9.491   8.113  1.00  0.00     0.143 C 
HETATM   26  C   UNL     1      42.847  -8.342   9.134  1.00  0.00     0.145 C 
HETATM   27  N   UNL     1      41.621  -8.293   9.931  1.00  0.00    -0.349 N 
HETATM   28  C   UNL     1      41.514  -7.619  11.142  1.00  0.00     0.219 C 
HETATM   29  C   UNL     1      40.384  -8.435   9.154  1.00  0.00     0.145 C 
HETATM   30  O   UNL     1      40.423  -7.428  11.685  1.00  0.00    -0.273 OA
HETATM   31  C   UNL     1      40.418  -9.523   8.061  1.00  0.00     0.143 C 
BRANCH  28  32
HETATM   32  C   UNL     1      42.775  -7.117  11.829  1.00  0.00     0.103 C 
BRANCH  32  33
HETATM   33  C   UNL     1      43.159  -7.959  13.043  1.00  0.00     0.005 C 
HETATM   34  C   UNL     1      42.754  -7.335  14.368  1.00  0.00     0.005 C 
ENDBRANCH  32  33
ENDBRANCH  28  32
ENDBRANCH   1  24
TORSDOF 8
ENDMDL
MODEL 9
REMARK VINA RESULT:      -7.4      5.293     11.775
REMARK  8 active torsions:
REMARK  status: ('A' for Active; 'I' for Inactive)
REMARK    1  A    between atoms: C_2  and  C_3 
REMARK    2  A    between atoms: C_3  and  C_4 
REMARK       I    between atoms: C_4  and  N_5 
REMARK    3  A    between atoms: N_8  and  C_9 
REMARK    4  A    between atoms: C_12  and  N_13 
REMARK    5  A    between atoms: N_13  and  C_14 
REMARK    6  A    between atoms: C_14  and  N_15 
REMARK       I    between atoms: N_15  and  C_16 
REMARK    7  A    between atoms: C_16  and  C_17 
REMARK    8  A    between atoms: C_21  and  O_22 
ROOT
HETATM    1  C   UNL     1      42.797 -12.105   6.175  1.00  0.00     0.030 A 
HETATM    2  C   UNL     1      41.752 -11.167   6.149  1.00  0.00     0.031 A 
HETATM    3  C   UNL     1      41.699 -10.066   7.019  1.00  0.00     0.032 A 
HETATM    4  C   UNL     1      42.716  -9.833   7.934  1.00  0.00     0.034 A 
HETATM    5  C   UNL     1      43.813 -10.690   7.919  1.00  0.00     0.032 A 
HETATM    6  C   UNL     1      43.841 -11.812   7.068  1.00  0.00     0.031 A 
ENDROOT
BRANCH   4   7
HETATM    7  N   UNL     1      42.732  -8.732   8.815  1.00  0.00    -0.333 N 
HETATM    8  H   UNL     1      42.732  -7.813   8.373  1.00  0.00     0.168 HD
BRANCH   7   9
HETATM    9  C   UNL     1      42.846  -8.701  10.184  1.00  0.00     0.179 C 
HETATM   10  S   UNL     1      44.116  -9.211  11.150  1.00  0.00    -0.040 SA
BRANCH   9  11
HETATM   11  N   UNL     1      41.781  -8.137  10.860  1.00  0.00    -0.299 N 
HETATM   12  C   UNL     1      40.436  -8.479  10.839  1.00  0.00     0.257 C 
HETATM   13  O   UNL     1      39.941  -9.323  10.103  1.00  0.00    -0.267 OA
HETATM   14  H   UNL     1      42.083  -7.442  11.530  1.00  0.00     0.171 HD
BRANCH  12  15
HETATM   15  C   UNL     1      39.595  -7.739  11.815  1.00  0.00     0.034 A 
HETATM   16  C   UNL     1      40.089  -7.525  13.102  1.00  0.00     0.044 A 
HETATM   17  C   UNL     1      39.337  -6.779  14.015  1.00  0.00     0.068 A 
HETATM   18 CL   UNL     1      40.012  -6.509  15.584  1.00  0.00    -0.081 Cl
HETATM   19  C   UNL     1      38.080  -6.255  13.661  1.00  0.00     0.089 A 
HETATM   20  C   UNL     1      37.583  -6.506  12.377  1.00  0.00     0.039 A 
HETATM   21  C   UNL     1      38.334  -7.246  11.458  1.00  0.00     0.020 A 
BRANCH  19  22
HETATM   22  O   UNL     1      37.421  -5.526  14.616  1.00  0.00    -0.354 OA
HETATM   23  C   UNL     1      37.213  -4.142  14.371  1.00  0.00     0.210 C 
ENDBRANCH  19  22
ENDBRANCH  12  15
ENDBRANCH   9  11
ENDBRANCH   7   9
ENDBRANCH   4   7
BRANCH   1  24
HETATM   24  N   UNL     1      42.814 -13.200   5.294  1.00  0.00    -0.378 N 
HETATM   25  C   UNL     1      43.452 -14.445   5.784  1.00  0.00     0.143 C 
HETATM   26  C   UNL     1      43.000 -15.657   4.951  1.00  0.00     0.145 C 
HETATM   27  N   UNL     1      43.201 -15.480   3.513  1.00  0.00    -0.349 N 
HETATM   28  C   UNL     1      43.237 -16.531   2.604  1.00  0.00     0.219 C 
HETATM   29  C   UNL     1      42.754 -14.184   2.990  1.00  0.00     0.145 C 
HETATM   30  O   UNL     1      43.206 -16.338   1.386  1.00  0.00    -0.273 OA
HETATM   31  C   UNL     1      43.120 -12.965   3.862  1.00  0.00     0.143 C 
BRANCH  28  32
HETATM   32  C   UNL     1      43.335 -17.959   3.120  1.00  0.00     0.103 C 
BRANCH  32  33
HETATM   33  C   UNL     1      42.989 -18.995   2.054  1.00  0.00     0.005 C 
HETATM   34  C   UNL     1      43.674 -20.335   2.263  1.00  0.00     0.005 C 
ENDBRANCH  32  33
ENDBRANCH  28  32
ENDBRANCH   1  24
TORSDOF 8
ENDMDL
MODEL 10
REMARK VINA RESULT:      -7.4      3.997      6.383
REMARK  8 active torsions:
REMARK  status: ('A' for Active; 'I' for Inactive)
REMARK    1  A    between atoms: C_2  and  C_3 
REMARK    2  A    between atoms: C_3  and  C_4 
REMARK       I    between atoms: C_4  and  N_5 
REMARK    3  A    between atoms: N_8  and  C_9 
REMARK    4  A    between atoms: C_12  and  N_13 
REMARK    5  A    between atoms: N_13  and  C_14 
REMARK    6  A    between atoms: C_14  and  N_15 
REMARK       I    between atoms: N_15  and  C_16 
REMARK    7  A    between atoms: C_16  and  C_17 
REMARK    8  A    between atoms: C_21  and  O_22 
ROOT
HETATM    1  C   UNL     1      42.179  -8.685  11.543  1.00  0.00     0.030 A 
HETATM    2  C   UNL     1      41.551  -8.279  10.354  1.00  0.00     0.031 A 
HETATM    3  C   UNL     1      41.952  -8.734   9.089  1.00  0.00     0.032 A 
HETATM    4  C   UNL     1      42.983  -9.654   8.959  1.00  0.00     0.034 A 
HETATM    5  C   UNL     1      43.564 -10.149  10.123  1.00  0.00     0.032 A 
HETATM    6  C   UNL     1      43.178  -9.660  11.387  1.00  0.00     0.031 A 
ENDROOT
BRANCH   4   7
HETATM    7  N   UNL     1      43.416 -10.169   7.719  1.00  0.00    -0.333 N 
HETATM    8  H   UNL     1      42.816  -9.957   6.921  1.00  0.00     0.168 HD
BRANCH   7   9
HETATM    9  C   UNL     1      44.474 -10.995   7.428  1.00  0.00     0.179 C 
HETATM   10  S   UNL     1      46.116 -10.676   7.509  1.00  0.00    -0.040 SA
BRANCH   9  11
HETATM   11  N   UNL     1      44.142 -12.282   7.050  1.00  0.00    -0.299 N 
HETATM   12  C   UNL     1      43.081 -12.734   6.279  1.00  0.00     0.257 C 
HETATM   13  O   UNL     1      42.167 -12.030   5.867  1.00  0.00    -0.267 OA
HETATM   14  H   UNL     1      44.855 -12.949   7.313  1.00  0.00     0.171 HD
BRANCH  12  15
HETATM   15  C   UNL     1      43.125 -14.183   5.954  1.00  0.00     0.034 A 
HETATM   16  C   UNL     1      42.887 -14.585   4.640  1.00  0.00     0.044 A 
HETATM   17  C   UNL     1      42.983 -15.938   4.303  1.00  0.00     0.068 A 
HETATM   18 CL   UNL     1      42.717 -16.379   2.652  1.00  0.00    -0.081 Cl
HETATM   19  C   UNL     1      43.300 -16.906   5.274  1.00  0.00     0.089 A 
HETATM   20  C   UNL     1      43.505 -16.491   6.596  1.00  0.00     0.039 A 
HETATM   21  C   UNL     1      43.416 -15.137   6.936  1.00  0.00     0.020 A 
BRANCH  19  22
HETATM   22  O   UNL     1      43.386 -18.206   4.850  1.00  0.00    -0.354 OA
HETATM   23  C   UNL     1      44.648 -18.675   4.395  1.00  0.00     0.210 C 
ENDBRANCH  19  22
ENDBRANCH  12  15
ENDBRANCH   9  11
ENDBRANCH   7   9
ENDBRANCH   4   7
BRANCH   1  24
HETATM   24  N   UNL     1      41.754  -8.202  12.792  1.00  0.00    -0.378 N 
HETATM   25  C   UNL     1      42.128  -9.002  13.983  1.00  0.00     0.143 C 
HETATM   26  C   UNL     1      42.027  -8.158  15.265  1.00  0.00     0.145 C 
HETATM   27  N   UNL     1      40.723  -7.517  15.436  1.00  0.00    -0.349 N 
HETATM   28  C   UNL     1      40.254  -7.034  16.652  1.00  0.00     0.219 C 
HETATM   29  C   UNL     1      40.206  -6.857  14.232  1.00  0.00     0.145 C 
HETATM   30  O   UNL     1      39.248  -6.325  16.725  1.00  0.00    -0.273 OA
HETATM   31  C   UNL     1      40.383  -7.652  12.922  1.00  0.00     0.143 C 
BRANCH  28  32
HETATM   32  C   UNL     1      40.990  -7.402  17.933  1.00  0.00     0.103 C 
BRANCH  32  33
HETATM   33  C   UNL     1      40.108  -7.280  19.173  1.00  0.00     0.005 C 
HETATM   34  C   UNL     1      39.391  -8.569  19.538  1.00  0.00     0.005 C 
ENDBRANCH  32  33
ENDBRANCH  28  32
ENDBRANCH   1  24
TORSDOF 8
ENDMDL
