MODEL 1
REMARK VINA RESULT:      -8.2      0.000      0.000
REMARK  4 active torsions:
REMARK  status: ('A' for Active; 'I' for Inactive)
REMARK    1  A    between atoms: C_2  and  C_3 
REMARK    2  A    between atoms: C_11  and  C_12 
REMARK       I    between atoms: C_12  and  N_13 
REMARK    3  A    between atoms: N_13  and  C_14 
REMARK    4  A    between atoms: C_21  and  C_22 
REMARK       I    between atoms: C_22  and  N_23 
ROOT
HETATM    1  C   UNL     1      40.362 -15.154   3.595  1.00  0.00     0.035 A 
HETATM    2  C   UNL     1      40.454 -13.773   3.390  1.00  0.00     0.046 A 
HETATM    3  C   UNL     1      40.761 -13.273   2.105  1.00  0.00     0.030 A 
HETATM    4  C   UNL     1      40.953 -14.168   1.061  1.00  0.00     0.063 A 
HETATM    5  N   UNL     1      41.225 -13.396  -0.034  1.00  0.00    -0.277 N 
HETATM    6  H   UNL     1      41.416 -13.714  -0.977  1.00  0.00     0.189 HD
HETATM    7  N   UNL     1      41.227 -12.073   0.205  1.00  0.00    -0.168 NA
HETATM    8  C   UNL     1      40.941 -11.982   1.522  1.00  0.00     0.156 A 
HETATM    9  C   UNL     1      40.855 -15.549   1.220  1.00  0.00     0.034 A 
HETATM   10  C   UNL     1      40.554 -16.018   2.506  1.00  0.00     0.032 A 
ENDROOT
BRANCH   1  11
HETATM   11  N   UNL     1      40.051 -15.768   4.822  1.00  0.00    -0.324 N 
HETATM   12  C   UNL     1      40.444 -15.572   6.112  1.00  0.00     0.246 C 
HETATM   13  O   UNL     1      39.891 -16.205   7.010  1.00  0.00    -0.268 OA
HETATM   14  H   UNL     1      39.355 -16.506   4.787  1.00  0.00     0.169 HD
BRANCH  12  15
HETATM   15  C   UNL     1      41.576 -14.673   6.417  1.00  0.00     0.082 C 
HETATM   16  C   UNL     1      42.865 -15.035   6.280  1.00  0.00    -0.043 C 
HETATM   17  C   UNL     1      43.998 -14.087   6.549  1.00  0.00     0.049 C 
BRANCH  16  18
HETATM   18  C   UNL     1      43.261 -16.393   5.869  1.00  0.00     0.009 A 
HETATM   19  C   UNL     1      43.632 -16.669   4.546  1.00  0.00     0.130 A 
HETATM   20  F   UNL     1      43.666 -15.687   3.632  1.00  0.00    -0.205 F 
HETATM   21  C   UNL     1      43.976 -17.958   4.150  1.00  0.00     0.085 A 
HETATM   22  C   UNL     1      43.957 -18.977   5.091  1.00  0.00     0.119 A 
HETATM   23  F   UNL     1      44.289 -20.222   4.723  1.00  0.00    -0.206 F 
HETATM   24  C   UNL     1      43.601 -18.730   6.415  1.00  0.00     0.043 A 
HETATM   25  C   UNL     1      43.250 -17.437   6.806  1.00  0.00     0.018 A 
ENDBRANCH  16  18
ENDBRANCH  12  15
ENDBRANCH   1  11
BRANCH   8  26
HETATM   26  C   UNL     1      40.847 -10.682   2.202  1.00  0.00     0.270 C 
HETATM   27  N   UNL     1      42.045 -10.201   2.654  1.00  0.00    -0.365 N 
HETATM   28  H   UNL     1      42.880 -10.755   2.501  1.00  0.00     0.159 HD
HETATM   29  H   UNL     1      42.082  -9.319   3.141  1.00  0.00     0.159 HD
HETATM   30  O   UNL     1      39.804 -10.060   2.366  1.00  0.00    -0.266 OA
ENDBRANCH   8  26
TORSDOF 4
ENDMDL
MODEL 2
REMARK VINA RESULT:      -8.1      2.866      3.972
REMARK  4 active torsions:
REMARK  status: ('A' for Active; 'I' for Inactive)
REMARK    1  A    between atoms: C_2  and  C_3 
REMARK    2  A    between atoms: C_11  and  C_12 
REMARK       I    between atoms: C_12  and  N_13 
REMARK    3  A    between atoms: N_13  and  C_14 
REMARK    4  A    between atoms: C_21  and  C_22 
REMARK       I    between atoms: C_22  and  N_23 
ROOT
HETATM    1  C   UNL     1      40.920 -12.756   1.723  1.00  0.00     0.035 A 
HETATM    2  C   UNL     1      40.662 -13.345   0.481  1.00  0.00     0.046 A 
HETATM    3  C   UNL     1      39.465 -13.041  -0.205  1.00  0.00     0.030 A 
HETATM    4  C   UNL     1      38.569 -12.147   0.365  1.00  0.00     0.063 A 
HETATM    5  N   UNL     1      37.532 -12.056  -0.521  1.00  0.00    -0.277 N 
HETATM    6  H   UNL     1      36.696 -11.490  -0.432  1.00  0.00     0.189 HD
HETATM    7  N   UNL     1      37.673 -12.815  -1.621  1.00  0.00    -0.168 NA
HETATM    8  C   UNL     1      38.864 -13.429  -1.441  1.00  0.00     0.156 A 
HETATM    9  C   UNL     1      38.796 -11.527   1.593  1.00  0.00     0.034 A 
HETATM   10  C   UNL     1      39.989 -11.850   2.254  1.00  0.00     0.032 A 
ENDROOT
BRANCH   1  11
HETATM   11  N   UNL     1      42.079 -12.970   2.492  1.00  0.00    -0.324 N 
HETATM   12  C   UNL     1      42.357 -13.691   3.616  1.00  0.00     0.246 C 
HETATM   13  O   UNL     1      43.524 -13.783   3.994  1.00  0.00    -0.268 OA
HETATM   14  H   UNL     1      42.929 -12.535   2.148  1.00  0.00     0.169 HD
BRANCH  12  15
HETATM   15  C   UNL     1      41.262 -14.281   4.412  1.00  0.00     0.082 C 
HETATM   16  C   UNL     1      41.139 -15.602   4.634  1.00  0.00    -0.043 C 
HETATM   17  C   UNL     1      40.044 -16.174   5.488  1.00  0.00     0.049 C 
BRANCH  16  18
HETATM   18  C   UNL     1      42.061 -16.589   4.044  1.00  0.00     0.009 A 
HETATM   19  C   UNL     1      41.920 -17.004   2.713  1.00  0.00     0.130 A 
HETATM   20  F   UNL     1      40.958 -16.481   1.938  1.00  0.00    -0.205 F 
HETATM   21  C   UNL     1      42.771 -17.959   2.165  1.00  0.00     0.085 A 
HETATM   22  C   UNL     1      43.777 -18.496   2.956  1.00  0.00     0.119 A 
HETATM   23  F   UNL     1      44.604 -19.414   2.438  1.00  0.00    -0.206 F 
HETATM   24  C   UNL     1      43.946 -18.095   4.279  1.00  0.00     0.043 A 
HETATM   25  C   UNL     1      43.085 -17.141   4.826  1.00  0.00     0.018 A 
ENDBRANCH  16  18
ENDBRANCH  12  15
ENDBRANCH   1  11
BRANCH   8  26
HETATM   26  C   UNL     1      39.405 -14.368  -2.434  1.00  0.00     0.270 C 
HETATM   27  N   UNL     1      38.656 -15.501  -2.596  1.00  0.00    -0.365 N 
HETATM   28  H   UNL     1      37.817 -15.614  -2.038  1.00  0.00     0.159 HD
HETATM   29  H   UNL     1      38.951 -16.210  -3.250  1.00  0.00     0.159 HD
HETATM   30  O   UNL     1      40.433 -14.182  -3.075  1.00  0.00    -0.266 OA
ENDBRANCH   8  26
TORSDOF 4
ENDMDL
MODEL 3
REMARK VINA RESULT:      -8.1      3.112      4.773
REMARK  4 active torsions:
REMARK  status: ('A' for Active; 'I' for Inactive)
REMARK    1  A    between atoms: C_2  and  C_3 
REMARK    2  A    between atoms: C_11  and  C_12 
REMARK       I    between atoms: C_12  and  N_13 
REMARK    3  A    between atoms: N_13  and  C_14 
REMARK    4  A    between atoms: C_21  and  C_22 
REMARK       I    between atoms: C_22  and  N_23 
ROOT
HETATM    1  C   UNL     1      41.235 -14.244   0.906  1.00  0.00     0.035 A 
HETATM    2  C   UNL     1      40.561 -14.567  -0.278  1.00  0.00     0.046 A 
HETATM    3  C   UNL     1      39.455 -13.789  -0.689  1.00  0.00     0.030 A 
HETATM    4  C   UNL     1      39.067 -12.705   0.085  1.00  0.00     0.063 A 
HETATM    5  N   UNL     1      37.994 -12.160  -0.564  1.00  0.00    -0.277 N 
HETATM    6  H   UNL     1      37.453 -11.350  -0.284  1.00  0.00     0.189 HD
HETATM    7  N   UNL     1      37.648 -12.796  -1.696  1.00  0.00    -0.168 NA
HETATM    8  C   UNL     1      38.543 -13.804  -1.788  1.00  0.00     0.156 A 
HETATM    9  C   UNL     1      39.721 -12.341   1.261  1.00  0.00     0.034 A 
HETATM   10  C   UNL     1      40.811 -13.132   1.649  1.00  0.00     0.032 A 
ENDROOT
BRANCH   1  11
HETATM   11  N   UNL     1      42.353 -14.933   1.410  1.00  0.00    -0.324 N 
HETATM   12  C   UNL     1      42.522 -15.949   2.303  1.00  0.00     0.246 C 
HETATM   13  O   UNL     1      43.643 -16.434   2.454  1.00  0.00    -0.268 OA
HETATM   14  H   UNL     1      43.252 -14.668   1.022  1.00  0.00     0.169 HD
BRANCH  12  15
HETATM   15  C   UNL     1      41.391 -16.404   3.137  1.00  0.00     0.082 C 
HETATM   16  C   UNL     1      41.190 -15.986   4.401  1.00  0.00    -0.043 C 
HETATM   17  C   UNL     1      40.005 -16.425   5.212  1.00  0.00     0.049 C 
BRANCH  16  18
HETATM   18  C   UNL     1      42.126 -15.079   5.088  1.00  0.00     0.009 A 
HETATM   19  C   UNL     1      43.221 -15.578   5.807  1.00  0.00     0.130 A 
HETATM   20  F   UNL     1      43.456 -16.898   5.853  1.00  0.00    -0.205 F 
HETATM   21  C   UNL     1      44.086 -14.724   6.482  1.00  0.00     0.085 A 
HETATM   22  C   UNL     1      43.858 -13.356   6.430  1.00  0.00     0.119 A 
HETATM   23  F   UNL     1      44.687 -12.524   7.073  1.00  0.00    -0.206 F 
HETATM   24  C   UNL     1      42.784 -12.832   5.715  1.00  0.00     0.043 A 
HETATM   25  C   UNL     1      41.913 -13.694   5.045  1.00  0.00     0.018 A 
ENDBRANCH  16  18
ENDBRANCH  12  15
ENDBRANCH   1  11
BRANCH   8  26
HETATM   26  C   UNL     1      38.516 -14.759  -2.905  1.00  0.00     0.270 C 
HETATM   27  N   UNL     1      38.324 -16.059  -2.523  1.00  0.00    -0.365 N 
HETATM   28  H   UNL     1      38.224 -16.266  -1.536  1.00  0.00     0.159 HD
HETATM   29  H   UNL     1      38.299 -16.789  -3.218  1.00  0.00     0.159 HD
HETATM   30  O   UNL     1      38.652 -14.451  -4.084  1.00  0.00    -0.266 OA
ENDBRANCH   8  26
TORSDOF 4
ENDMDL
MODEL 4
REMARK VINA RESULT:      -8.0      2.960      4.520
REMARK  4 active torsions:
REMARK  status: ('A' for Active; 'I' for Inactive)
REMARK    1  A    between atoms: C_2  and  C_3 
REMARK    2  A    between atoms: C_11  and  C_12 
REMARK       I    between atoms: C_12  and  N_13 
REMARK    3  A    between atoms: N_13  and  C_14 
REMARK    4  A    between atoms: C_21  and  C_22 
REMARK       I    between atoms: C_22  and  N_23 
ROOT
HETATM    1  C   UNL     1      40.567 -13.245   5.499  1.00  0.00     0.035 A 
HETATM    2  C   UNL     1      41.825 -12.841   5.960  1.00  0.00     0.046 A 
HETATM    3  C   UNL     1      42.021 -11.508   6.387  1.00  0.00     0.030 A 
HETATM    4  C   UNL     1      40.951 -10.625   6.353  1.00  0.00     0.063 A 
HETATM    5  N   UNL     1      41.444  -9.439   6.822  1.00  0.00    -0.277 N 
HETATM    6  H   UNL     1      40.941  -8.567   6.938  1.00  0.00     0.189 HD
HETATM    7  N   UNL     1      42.745  -9.472   7.160  1.00  0.00    -0.168 NA
HETATM    8  C   UNL     1      43.115 -10.746   6.898  1.00  0.00     0.156 A 
HETATM    9  C   UNL     1      39.680 -10.991   5.915  1.00  0.00     0.034 A 
HETATM   10  C   UNL     1      39.514 -12.317   5.494  1.00  0.00     0.032 A 
ENDROOT
BRANCH   1  11
HETATM   11  N   UNL     1      40.247 -14.543   5.062  1.00  0.00    -0.324 N 
HETATM   12  C   UNL     1      40.713 -15.357   4.071  1.00  0.00     0.246 C 
HETATM   13  O   UNL     1      40.308 -16.517   4.010  1.00  0.00    -0.268 OA
HETATM   14  H   UNL     1      39.540 -15.033   5.599  1.00  0.00     0.169 HD
BRANCH  12  15
HETATM   15  C   UNL     1      41.625 -14.825   3.039  1.00  0.00     0.082 C 
HETATM   16  C   UNL     1      42.770 -15.435   2.680  1.00  0.00    -0.043 C 
HETATM   17  C   UNL     1      43.657 -14.901   1.592  1.00  0.00     0.049 C 
BRANCH  16  18
HETATM   18  C   UNL     1      43.246 -16.665   3.336  1.00  0.00     0.009 A 
HETATM   19  C   UNL     1      43.738 -16.641   4.648  1.00  0.00     0.130 A 
HETATM   20  F   UNL     1      43.751 -15.495   5.346  1.00  0.00    -0.205 F 
HETATM   21  C   UNL     1      44.217 -17.796   5.257  1.00  0.00     0.085 A 
HETATM   22  C   UNL     1      44.195 -18.988   4.549  1.00  0.00     0.119 A 
HETATM   23  F   UNL     1      44.650 -20.108   5.126  1.00  0.00    -0.206 F 
HETATM   24  C   UNL     1      43.703 -19.044   3.247  1.00  0.00     0.043 A 
HETATM   25  C   UNL     1      43.230 -17.881   2.637  1.00  0.00     0.018 A 
ENDBRANCH  16  18
ENDBRANCH  12  15
ENDBRANCH   1  11
BRANCH   8  26
HETATM   26  C   UNL     1      44.489 -11.212   7.130  1.00  0.00     0.270 C 
HETATM   27  N   UNL     1      45.226 -11.369   5.988  1.00  0.00    -0.365 N 
HETATM   28  H   UNL     1      44.789 -11.167   5.096  1.00  0.00     0.159 HD
HETATM   29  H   UNL     1      46.179 -11.693   6.045  1.00  0.00     0.159 HD
HETATM   30  O   UNL     1      44.962 -11.450   8.236  1.00  0.00    -0.266 OA
ENDBRANCH   8  26
TORSDOF 4
ENDMDL
MODEL 5
REMARK VINA RESULT:      -8.0      1.817      2.180
REMARK  4 active torsions:
REMARK  status: ('A' for Active; 'I' for Inactive)
REMARK    1  A    between atoms: C_2  and  C_3 
REMARK    2  A    between atoms: C_11  and  C_12 
REMARK       I    between atoms: C_12  and  N_13 
REMARK    3  A    between atoms: N_13  and  C_14 
REMARK    4  A    between atoms: C_21  and  C_22 
REMARK       I    between atoms: C_22  and  N_23 
ROOT
HETATM    1  C   UNL     1      39.967 -13.847   2.902  1.00  0.00     0.035 A 
HETATM    2  C   UNL     1      40.249 -12.673   2.193  1.00  0.00     0.046 A 
HETATM    3  C   UNL     1      40.511 -12.737   0.806  1.00  0.00     0.030 A 
HETATM    4  C   UNL     1      40.469 -13.969   0.168  1.00  0.00     0.063 A 
HETATM    5  N   UNL     1      40.755 -13.708  -1.144  1.00  0.00    -0.277 N 
HETATM    6  H   UNL     1      40.809 -14.375  -1.905  1.00  0.00     0.189 HD
HETATM    7  N   UNL     1      40.981 -12.411  -1.416  1.00  0.00    -0.168 NA
HETATM    8  C   UNL     1      40.832 -11.799  -0.221  1.00  0.00     0.156 A 
HETATM    9  C   UNL     1      40.176 -15.158   0.833  1.00  0.00     0.034 A 
HETATM   10  C   UNL     1      39.925 -15.067   2.209  1.00  0.00     0.032 A 
ENDROOT
BRANCH   1  11
HETATM   11  N   UNL     1      39.677 -13.908   4.277  1.00  0.00    -0.324 N 
HETATM   12  C   UNL     1      40.170 -13.281   5.383  1.00  0.00     0.246 C 
HETATM   13  O   UNL     1      39.618 -13.458   6.467  1.00  0.00    -0.268 OA
HETATM   14  H   UNL     1      38.914 -14.520   4.545  1.00  0.00     0.169 HD
BRANCH  12  15
HETATM   15  C   UNL     1      41.400 -12.468   5.292  1.00  0.00     0.082 C 
HETATM   16  C   UNL     1      42.634 -12.970   5.482  1.00  0.00    -0.043 C 
HETATM   17  C   UNL     1      43.872 -12.134   5.336  1.00  0.00     0.049 C 
BRANCH  16  18
HETATM   18  C   UNL     1      42.862 -14.375   5.863  1.00  0.00     0.009 A 
HETATM   19  C   UNL     1      43.020 -15.372   4.891  1.00  0.00     0.130 A 
HETATM   20  F   UNL     1      43.000 -15.056   3.587  1.00  0.00    -0.205 F 
HETATM   21  C   UNL     1      43.203 -16.703   5.250  1.00  0.00     0.085 A 
HETATM   22  C   UNL     1      43.237 -17.038   6.596  1.00  0.00     0.119 A 
HETATM   23  F   UNL     1      43.416 -18.316   6.954  1.00  0.00    -0.206 F 
HETATM   24  C   UNL     1      43.092 -16.067   7.584  1.00  0.00     0.043 A 
HETATM   25  C   UNL     1      42.901 -14.733   7.219  1.00  0.00     0.018 A 
ENDBRANCH  16  18
ENDBRANCH  12  15
ENDBRANCH   1  11
BRANCH   8  26
HETATM   26  C   UNL     1      41.000 -10.346  -0.074  1.00  0.00     0.270 C 
HETATM   27  N   UNL     1      39.856  -9.627  -0.285  1.00  0.00    -0.365 N 
HETATM   28  H   UNL     1      39.006 -10.125  -0.525  1.00  0.00     0.159 HD
HETATM   29  H   UNL     1      39.873  -8.622  -0.215  1.00  0.00     0.159 HD
HETATM   30  O   UNL     1      42.059  -9.796   0.210  1.00  0.00    -0.266 OA
ENDBRANCH   8  26
TORSDOF 4
ENDMDL
MODEL 6
REMARK VINA RESULT:      -7.9      2.855      4.095
REMARK  4 active torsions:
REMARK  status: ('A' for Active; 'I' for Inactive)
REMARK    1  A    between atoms: C_2  and  C_3 
REMARK    2  A    between atoms: C_11  and  C_12 
REMARK       I    between atoms: C_12  and  N_13 
REMARK    3  A    between atoms: N_13  and  C_14 
REMARK    4  A    between atoms: C_21  and  C_22 
REMARK       I    between atoms: C_22  and  N_23 
ROOT
HETATM    1  C   UNL     1      39.188 -12.735   2.227  1.00  0.00     0.035 A 
HETATM    2  C   UNL     1      39.390 -13.284   0.956  1.00  0.00     0.046 A 
HETATM    3  C   UNL     1      39.146 -12.500  -0.194  1.00  0.00     0.030 A 
HETATM    4  C   UNL     1      38.723 -11.188  -0.038  1.00  0.00     0.063 A 
HETATM    5  N   UNL     1      38.580 -10.698  -1.307  1.00  0.00    -0.277 N 
HETATM    6  H   UNL     1      38.286  -9.767  -1.577  1.00  0.00     0.189 HD
HETATM    7  N   UNL     1      38.874 -11.580  -2.278  1.00  0.00    -0.168 NA
HETATM    8  C   UNL     1      39.228 -12.697  -1.605  1.00  0.00     0.156 A 
HETATM    9  C   UNL     1      38.525 -10.598   1.210  1.00  0.00     0.034 A 
HETATM   10  C   UNL     1      38.770 -11.399   2.333  1.00  0.00     0.032 A 
ENDROOT
BRANCH   1  11
HETATM   11  N   UNL     1      39.409 -13.410   3.442  1.00  0.00    -0.324 N 
HETATM   12  C   UNL     1      40.332 -13.298   4.439  1.00  0.00     0.246 C 
HETATM   13  O   UNL     1      40.192 -13.967   5.462  1.00  0.00    -0.268 OA
HETATM   14  H   UNL     1      38.732 -14.126   3.684  1.00  0.00     0.169 HD
BRANCH  12  15
HETATM   15  C   UNL     1      41.526 -12.448   4.257  1.00  0.00     0.082 C 
HETATM   16  C   UNL     1      42.668 -12.888   3.697  1.00  0.00    -0.043 C 
HETATM   17  C   UNL     1      43.852 -11.991   3.478  1.00  0.00     0.049 C 
BRANCH  16  18
HETATM   18  C   UNL     1      42.847 -14.287   3.271  1.00  0.00     0.009 A 
HETATM   19  C   UNL     1      43.142 -15.294   4.199  1.00  0.00     0.130 A 
HETATM   20  F   UNL     1      43.232 -15.006   5.507  1.00  0.00    -0.205 F 
HETATM   21  C   UNL     1      43.342 -16.610   3.793  1.00  0.00     0.085 A 
HETATM   22  C   UNL     1      43.238 -16.920   2.445  1.00  0.00     0.119 A 
HETATM   23  F   UNL     1      43.426 -18.184   2.043  1.00  0.00    -0.206 F 
HETATM   24  C   UNL     1      42.938 -15.942   1.501  1.00  0.00     0.043 A 
HETATM   25  C   UNL     1      42.744 -14.621   1.912  1.00  0.00     0.018 A 
ENDBRANCH  16  18
ENDBRANCH  12  15
ENDBRANCH   1  11
BRANCH   8  26
HETATM   26  C   UNL     1      39.628 -13.925  -2.308  1.00  0.00     0.270 C 
HETATM   27  N   UNL     1      38.777 -14.979  -2.119  1.00  0.00    -0.365 N 
HETATM   28  H   UNL     1      37.965 -14.848  -1.528  1.00  0.00     0.159 HD
HETATM   29  H   UNL     1      38.973 -15.867  -2.554  1.00  0.00     0.159 HD
HETATM   30  O   UNL     1      40.631 -14.027  -3.006  1.00  0.00    -0.266 OA
ENDBRANCH   8  26
TORSDOF 4
ENDMDL
MODEL 7
REMARK VINA RESULT:      -7.7      3.501      6.503
REMARK  4 active torsions:
REMARK  status: ('A' for Active; 'I' for Inactive)
REMARK    1  A    between atoms: C_2  and  C_3 
REMARK    2  A    between atoms: C_11  and  C_12 
REMARK       I    between atoms: C_12  and  N_13 
REMARK    3  A    between atoms: N_13  and  C_14 
REMARK    4  A    between atoms: C_21  and  C_22 
REMARK       I    between atoms: C_22  and  N_23 
ROOT
HETATM    1  C   UNL     1      42.691 -14.469   2.807  1.00  0.00     0.035 A 
HETATM    2  C   UNL     1      42.626 -14.905   4.135  1.00  0.00     0.046 A 
HETATM    3  C   UNL     1      42.993 -16.231   4.457  1.00  0.00     0.030 A 
HETATM    4  C   UNL     1      43.428 -17.075   3.445  1.00  0.00     0.063 A 
HETATM    5  N   UNL     1      43.710 -18.264   4.059  1.00  0.00    -0.277 N 
HETATM    6  H   UNL     1      44.054 -19.113   3.625  1.00  0.00     0.189 HD
HETATM    7  N   UNL     1      43.495 -18.269   5.386  1.00  0.00    -0.168 NA
HETATM    8  C   UNL     1      43.054 -17.018   5.647  1.00  0.00     0.156 A 
HETATM    9  C   UNL     1      43.523 -16.675   2.113  1.00  0.00     0.034 A 
HETATM   10  C   UNL     1      43.148 -15.357   1.821  1.00  0.00     0.032 A 
ENDROOT
BRANCH   1  11
HETATM   11  N   UNL     1      42.365 -13.173   2.367  1.00  0.00    -0.324 N 
HETATM   12  C   UNL     1      42.835 -11.925   2.652  1.00  0.00     0.246 C 
HETATM   13  O   UNL     1      42.422 -10.967   2.000  1.00  0.00    -0.268 OA
HETATM   14  H   UNL     1      41.648 -13.112   1.652  1.00  0.00     0.169 HD
BRANCH  12  15
HETATM   15  C   UNL     1      43.762 -11.718   3.782  1.00  0.00     0.082 C 
HETATM   16  C   UNL     1      43.352 -11.457   5.037  1.00  0.00    -0.043 C 
HETATM   17  C   UNL     1      44.314 -11.299   6.179  1.00  0.00     0.049 C 
BRANCH  16  18
HETATM   18  C   UNL     1      41.929 -11.292   5.381  1.00  0.00     0.009 A 
HETATM   19  C   UNL     1      41.289 -10.054   5.238  1.00  0.00     0.130 A 
HETATM   20  F   UNL     1      41.957  -8.998   4.749  1.00  0.00    -0.205 F 
HETATM   21  C   UNL     1      39.954  -9.890   5.593  1.00  0.00     0.085 A 
HETATM   22  C   UNL     1      39.252 -10.979   6.087  1.00  0.00     0.119 A 
HETATM   23  F   UNL     1      37.965 -10.834   6.429  1.00  0.00    -0.206 F 
HETATM   24  C   UNL     1      39.859 -12.224   6.232  1.00  0.00     0.043 A 
HETATM   25  C   UNL     1      41.202 -12.382   5.881  1.00  0.00     0.018 A 
ENDBRANCH  16  18
ENDBRANCH  12  15
ENDBRANCH   1  11
BRANCH   8  26
HETATM   26  C   UNL     1      42.695 -16.597   7.008  1.00  0.00     0.270 C 
HETATM   27  N   UNL     1      43.668 -16.834   7.940  1.00  0.00    -0.365 N 
HETATM   28  H   UNL     1      44.531 -17.272   7.641  1.00  0.00     0.159 HD
HETATM   29  H   UNL     1      43.511 -16.587   8.905  1.00  0.00     0.159 HD
HETATM   30  O   UNL     1      41.627 -16.078   7.314  1.00  0.00    -0.266 OA
ENDBRANCH   8  26
TORSDOF 4
ENDMDL
MODEL 8
REMARK VINA RESULT:      -7.6      2.674      3.523
REMARK  4 active torsions:
REMARK  status: ('A' for Active; 'I' for Inactive)
REMARK    1  A    between atoms: C_2  and  C_3 
REMARK    2  A    between atoms: C_11  and  C_12 
REMARK       I    between atoms: C_12  and  N_13 
REMARK    3  A    between atoms: N_13  and  C_14 
REMARK    4  A    between atoms: C_21  and  C_22 
REMARK       I    between atoms: C_22  and  N_23 
ROOT
HETATM    1  C   UNL     1      40.049 -13.368   1.076  1.00  0.00     0.035 A 
HETATM    2  C   UNL     1      40.504 -12.164   0.525  1.00  0.00     0.046 A 
HETATM    3  C   UNL     1      40.759 -12.080  -0.862  1.00  0.00     0.030 A 
HETATM    4  C   UNL     1      40.539 -13.195  -1.657  1.00  0.00     0.063 A 
HETATM    5  N   UNL     1      40.866 -12.807  -2.927  1.00  0.00    -0.277 N 
HETATM    6  H   UNL     1      40.825 -13.367  -3.771  1.00  0.00     0.189 HD
HETATM    7  N   UNL     1      41.281 -11.532  -3.029  1.00  0.00    -0.168 NA
HETATM    8  C   UNL     1      41.219 -11.069  -1.760  1.00  0.00     0.156 A 
HETATM    9  C   UNL     1      40.072 -14.407  -1.151  1.00  0.00     0.034 A 
HETATM   10  C   UNL     1      39.831 -14.465   0.228  1.00  0.00     0.032 A 
ENDROOT
BRANCH   1  11
HETATM   11  N   UNL     1      39.748 -13.569   2.435  1.00  0.00    -0.324 N 
HETATM   12  C   UNL     1      40.248 -13.077   3.604  1.00  0.00     0.246 C 
HETATM   13  O   UNL     1      39.683 -13.356   4.661  1.00  0.00    -0.268 OA
HETATM   14  H   UNL     1      38.968 -14.187   2.632  1.00  0.00     0.169 HD
BRANCH  12  15
HETATM   15  C   UNL     1      41.497 -12.290   3.607  1.00  0.00     0.082 C 
HETATM   16  C   UNL     1      42.711 -12.829   3.390  1.00  0.00    -0.043 C 
HETATM   17  C   UNL     1      43.962 -12.000   3.349  1.00  0.00     0.049 C 
BRANCH  16  18
HETATM   18  C   UNL     1      42.905 -14.276   3.191  1.00  0.00     0.009 A 
HETATM   19  C   UNL     1      42.893 -15.163   4.276  1.00  0.00     0.130 A 
HETATM   20  F   UNL     1      42.668 -14.711   5.519  1.00  0.00    -0.205 F 
HETATM   21  C   UNL     1      43.108 -16.525   4.092  1.00  0.00     0.085 A 
HETATM   22  C   UNL     1      43.328 -17.004   2.808  1.00  0.00     0.119 A 
HETATM   23  F   UNL     1      43.533 -18.314   2.619  1.00  0.00    -0.206 F 
HETATM   24  C   UNL     1      43.337 -16.146   1.711  1.00  0.00     0.043 A 
HETATM   25  C   UNL     1      43.128 -14.779   1.901  1.00  0.00     0.018 A 
ENDBRANCH  16  18
ENDBRANCH  12  15
ENDBRANCH   1  11
BRANCH   8  26
HETATM   26  C   UNL     1      41.598  -9.690  -1.424  1.00  0.00     0.270 C 
HETATM   27  N   UNL     1      40.937  -8.737  -2.151  1.00  0.00    -0.365 N 
HETATM   28  H   UNL     1      40.264  -9.036  -2.847  1.00  0.00     0.159 HD
HETATM   29  H   UNL     1      41.136  -7.760  -1.998  1.00  0.00     0.159 HD
HETATM   30  O   UNL     1      42.429  -9.387  -0.576  1.00  0.00    -0.266 OA
ENDBRANCH   8  26
TORSDOF 4
ENDMDL
MODEL 9
REMARK VINA RESULT:      -7.6      2.100      2.582
REMARK  4 active torsions:
REMARK  status: ('A' for Active; 'I' for Inactive)
REMARK    1  A    between atoms: C_2  and  C_3 
REMARK    2  A    between atoms: C_11  and  C_12 
REMARK       I    between atoms: C_12  and  N_13 
REMARK    3  A    between atoms: N_13  and  C_14 
REMARK    4  A    between atoms: C_21  and  C_22 
REMARK       I    between atoms: C_22  and  N_23 
ROOT
HETATM    1  C   UNL     1      42.436 -13.152   3.461  1.00  0.00     0.035 A 
HETATM    2  C   UNL     1      41.191 -12.551   3.244  1.00  0.00     0.046 A 
HETATM    3  C   UNL     1      40.540 -12.716   2.000  1.00  0.00     0.030 A 
HETATM    4  C   UNL     1      41.146 -13.487   1.019  1.00  0.00     0.063 A 
HETATM    5  N   UNL     1      40.288 -13.462  -0.045  1.00  0.00    -0.277 N 
HETATM    6  H   UNL     1      40.406 -13.921  -0.941  1.00  0.00     0.189 HD
HETATM    7  N   UNL     1      39.172 -12.740   0.158  1.00  0.00    -0.168 NA
HETATM    8  C   UNL     1      39.313 -12.274   1.419  1.00  0.00     0.156 A 
HETATM    9  C   UNL     1      42.377 -14.115   1.201  1.00  0.00     0.034 A 
HETATM   10  C   UNL     1      43.003 -13.931   2.442  1.00  0.00     0.032 A 
ENDROOT
BRANCH   1  11
HETATM   11  N   UNL     1      43.172 -13.071   4.658  1.00  0.00    -0.324 N 
HETATM   12  C   UNL     1      42.995 -13.557   5.919  1.00  0.00     0.246 C 
HETATM   13  O   UNL     1      43.895 -13.419   6.746  1.00  0.00    -0.268 OA
HETATM   14  H   UNL     1      44.057 -12.578   4.604  1.00  0.00     0.169 HD
BRANCH  12  15
HETATM   15  C   UNL     1      41.707 -14.165   6.309  1.00  0.00     0.082 C 
HETATM   16  C   UNL     1      41.374 -15.438   6.023  1.00  0.00    -0.043 C 
HETATM   17  C   UNL     1      40.078 -16.049   6.473  1.00  0.00     0.049 C 
BRANCH  16  18
HETATM   18  C   UNL     1      42.250 -16.322   5.234  1.00  0.00     0.009 A 
HETATM   19  C   UNL     1      41.919 -16.685   3.922  1.00  0.00     0.130 A 
HETATM   20  F   UNL     1      40.807 -16.202   3.345  1.00  0.00    -0.205 F 
HETATM   21  C   UNL     1      42.729 -17.545   3.188  1.00  0.00     0.085 A 
HETATM   22  C   UNL     1      43.887 -18.039   3.771  1.00  0.00     0.119 A 
HETATM   23  F   UNL     1      44.677 -18.865   3.073  1.00  0.00    -0.206 F 
HETATM   24  C   UNL     1      44.246 -17.688   5.070  1.00  0.00     0.043 A 
HETATM   25  C   UNL     1      43.425 -16.830   5.806  1.00  0.00     0.018 A 
ENDBRANCH  16  18
ENDBRANCH  12  15
ENDBRANCH   1  11
BRANCH   8  26
HETATM   26  C   UNL     1      38.293 -11.420   2.043  1.00  0.00     0.270 C 
HETATM   27  N   UNL     1      37.039 -11.576   1.519  1.00  0.00    -0.365 N 
HETATM   28  H   UNL     1      36.906 -12.238   0.763  1.00  0.00     0.159 HD
HETATM   29  H   UNL     1      36.272 -11.027   1.876  1.00  0.00     0.159 HD
HETATM   30  O   UNL     1      38.514 -10.628   2.952  1.00  0.00    -0.266 OA
ENDBRANCH   8  26
TORSDOF 4
ENDMDL
MODEL 10
REMARK VINA RESULT:      -7.5     15.805     18.685
REMARK  4 active torsions:
REMARK  status: ('A' for Active; 'I' for Inactive)
REMARK    1  A    between atoms: C_2  and  C_3 
REMARK    2  A    between atoms: C_11  and  C_12 
REMARK       I    between atoms: C_12  and  N_13 
REMARK    3  A    between atoms: N_13  and  C_14 
REMARK    4  A    between atoms: C_21  and  C_22 
REMARK       I    between atoms: C_22  and  N_23 
ROOT
HETATM    1  C   UNL     1      47.237 -28.644  -2.022  1.00  0.00     0.035 A 
HETATM    2  C   UNL     1      48.377 -29.415  -2.278  1.00  0.00     0.046 A 
HETATM    3  C   UNL     1      49.266 -29.724  -1.225  1.00  0.00     0.030 A 
HETATM    4  C   UNL     1      48.981 -29.267   0.054  1.00  0.00     0.063 A 
HETATM    5  N   UNL     1      50.003 -29.724   0.840  1.00  0.00    -0.277 N 
HETATM    6  H   UNL     1      50.124 -29.581   1.836  1.00  0.00     0.189 HD
HETATM    7  N   UNL     1      50.931 -30.441   0.183  1.00  0.00    -0.168 NA
HETATM    8  C   UNL     1      50.488 -30.451  -1.094  1.00  0.00     0.156 A 
HETATM    9  C   UNL     1      47.849 -28.511   0.354  1.00  0.00     0.034 A 
HETATM   10  C   UNL     1      46.987 -28.214  -0.710  1.00  0.00     0.032 A 
ENDROOT
BRANCH   1  11
HETATM   11  N   UNL     1      46.275 -28.283  -2.983  1.00  0.00    -0.324 N 
HETATM   12  C   UNL     1      44.994 -28.673  -3.241  1.00  0.00     0.246 C 
HETATM   13  O   UNL     1      44.347 -28.074  -4.098  1.00  0.00    -0.268 OA
HETATM   14  H   UNL     1      46.542 -27.546  -3.627  1.00  0.00     0.169 HD
BRANCH  12  15
HETATM   15  C   UNL     1      44.423 -29.851  -2.558  1.00  0.00     0.082 C 
HETATM   16  C   UNL     1      44.547 -31.108  -3.024  1.00  0.00    -0.043 C 
HETATM   17  C   UNL     1      43.999 -32.295  -2.286  1.00  0.00     0.049 C 
BRANCH  16  18
HETATM   18  C   UNL     1      45.217 -31.411  -4.301  1.00  0.00     0.009 A 
HETATM   19  C   UNL     1      44.564 -31.214  -5.525  1.00  0.00     0.130 A 
HETATM   20  F   UNL     1      43.321 -30.711  -5.557  1.00  0.00    -0.205 F 
HETATM   21  C   UNL     1      45.185 -31.530  -6.729  1.00  0.00     0.085 A 
HETATM   22  C   UNL     1      46.475 -32.040  -6.707  1.00  0.00     0.119 A 
HETATM   23  F   UNL     1      47.084 -32.345  -7.860  1.00  0.00    -0.206 F 
HETATM   24  C   UNL     1      47.152 -32.237  -5.506  1.00  0.00     0.043 A 
HETATM   25  C   UNL     1      46.522 -31.925  -4.299  1.00  0.00     0.018 A 
ENDBRANCH  16  18
ENDBRANCH  12  15
ENDBRANCH   1  11
BRANCH   8  26
HETATM   26  C   UNL     1      51.228 -31.140  -2.161  1.00  0.00     0.270 C 
HETATM   27  N   UNL     1      52.226 -30.392  -2.721  1.00  0.00    -0.365 N 
HETATM   28  H   UNL     1      52.378 -29.450  -2.379  1.00  0.00     0.159 HD
HETATM   29  H   UNL     1      52.785 -30.776  -3.467  1.00  0.00     0.159 HD
HETATM   30  O   UNL     1      50.994 -32.283  -2.539  1.00  0.00    -0.266 OA
ENDBRANCH   8  26
TORSDOF 4
ENDMDL
