MODEL 1
REMARK VINA RESULT:      -8.3      0.000      0.000
REMARK  6 active torsions:
REMARK  status: ('A' for Active; 'I' for Inactive)
REMARK    1  A    between atoms: C_3  and  N_4 
REMARK    2  A    between atoms: N_4  and  C_5 
REMARK    3  A    between atoms: C_5  and  C_6 
REMARK    4  A    between atoms: N_8  and  C_10 
REMARK    5  A    between atoms: C_10  and  C_11 
REMARK    6  A    between atoms: C_12  and  C_13 
ROOT
HETATM    1  C   UNL     1      42.775 -15.898   5.956  1.00  0.00     0.031 C 
HETATM    2  C   UNL     1      42.943 -14.537   6.631  1.00  0.00     0.241 C 
HETATM    3  N   UNL     1      41.542 -13.961   6.700  1.00  0.00    -0.067 N 
HETATM    4  H   UNL     1      41.337 -13.740   7.685  1.00  0.00     0.280 HD
HETATM    5  C   UNL     1      40.575 -15.038   6.265  1.00  0.00     0.235 C 
HETATM    6  C   UNL     1      41.376 -16.321   6.399  1.00  0.00     0.035 C 
ENDROOT
BRANCH   3   7
HETATM    7  C   UNL     1      41.337 -12.656   5.962  1.00  0.00     0.277 C 
BRANCH   7   8
HETATM    8  C   UNL     1      42.407 -12.325   4.987  1.00  0.00     0.016 A 
HETATM    9  C   UNL     1      42.576 -12.898   3.681  1.00  0.00     0.102 A 
HETATM   10  N   UNL     1      43.657 -12.389   3.083  1.00  0.00    -0.174 NA
HETATM   11  N   UNL     1      44.136 -11.470   3.923  1.00  0.00    -0.288 N 
HETATM   12  H   UNL     1      44.947 -10.929   3.629  1.00  0.00     0.188 HD
HETATM   13  C   UNL     1      43.433 -11.400   5.091  1.00  0.00     0.120 A 
BRANCH   9  14
HETATM   14  C   UNL     1      41.744 -13.875   2.987  1.00  0.00     0.072 A 
HETATM   15  C   UNL     1      42.263 -15.114   2.603  1.00  0.00     0.132 A 
HETATM   16  F   UNL     1      43.561 -15.392   2.796  1.00  0.00    -0.205 F 
HETATM   17  C   UNL     1      41.466 -16.081   1.988  1.00  0.00     0.043 A 
HETATM   18  C   UNL     1      40.120 -15.815   1.746  1.00  0.00     0.006 A 
HETATM   19  C   UNL     1      39.586 -14.578   2.107  1.00  0.00     0.043 A 
HETATM   20  C   UNL     1      40.395 -13.620   2.720  1.00  0.00     0.132 A 
HETATM   21  F   UNL     1      39.856 -12.425   3.003  1.00  0.00    -0.205 F 
ENDBRANCH   9  14
ENDBRANCH   7   8
ENDBRANCH   3   7
BRANCH   1  22
HETATM   22  C   UNL     1      43.877 -16.892   6.348  1.00  0.00     0.127 C 
BRANCH  22  23
HETATM   23  N   UNL     1      44.644 -17.293   5.162  1.00  0.00    -0.376 N 
HETATM   24  H   UNL     1      45.643 -17.125   5.255  1.00  0.00     0.161 HD
BRANCH  23  25
HETATM   25  C   UNL     1      44.299 -18.454   4.479  1.00  0.00     0.100 A 
HETATM   26  C   UNL     1      44.012 -18.508   3.107  1.00  0.00     0.048 A 
HETATM   27  C   UNL     1      43.704 -19.725   2.498  1.00  0.00     0.005 A 
HETATM   28  C   UNL     1      43.695 -20.888   3.253  1.00  0.00     0.017 A 
HETATM   29  C   UNL     1      44.008 -20.806   4.599  1.00  0.00     0.089 A 
HETATM   30  N   UNL     1      44.302 -19.620   5.153  1.00  0.00    -0.353 N 
HETATM   31  H   UNL     1      44.551 -19.606   6.137  1.00  0.00     0.166 HD
ENDBRANCH  23  25
ENDBRANCH  22  23
ENDBRANCH   1  22
TORSDOF 6
ENDMDL
MODEL 2
REMARK VINA RESULT:      -8.2      2.486      6.244
REMARK  6 active torsions:
REMARK  status: ('A' for Active; 'I' for Inactive)
REMARK    1  A    between atoms: C_3  and  N_4 
REMARK    2  A    between atoms: N_4  and  C_5 
REMARK    3  A    between atoms: C_5  and  C_6 
REMARK    4  A    between atoms: N_8  and  C_10 
REMARK    5  A    between atoms: C_10  and  C_11 
REMARK    6  A    between atoms: C_12  and  C_13 
ROOT
HETATM    1  C   UNL     1      41.942 -14.117   5.650  1.00  0.00     0.031 C 
HETATM    2  C   UNL     1      40.941 -14.139   4.496  1.00  0.00     0.241 C 
HETATM    3  N   UNL     1      40.246 -15.483   4.609  1.00  0.00    -0.067 N 
HETATM    4  H   UNL     1      39.233 -15.312   4.678  1.00  0.00     0.280 HD
HETATM    5  C   UNL     1      40.688 -16.126   5.903  1.00  0.00     0.235 C 
HETATM    6  C   UNL     1      41.250 -14.970   6.711  1.00  0.00     0.035 C 
ENDROOT
BRANCH   3   7
HETATM    7  C   UNL     1      40.402 -16.399   3.415  1.00  0.00     0.277 C 
BRANCH   7   8
HETATM    8  C   UNL     1      41.515 -16.037   2.501  1.00  0.00     0.016 A 
HETATM    9  C   UNL     1      42.817 -16.641   2.465  1.00  0.00     0.102 A 
HETATM   10  N   UNL     1      43.579 -16.054   1.537  1.00  0.00    -0.174 NA
HETATM   11  N   UNL     1      42.794 -15.158   0.939  1.00  0.00    -0.288 N 
HETATM   12  H   UNL     1      43.181 -14.626   0.161  1.00  0.00     0.188 HD
HETATM   13  C   UNL     1      41.546 -15.092   1.489  1.00  0.00     0.120 A 
BRANCH   9  14
HETATM   14  C   UNL     1      43.341 -17.753   3.250  1.00  0.00     0.072 A 
HETATM   15  C   UNL     1      43.815 -17.552   4.550  1.00  0.00     0.132 A 
HETATM   16  F   UNL     1      43.868 -16.314   5.065  1.00  0.00    -0.205 F 
HETATM   17  C   UNL     1      44.267 -18.614   5.334  1.00  0.00     0.043 A 
HETATM   18  C   UNL     1      44.252 -19.909   4.820  1.00  0.00     0.006 A 
HETATM   19  C   UNL     1      43.799 -20.129   3.520  1.00  0.00     0.043 A 
HETATM   20  C   UNL     1      43.350 -19.057   2.747  1.00  0.00     0.132 A 
HETATM   21  F   UNL     1      42.972 -19.305   1.483  1.00  0.00    -0.205 F 
ENDBRANCH   9  14
ENDBRANCH   7   8
ENDBRANCH   3   7
BRANCH   1  22
HETATM   22  C   UNL     1      42.272 -12.693   6.118  1.00  0.00     0.127 C 
BRANCH  22  23
HETATM   23  N   UNL     1      43.720 -12.456   6.040  1.00  0.00    -0.376 N 
HETATM   24  H   UNL     1      44.051 -12.310   5.089  1.00  0.00     0.161 HD
BRANCH  23  25
HETATM   25  C   UNL     1      44.343 -11.680   7.010  1.00  0.00     0.100 A 
HETATM   26  C   UNL     1      45.642 -11.162   6.894  1.00  0.00     0.048 A 
HETATM   27  C   UNL     1      46.178 -10.366   7.906  1.00  0.00     0.005 A 
HETATM   28  C   UNL     1      45.415 -10.074   9.027  1.00  0.00     0.017 A 
HETATM   29  C   UNL     1      44.128 -10.577   9.101  1.00  0.00     0.089 A 
HETATM   30  N   UNL     1      43.642 -11.338   8.108  1.00  0.00    -0.353 N 
HETATM   31  H   UNL     1      42.684 -11.667   8.188  1.00  0.00     0.166 HD
ENDBRANCH  23  25
ENDBRANCH  22  23
ENDBRANCH   1  22
TORSDOF 6
ENDMDL
MODEL 3
REMARK VINA RESULT:      -8.1      1.672      2.148
REMARK  6 active torsions:
REMARK  status: ('A' for Active; 'I' for Inactive)
REMARK    1  A    between atoms: C_3  and  N_4 
REMARK    2  A    between atoms: N_4  and  C_5 
REMARK    3  A    between atoms: C_5  and  C_6 
REMARK    4  A    between atoms: N_8  and  C_10 
REMARK    5  A    between atoms: C_10  and  C_11 
REMARK    6  A    between atoms: C_12  and  C_13 
ROOT
HETATM    1  C   UNL     1      42.236 -16.075   6.254  1.00  0.00     0.031 C 
HETATM    2  C   UNL     1      42.856 -14.777   6.768  1.00  0.00     0.241 C 
HETATM    3  N   UNL     1      41.744 -13.751   6.676  1.00  0.00    -0.067 N 
HETATM    4  H   UNL     1      41.611 -13.341   7.611  1.00  0.00     0.280 HD
HETATM    5  C   UNL     1      40.469 -14.478   6.314  1.00  0.00     0.235 C 
HETATM    6  C   UNL     1      40.770 -15.927   6.654  1.00  0.00     0.035 C 
ENDROOT
BRANCH   3   7
HETATM    7  C   UNL     1      42.021 -12.569   5.774  1.00  0.00     0.277 C 
BRANCH   7   8
HETATM    8  C   UNL     1      40.943 -12.274   4.794  1.00  0.00     0.016 A 
HETATM    9  C   UNL     1      40.777 -12.883   3.505  1.00  0.00     0.102 A 
HETATM   10  N   UNL     1      39.717 -12.364   2.877  1.00  0.00    -0.174 NA
HETATM   11  N   UNL     1      39.168 -11.509   3.740  1.00  0.00    -0.288 N 
HETATM   12  H   UNL     1      38.311 -11.034   3.464  1.00  0.00     0.188 HD
HETATM   13  C   UNL     1      39.873 -11.402   4.905  1.00  0.00     0.120 A 
BRANCH   9  14
HETATM   14  C   UNL     1      41.560 -13.939   2.874  1.00  0.00     0.072 A 
HETATM   15  C   UNL     1      41.012 -15.207   2.659  1.00  0.00     0.132 A 
HETATM   16  F   UNL     1      39.779 -15.494   3.104  1.00  0.00    -0.205 F 
HETATM   17  C   UNL     1      41.728 -16.211   2.007  1.00  0.00     0.043 A 
HETATM   18  C   UNL     1      43.022 -15.957   1.557  1.00  0.00     0.006 A 
HETATM   19  C   UNL     1      43.594 -14.704   1.776  1.00  0.00     0.043 A 
HETATM   20  C   UNL     1      42.865 -13.709   2.430  1.00  0.00     0.132 A 
HETATM   21  F   UNL     1      43.471 -12.535   2.667  1.00  0.00    -0.205 F 
ENDBRANCH   9  14
ENDBRANCH   7   8
ENDBRANCH   3   7
BRANCH   1  22
HETATM   22  C   UNL     1      42.914 -17.324   6.835  1.00  0.00     0.127 C 
BRANCH  22  23
HETATM   23  N   UNL     1      44.083 -17.689   6.024  1.00  0.00    -0.376 N 
HETATM   24  H   UNL     1      44.952 -17.695   6.554  1.00  0.00     0.161 HD
BRANCH  23  25
HETATM   25  C   UNL     1      43.969 -18.687   5.062  1.00  0.00     0.100 A 
HETATM   26  C   UNL     1      43.914 -18.449   3.681  1.00  0.00     0.048 A 
HETATM   27  C   UNL     1      43.830 -19.514   2.784  1.00  0.00     0.005 A 
HETATM   28  C   UNL     1      43.815 -20.816   3.263  1.00  0.00     0.017 A 
HETATM   29  C   UNL     1      43.897 -21.019   4.630  1.00  0.00     0.089 A 
HETATM   30  N   UNL     1      43.979 -19.972   5.465  1.00  0.00    -0.353 N 
HETATM   31  H   UNL     1      44.063 -20.164   6.458  1.00  0.00     0.166 HD
ENDBRANCH  23  25
ENDBRANCH  22  23
ENDBRANCH   1  22
TORSDOF 6
ENDMDL
MODEL 4
REMARK VINA RESULT:      -8.1      2.627      6.480
REMARK  6 active torsions:
REMARK  status: ('A' for Active; 'I' for Inactive)
REMARK    1  A    between atoms: C_3  and  N_4 
REMARK    2  A    between atoms: N_4  and  C_5 
REMARK    3  A    between atoms: C_5  and  C_6 
REMARK    4  A    between atoms: N_8  and  C_10 
REMARK    5  A    between atoms: C_10  and  C_11 
REMARK    6  A    between atoms: C_12  and  C_13 
ROOT
HETATM    1  C   UNL     1      41.879 -11.950   4.855  1.00  0.00     0.031 C 
HETATM    2  C   UNL     1      42.872 -13.053   4.494  1.00  0.00     0.241 C 
HETATM    3  N   UNL     1      43.239 -12.789   3.046  1.00  0.00    -0.067 N 
HETATM    4  H   UNL     1      44.262 -12.693   2.989  1.00  0.00     0.280 HD
HETATM    5  C   UNL     1      42.634 -11.462   2.649  1.00  0.00     0.235 C 
HETATM    6  C   UNL     1      42.336 -10.787   3.976  1.00  0.00     0.035 C 
ENDROOT
BRANCH   3   7
HETATM    7  C   UNL     1      42.902 -13.900   2.076  1.00  0.00     0.277 C 
BRANCH   7   8
HETATM    8  C   UNL     1      41.588 -14.550   2.314  1.00  0.00     0.016 A 
HETATM    9  C   UNL     1      41.366 -15.801   2.982  1.00  0.00     0.102 A 
HETATM   10  N   UNL     1      40.063 -16.099   2.997  1.00  0.00    -0.174 NA
HETATM   11  N   UNL     1      39.449 -15.059   2.433  1.00  0.00    -0.288 N 
HETATM   12  H   UNL     1      38.432 -15.071   2.386  1.00  0.00     0.188 HD
HETATM   13  C   UNL     1      40.318 -14.104   1.988  1.00  0.00     0.120 A 
BRANCH   9  14
HETATM   14  C   UNL     1      42.331 -16.692   3.618  1.00  0.00     0.072 A 
HETATM   15  C   UNL     1      42.421 -16.774   5.011  1.00  0.00     0.132 A 
HETATM   16  F   UNL     1      41.674 -15.971   5.784  1.00  0.00    -0.205 F 
HETATM   17  C   UNL     1      43.299 -17.660   5.635  1.00  0.00     0.043 A 
HETATM   18  C   UNL     1      44.111 -18.488   4.862  1.00  0.00     0.006 A 
HETATM   19  C   UNL     1      44.048 -18.411   3.471  1.00  0.00     0.043 A 
HETATM   20  C   UNL     1      43.165 -17.519   2.860  1.00  0.00     0.132 A 
HETATM   21  F   UNL     1      43.174 -17.439   1.521  1.00  0.00    -0.205 F 
ENDBRANCH   9  14
ENDBRANCH   7   8
ENDBRANCH   3   7
BRANCH   1  22
HETATM   22  C   UNL     1      41.874 -11.628   6.356  1.00  0.00     0.127 C 
BRANCH  22  23
HETATM   23  N   UNL     1      43.036 -12.244   7.010  1.00  0.00    -0.376 N 
HETATM   24  H   UNL     1      43.431 -13.017   6.480  1.00  0.00     0.161 HD
BRANCH  23  25
HETATM   25  C   UNL     1      43.962 -11.441   7.667  1.00  0.00     0.100 A 
HETATM   26  C   UNL     1      45.250 -11.164   7.185  1.00  0.00     0.048 A 
HETATM   27  C   UNL     1      46.104 -10.321   7.896  1.00  0.00     0.005 A 
HETATM   28  C   UNL     1      45.669  -9.744   9.080  1.00  0.00     0.017 A 
HETATM   29  C   UNL     1      44.384 -10.016   9.517  1.00  0.00     0.089 A 
HETATM   30  N   UNL     1      43.588 -10.830   8.807  1.00  0.00    -0.353 N 
HETATM   31  H   UNL     1      42.644 -10.984   9.148  1.00  0.00     0.166 HD
ENDBRANCH  23  25
ENDBRANCH  22  23
ENDBRANCH   1  22
TORSDOF 6
ENDMDL
MODEL 5
REMARK VINA RESULT:      -8.0      3.022      6.429
REMARK  6 active torsions:
REMARK  status: ('A' for Active; 'I' for Inactive)
REMARK    1  A    between atoms: C_3  and  N_4 
REMARK    2  A    between atoms: N_4  and  C_5 
REMARK    3  A    between atoms: C_5  and  C_6 
REMARK    4  A    between atoms: N_8  and  C_10 
REMARK    5  A    between atoms: C_10  and  C_11 
REMARK    6  A    between atoms: C_12  and  C_13 
ROOT
HETATM    1  C   UNL     1      40.789 -13.404   2.191  1.00  0.00     0.031 C 
HETATM    2  C   UNL     1      41.134 -12.648   3.473  1.00  0.00     0.241 C 
HETATM    3  N   UNL     1      42.572 -13.025   3.773  1.00  0.00    -0.067 N 
HETATM    4  H   UNL     1      43.121 -12.157   3.840  1.00  0.00     0.280 HD
HETATM    5  C   UNL     1      43.102 -13.809   2.595  1.00  0.00     0.235 C 
HETATM    6  C   UNL     1      42.135 -13.476   1.473  1.00  0.00     0.035 C 
ENDROOT
BRANCH   3   7
HETATM    7  C   UNL     1      42.800 -13.726   5.095  1.00  0.00     0.277 C 
BRANCH   7   8
HETATM    8  C   UNL     1      41.690 -14.617   5.519  1.00  0.00     0.016 A 
HETATM    9  C   UNL     1      41.543 -16.007   5.192  1.00  0.00     0.102 A 
HETATM   10  N   UNL     1      40.415 -16.494   5.718  1.00  0.00    -0.174 NA
HETATM   11  N   UNL     1      39.882 -15.494   6.420  1.00  0.00    -0.288 N 
HETATM   12  H   UNL     1      39.027 -15.677   6.941  1.00  0.00     0.188 HD
HETATM   13  C   UNL     1      40.599 -14.335   6.323  1.00  0.00     0.120 A 
BRANCH   9  14
HETATM   14  C   UNL     1      42.435 -16.877   4.434  1.00  0.00     0.072 A 
HETATM   15  C   UNL     1      43.565 -17.442   5.033  1.00  0.00     0.132 A 
HETATM   16  F   UNL     1      43.889 -17.125   6.296  1.00  0.00    -0.205 F 
HETATM   17  C   UNL     1      44.398 -18.319   4.338  1.00  0.00     0.043 A 
HETATM   18  C   UNL     1      44.108 -18.647   3.015  1.00  0.00     0.006 A 
HETATM   19  C   UNL     1      42.995 -18.082   2.394  1.00  0.00     0.043 A 
HETATM   20  C   UNL     1      42.170 -17.205   3.101  1.00  0.00     0.132 A 
HETATM   21  F   UNL     1      41.141 -16.643   2.450  1.00  0.00    -0.205 F 
ENDBRANCH   9  14
ENDBRANCH   7   8
ENDBRANCH   3   7
BRANCH   1  22
HETATM   22  C   UNL     1      39.687 -12.713   1.376  1.00  0.00     0.127 C 
BRANCH  22  23
HETATM   23  N   UNL     1      40.147 -12.476   0.001  1.00  0.00    -0.376 N 
HETATM   24  H   UNL     1      41.160 -12.497  -0.092  1.00  0.00     0.161 HD
BRANCH  23  25
HETATM   25  C   UNL     1      39.442 -13.026  -1.064  1.00  0.00     0.100 A 
HETATM   26  C   UNL     1      39.978 -13.950  -1.973  1.00  0.00     0.048 A 
HETATM   27  C   UNL     1      39.188 -14.474  -2.996  1.00  0.00     0.005 A 
HETATM   28  C   UNL     1      37.860 -14.088  -3.105  1.00  0.00     0.017 A 
HETATM   29  C   UNL     1      37.353 -13.194  -2.177  1.00  0.00     0.089 A 
HETATM   30  N   UNL     1      38.141 -12.711  -1.204  1.00  0.00    -0.353 N 
HETATM   31  H   UNL     1      37.724 -12.078  -0.528  1.00  0.00     0.166 HD
ENDBRANCH  23  25
ENDBRANCH  22  23
ENDBRANCH   1  22
TORSDOF 6
ENDMDL
MODEL 6
REMARK VINA RESULT:      -8.0      3.748      7.229
REMARK  6 active torsions:
REMARK  status: ('A' for Active; 'I' for Inactive)
REMARK    1  A    between atoms: C_3  and  N_4 
REMARK    2  A    between atoms: N_4  and  C_5 
REMARK    3  A    between atoms: C_5  and  C_6 
REMARK    4  A    between atoms: N_8  and  C_10 
REMARK    5  A    between atoms: C_10  and  C_11 
REMARK    6  A    between atoms: C_12  and  C_13 
ROOT
HETATM    1  C   UNL     1      43.489 -11.268   6.640  1.00  0.00     0.031 C 
HETATM    2  C   UNL     1      42.179 -11.512   5.892  1.00  0.00     0.241 C 
HETATM    3  N   UNL     1      42.306 -12.915   5.331  1.00  0.00    -0.067 N 
HETATM    4  H   UNL     1      41.506 -13.467   5.669  1.00  0.00     0.280 HD
HETATM    5  C   UNL     1      43.560 -13.533   5.905  1.00  0.00     0.235 C 
HETATM    6  C   UNL     1      43.870 -12.668   7.115  1.00  0.00     0.035 C 
ENDROOT
BRANCH   3   7
HETATM    7  C   UNL     1      42.237 -13.022   3.823  1.00  0.00     0.277 C 
BRANCH   7   8
HETATM    8  C   UNL     1      41.097 -13.826   3.313  1.00  0.00     0.016 A 
HETATM    9  C   UNL     1      41.067 -15.253   3.154  1.00  0.00     0.102 A 
HETATM   10  N   UNL     1      39.893 -15.641   2.646  1.00  0.00    -0.174 NA
HETATM   11  N   UNL     1      39.158 -14.533   2.546  1.00  0.00    -0.288 N 
HETATM   12  H   UNL     1      38.199 -14.623   2.215  1.00  0.00     0.188 HD
HETATM   13  C   UNL     1      39.838 -13.408   2.918  1.00  0.00     0.120 A 
BRANCH   9  14
HETATM   14  C   UNL     1      42.087 -16.241   3.487  1.00  0.00     0.072 A 
HETATM   15  C   UNL     1      42.247 -16.691   4.801  1.00  0.00     0.132 A 
HETATM   16  F   UNL     1      41.515 -16.157   5.791  1.00  0.00    -0.205 F 
HETATM   17  C   UNL     1      43.180 -17.675   5.127  1.00  0.00     0.043 A 
HETATM   18  C   UNL     1      43.977 -18.231   4.127  1.00  0.00     0.006 A 
HETATM   19  C   UNL     1      43.844 -17.784   2.813  1.00  0.00     0.043 A 
HETATM   20  C   UNL     1      42.907 -16.798   2.502  1.00  0.00     0.132 A 
HETATM   21  F   UNL     1      42.849 -16.360   1.235  1.00  0.00    -0.205 F 
ENDBRANCH   9  14
ENDBRANCH   7   8
ENDBRANCH   3   7
BRANCH   1  22
HETATM   22  C   UNL     1      43.339 -10.247   7.776  1.00  0.00     0.127 C 
BRANCH  22  23
HETATM   23  N   UNL     1      43.554 -10.899   9.075  1.00  0.00    -0.376 N 
HETATM   24  H   UNL     1      44.342 -11.542   9.074  1.00  0.00     0.161 HD
BRANCH  23  25
HETATM   25  C   UNL     1      43.384 -10.171  10.247  1.00  0.00     0.100 A 
HETATM   26  C   UNL     1      43.554  -8.782  10.346  1.00  0.00     0.048 A 
HETATM   27  C   UNL     1      43.332  -8.128  11.558  1.00  0.00     0.005 A 
HETATM   28  C   UNL     1      42.928  -8.856  12.667  1.00  0.00     0.017 A 
HETATM   29  C   UNL     1      42.743 -10.221  12.531  1.00  0.00     0.089 A 
HETATM   30  N   UNL     1      42.963 -10.819  11.350  1.00  0.00    -0.353 N 
HETATM   31  H   UNL     1      42.792 -11.818  11.285  1.00  0.00     0.166 HD
ENDBRANCH  23  25
ENDBRANCH  22  23
ENDBRANCH   1  22
TORSDOF 6
ENDMDL
MODEL 7
REMARK VINA RESULT:      -7.9      3.214      6.921
REMARK  6 active torsions:
REMARK  status: ('A' for Active; 'I' for Inactive)
REMARK    1  A    between atoms: C_3  and  N_4 
REMARK    2  A    between atoms: N_4  and  C_5 
REMARK    3  A    between atoms: C_5  and  C_6 
REMARK    4  A    between atoms: N_8  and  C_10 
REMARK    5  A    between atoms: C_10  and  C_11 
REMARK    6  A    between atoms: C_12  and  C_13 
ROOT
HETATM    1  C   UNL     1      40.258 -14.111   1.968  1.00  0.00     0.031 C 
HETATM    2  C   UNL     1      41.491 -14.278   2.855  1.00  0.00     0.241 C 
HETATM    3  N   UNL     1      41.551 -15.762   3.162  1.00  0.00    -0.067 N 
HETATM    4  H   UNL     1      42.473 -16.112   2.864  1.00  0.00     0.280 HD
HETATM    5  C   UNL     1      40.508 -16.454   2.315  1.00  0.00     0.235 C 
HETATM    6  C   UNL     1      40.196 -15.444   1.225  1.00  0.00     0.035 C 
ENDROOT
BRANCH   3   7
HETATM    7  C   UNL     1      41.455 -16.129   4.627  1.00  0.00     0.277 C 
BRANCH   7   8
HETATM    8  C   UNL     1      42.737 -16.033   5.371  1.00  0.00     0.016 A 
HETATM    9  C   UNL     1      43.726 -17.066   5.499  1.00  0.00     0.102 A 
HETATM   10  N   UNL     1      44.743 -16.648   6.259  1.00  0.00    -0.174 NA
HETATM   11  N   UNL     1      44.473 -15.377   6.557  1.00  0.00    -0.288 N 
HETATM   12  H   UNL     1      45.158 -14.857   7.102  1.00  0.00     0.188 HD
HETATM   13  C   UNL     1      43.271 -14.958   6.062  1.00  0.00     0.120 A 
BRANCH   9  14
HETATM   14  C   UNL     1      43.748 -18.401   4.911  1.00  0.00     0.072 A 
HETATM   15  C   UNL     1      43.911 -18.574   3.533  1.00  0.00     0.132 A 
HETATM   16  F   UNL     1      43.970 -17.508   2.721  1.00  0.00    -0.205 F 
HETATM   17  C   UNL     1      43.990 -19.845   2.962  1.00  0.00     0.043 A 
HETATM   18  C   UNL     1      43.904 -20.974   3.774  1.00  0.00     0.006 A 
HETATM   19  C   UNL     1      43.724 -20.823   5.148  1.00  0.00     0.043 A 
HETATM   20  C   UNL     1      43.647 -19.546   5.706  1.00  0.00     0.132 A 
HETATM   21  F   UNL     1      43.420 -19.445   7.024  1.00  0.00    -0.205 F 
ENDBRANCH   9  14
ENDBRANCH   7   8
ENDBRANCH   3   7
BRANCH   1  22
HETATM   22  C   UNL     1      40.358 -12.890   1.042  1.00  0.00     0.127 C 
BRANCH  22  23
HETATM   23  N   UNL     1      39.077 -12.667   0.358  1.00  0.00    -0.376 N 
HETATM   24  H   UNL     1      38.672 -11.756   0.554  1.00  0.00     0.161 HD
BRANCH  23  25
HETATM   25  C   UNL     1      38.905 -13.124  -0.944  1.00  0.00     0.100 A 
HETATM   26  C   UNL     1      39.938 -13.626  -1.749  1.00  0.00     0.048 A 
HETATM   27  C   UNL     1      39.668 -14.093  -3.035  1.00  0.00     0.005 A 
HETATM   28  C   UNL     1      38.366 -14.072  -3.515  1.00  0.00     0.017 A 
HETATM   29  C   UNL     1      37.364 -13.595  -2.687  1.00  0.00     0.089 A 
HETATM   30  N   UNL     1      37.659 -13.156  -1.454  1.00  0.00    -0.353 N 
HETATM   31  H   UNL     1      36.892 -12.838  -0.869  1.00  0.00     0.166 HD
ENDBRANCH  23  25
ENDBRANCH  22  23
ENDBRANCH   1  22
TORSDOF 6
ENDMDL
MODEL 8
REMARK VINA RESULT:      -7.7      3.008      6.380
REMARK  6 active torsions:
REMARK  status: ('A' for Active; 'I' for Inactive)
REMARK    1  A    between atoms: C_3  and  N_4 
REMARK    2  A    between atoms: N_4  and  C_5 
REMARK    3  A    between atoms: C_5  and  C_6 
REMARK    4  A    between atoms: N_8  and  C_10 
REMARK    5  A    between atoms: C_10  and  C_11 
REMARK    6  A    between atoms: C_12  and  C_13 
ROOT
HETATM    1  C   UNL     1      41.133 -14.798   1.909  1.00  0.00     0.031 C 
HETATM    2  C   UNL     1      41.142 -13.285   2.120  1.00  0.00     0.241 C 
HETATM    3  N   UNL     1      42.532 -12.972   2.638  1.00  0.00    -0.067 N 
HETATM    4  H   UNL     1      42.955 -12.272   2.012  1.00  0.00     0.280 HD
HETATM    5  C   UNL     1      43.360 -14.232   2.536  1.00  0.00     0.235 C 
HETATM    6  C   UNL     1      42.588 -15.095   1.554  1.00  0.00     0.035 C 
ENDROOT
BRANCH   3   7
HETATM    7  C   UNL     1      42.589 -12.342   4.013  1.00  0.00     0.277 C 
BRANCH   7   8
HETATM    8  C   UNL     1      41.460 -12.709   4.906  1.00  0.00     0.016 A 
HETATM    9  C   UNL     1      41.331 -13.924   5.659  1.00  0.00     0.102 A 
HETATM   10  N   UNL     1      40.179 -13.935   6.335  1.00  0.00    -0.174 NA
HETATM   11  N   UNL     1      39.610 -12.752   6.099  1.00  0.00    -0.288 N 
HETATM   12  H   UNL     1      38.730 -12.543   6.566  1.00  0.00     0.188 HD
HETATM   13  C   UNL     1      40.329 -11.980   5.232  1.00  0.00     0.120 A 
BRANCH   9  14
HETATM   14  C   UNL     1      42.262 -15.042   5.775  1.00  0.00     0.072 A 
HETATM   15  C   UNL     1      43.494 -14.884   6.416  1.00  0.00     0.132 A 
HETATM   16  F   UNL     1      43.873 -13.677   6.865  1.00  0.00    -0.205 F 
HETATM   17  C   UNL     1      44.372 -15.955   6.585  1.00  0.00     0.043 A 
HETATM   18  C   UNL     1      44.023 -17.217   6.106  1.00  0.00     0.006 A 
HETATM   19  C   UNL     1      42.806 -17.391   5.449  1.00  0.00     0.043 A 
HETATM   20  C   UNL     1      41.938 -16.310   5.287  1.00  0.00     0.132 A 
HETATM   21  F   UNL     1      40.801 -16.510   4.603  1.00  0.00    -0.205 F 
ENDBRANCH   9  14
ENDBRANCH   7   8
ENDBRANCH   3   7
BRANCH   1  22
HETATM   22  C   UNL     1      40.130 -15.238   0.834  1.00  0.00     0.127 C 
BRANCH  22  23
HETATM   23  N   UNL     1      40.457 -14.609  -0.452  1.00  0.00    -0.376 N 
HETATM   24  H   UNL     1      41.248 -15.043  -0.921  1.00  0.00     0.161 HD
BRANCH  23  25
HETATM   25  C   UNL     1      39.432 -14.184  -1.291  1.00  0.00     0.100 A 
HETATM   26  C   UNL     1      39.074 -14.823  -2.488  1.00  0.00     0.048 A 
HETATM   27  C   UNL     1      38.010 -14.344  -3.252  1.00  0.00     0.005 A 
HETATM   28  C   UNL     1      37.294 -13.239  -2.818  1.00  0.00     0.017 A 
HETATM   29  C   UNL     1      37.654 -12.647  -1.619  1.00  0.00     0.089 A 
HETATM   30  N   UNL     1      38.682 -13.134  -0.907  1.00  0.00    -0.353 N 
HETATM   31  H   UNL     1      38.898 -12.687  -0.021  1.00  0.00     0.166 HD
ENDBRANCH  23  25
ENDBRANCH  22  23
ENDBRANCH   1  22
TORSDOF 6
ENDMDL
MODEL 9
REMARK VINA RESULT:      -7.6      2.687      6.149
REMARK  6 active torsions:
REMARK  status: ('A' for Active; 'I' for Inactive)
REMARK    1  A    between atoms: C_3  and  N_4 
REMARK    2  A    between atoms: N_4  and  C_5 
REMARK    3  A    between atoms: C_5  and  C_6 
REMARK    4  A    between atoms: N_8  and  C_10 
REMARK    5  A    between atoms: C_10  and  C_11 
REMARK    6  A    between atoms: C_12  and  C_13 
ROOT
HETATM    1  C   UNL     1      40.935 -13.905   3.340  1.00  0.00     0.031 C 
HETATM    2  C   UNL     1      40.352 -15.313   3.450  1.00  0.00     0.241 C 
HETATM    3  N   UNL     1      40.239 -15.572   4.940  1.00  0.00    -0.067 N 
HETATM    4  H   UNL     1      39.259 -15.812   5.148  1.00  0.00     0.280 HD
HETATM    5  C   UNL     1      40.554 -14.282   5.661  1.00  0.00     0.235 C 
HETATM    6  C   UNL     1      40.390 -13.218   4.590  1.00  0.00     0.035 C 
ENDROOT
BRANCH   3   7
HETATM    7  C   UNL     1      41.040 -16.746   5.459  1.00  0.00     0.277 C 
BRANCH   7   8
HETATM    8  C   UNL     1      42.468 -16.445   5.733  1.00  0.00     0.016 A 
HETATM    9  C   UNL     1      43.603 -17.146   5.202  1.00  0.00     0.102 A 
HETATM   10  N   UNL     1      44.738 -16.625   5.677  1.00  0.00    -0.174 NA
HETATM   11  N   UNL     1      44.373 -15.585   6.426  1.00  0.00    -0.288 N 
HETATM   12  H   UNL     1      45.107 -15.019   6.849  1.00  0.00     0.188 HD
HETATM   13  C   UNL     1      43.018 -15.438   6.509  1.00  0.00     0.120 A 
BRANCH   9  14
HETATM   14  C   UNL     1      43.642 -18.255   4.255  1.00  0.00     0.072 A 
HETATM   15  C   UNL     1      43.861 -19.564   4.694  1.00  0.00     0.132 A 
HETATM   16  F   UNL     1      44.119 -19.808   5.988  1.00  0.00    -0.205 F 
HETATM   17  C   UNL     1      43.847 -20.643   3.809  1.00  0.00     0.043 A 
HETATM   18  C   UNL     1      43.611 -20.422   2.453  1.00  0.00     0.006 A 
HETATM   19  C   UNL     1      43.406 -19.121   1.993  1.00  0.00     0.043 A 
HETATM   20  C   UNL     1      43.424 -18.052   2.890  1.00  0.00     0.132 A 
HETATM   21  F   UNL     1      43.275 -16.813   2.397  1.00  0.00    -0.205 F 
ENDBRANCH   9  14
ENDBRANCH   7   8
ENDBRANCH   3   7
BRANCH   1  22
HETATM   22  C   UNL     1      40.546 -13.206   2.029  1.00  0.00     0.127 C 
BRANCH  22  23
HETATM   23  N   UNL     1      40.031 -14.187   1.065  1.00  0.00    -0.376 N 
HETATM   24  H   UNL     1      39.170 -14.634   1.369  1.00  0.00     0.161 HD
BRANCH  23  25
HETATM   25  C   UNL     1      40.111 -13.920  -0.297  1.00  0.00     0.100 A 
HETATM   26  C   UNL     1      39.379 -14.601  -1.280  1.00  0.00     0.048 A 
HETATM   27  C   UNL     1      39.498 -14.246  -2.624  1.00  0.00     0.005 A 
HETATM   28  C   UNL     1      40.337 -13.202  -2.986  1.00  0.00     0.017 A 
HETATM   29  C   UNL     1      41.027 -12.531  -1.990  1.00  0.00     0.089 A 
HETATM   30  N   UNL     1      40.887 -12.898  -0.707  1.00  0.00    -0.353 N 
HETATM   31  H   UNL     1      41.390 -12.364  -0.005  1.00  0.00     0.166 HD
ENDBRANCH  23  25
ENDBRANCH  22  23
ENDBRANCH   1  22
TORSDOF 6
ENDMDL
MODEL 10
REMARK VINA RESULT:      -7.6      1.875      3.900
REMARK  6 active torsions:
REMARK  status: ('A' for Active; 'I' for Inactive)
REMARK    1  A    between atoms: C_3  and  N_4 
REMARK    2  A    between atoms: N_4  and  C_5 
REMARK    3  A    between atoms: C_5  and  C_6 
REMARK    4  A    between atoms: N_8  and  C_10 
REMARK    5  A    between atoms: C_10  and  C_11 
REMARK    6  A    between atoms: C_12  and  C_13 
ROOT
HETATM    1  C   UNL     1      42.730 -15.856   1.782  1.00  0.00     0.031 C 
HETATM    2  C   UNL     1      42.715 -15.159   3.141  1.00  0.00     0.241 C 
HETATM    3  N   UNL     1      42.161 -13.775   2.864  1.00  0.00    -0.067 N 
HETATM    4  H   UNL     1      41.339 -13.635   3.467  1.00  0.00     0.280 HD
HETATM    5  C   UNL     1      41.683 -13.745   1.430  1.00  0.00     0.235 C 
HETATM    6  C   UNL     1      41.546 -15.212   1.063  1.00  0.00     0.035 C 
ENDROOT
BRANCH   3   7
HETATM    7  C   UNL     1      43.085 -12.625   3.198  1.00  0.00     0.277 C 
BRANCH   7   8
HETATM    8  C   UNL     1      42.601 -11.743   4.291  1.00  0.00     0.016 A 
HETATM    9  C   UNL     1      42.185 -12.160   5.600  1.00  0.00     0.102 A 
HETATM   10  N   UNL     1      41.785 -11.108   6.321  1.00  0.00    -0.174 NA
HETATM   11  N   UNL     1      41.997 -10.041   5.552  1.00  0.00    -0.288 N 
HETATM   12  H   UNL     1      41.794  -9.122   5.941  1.00  0.00     0.188 HD
HETATM   13  C   UNL     1      42.472 -10.364   4.312  1.00  0.00     0.120 A 
BRANCH   9  14
HETATM   14  C   UNL     1      42.181 -13.497   6.185  1.00  0.00     0.072 A 
HETATM   15  C   UNL     1      41.005 -14.252   6.238  1.00  0.00     0.132 A 
HETATM   16  F   UNL     1      39.844 -13.724   5.822  1.00  0.00    -0.205 F 
HETATM   17  C   UNL     1      40.996 -15.552   6.743  1.00  0.00     0.043 A 
HETATM   18  C   UNL     1      42.179 -16.122   7.211  1.00  0.00     0.006 A 
HETATM   19  C   UNL     1      43.359 -15.379   7.182  1.00  0.00     0.043 A 
HETATM   20  C   UNL     1      43.353 -14.079   6.674  1.00  0.00     0.132 A 
HETATM   21  F   UNL     1      44.498 -13.381   6.714  1.00  0.00    -0.205 F 
ENDBRANCH   9  14
ENDBRANCH   7   8
ENDBRANCH   3   7
BRANCH   1  22
HETATM   22  C   UNL     1      42.627 -17.383   1.899  1.00  0.00     0.127 C 
BRANCH  22  23
HETATM   23  N   UNL     1      43.899 -17.941   2.376  1.00  0.00    -0.376 N 
HETATM   24  H   UNL     1      44.664 -17.271   2.354  1.00  0.00     0.161 HD
BRANCH  23  25
HETATM   25  C   UNL     1      43.905 -18.811   3.461  1.00  0.00     0.100 A 
HETATM   26  C   UNL     1      43.816 -18.405   4.801  1.00  0.00     0.048 A 
HETATM   27  C   UNL     1      43.798 -19.350   5.826  1.00  0.00     0.005 A 
HETATM   28  C   UNL     1      43.856 -20.701   5.515  1.00  0.00     0.017 A 
HETATM   29  C   UNL     1      43.916 -21.072   4.183  1.00  0.00     0.089 A 
HETATM   30  N   UNL     1      43.929 -20.136   3.221  1.00  0.00    -0.353 N 
HETATM   31  H   UNL     1      43.949 -20.450   2.256  1.00  0.00     0.166 HD
ENDBRANCH  23  25
ENDBRANCH  22  23
ENDBRANCH   1  22
TORSDOF 6
ENDMDL
