MODEL 1
REMARK VINA RESULT:      -7.7      0.000      0.000
REMARK  8 active torsions:
REMARK  status: ('A' for Active; 'I' for Inactive)
REMARK    1  A    between atoms: C_2  and  O_3 
REMARK    2  A    between atoms: O_3  and  C_4 
REMARK    3  A    between atoms: C_5  and  O_6 
REMARK    4  A    between atoms: O_6  and  C_7 
REMARK       I    between atoms: C_7  and  N_8 
REMARK    5  A    between atoms: C_18  and  C_19 
REMARK    6  A    between atoms: C_23  and  N_24 
REMARK    7  A    between atoms: C_31  and  C_32 
REMARK    8  A    between atoms: C_35  and  O_36 
ROOT
HETATM    1  C   UNL     1      41.568 -12.346   1.070  1.00  0.00     0.105 C 
HETATM    2  C   UNL     1      41.039 -11.571  -0.142  1.00  0.00     0.067 C 
HETATM    3  C   UNL     1      41.432 -10.110  -0.285  1.00  0.00     0.020 C 
HETATM    4  N   UNL     1      41.758  -8.898  -0.404  1.00  0.00    -0.096 N 
HETATM    5  C   UNL     1      40.232 -12.125  -1.086  1.00  0.00     0.139 C 
HETATM    6  O   UNL     1      39.807 -13.457  -1.000  1.00  0.00    -0.279 OA
HETATM    7  C   UNL     1      40.116 -14.104   0.115  1.00  0.00     0.175 A 
HETATM    8  C   UNL     1      40.897 -13.686   1.167  1.00  0.00     0.040 A 
HETATM    9  N   UNL     1      39.652 -15.338   0.420  1.00  0.00    -0.256 N 
HETATM   10  H   UNL     1      39.046 -15.935  -0.132  1.00  0.00     0.191 HD
HETATM   11  N   UNL     1      40.044 -15.754   1.631  1.00  0.00    -0.172 NA
HETATM   12  C   UNL     1      40.810 -14.755   2.116  1.00  0.00     0.099 A 
ENDROOT
BRANCH   1  13
HETATM   13  C   UNL     1      41.469 -11.599   2.394  1.00  0.00    -0.040 C 
HETATM   14  C   UNL     1      40.284 -11.062   2.921  1.00  0.00     0.030 C 
HETATM   15  C   UNL     1      40.251 -10.576   4.233  1.00  0.00     0.048 C 
HETATM   16  C   UNL     1      41.422 -10.535   4.992  1.00  0.00     0.131 C 
HETATM   17 BR   UNL     1      38.586 -10.025   4.955  1.00  0.00    -0.048 Br
HETATM   18  C   UNL     1      42.653 -10.881   4.423  1.00  0.00     0.104 C 
HETATM   19  C   UNL     1      42.657 -11.454   3.151  1.00  0.00     0.048 C 
BRANCH  16  20
HETATM   20  O   UNL     1      41.360 -10.105   6.326  1.00  0.00    -0.257 OA
BRANCH  20  21
HETATM   21  C   UNL     1      41.511  -8.727   6.474  1.00  0.00     0.368 C 
HETATM   22  N   UNL     1      41.419  -8.320   7.795  1.00  0.00    -0.324 N 
HETATM   23  C   UNL     1      41.618  -9.219   8.929  1.00  0.00     0.154 C 
HETATM   24  C   UNL     1      41.575  -6.908   8.127  1.00  0.00     0.154 C 
HETATM   25  C   UNL     1      42.975  -8.920   9.585  1.00  0.00     0.187 C 
HETATM   26  O   UNL     1      43.080  -7.531   9.953  1.00  0.00    -0.388 OA
HETATM   27  C   UNL     1      42.931  -6.678   8.801  1.00  0.00     0.187 C 
HETATM   28  O   UNL     1      41.704  -7.938   5.552  1.00  0.00    -0.238 OA
ENDBRANCH  20  21
ENDBRANCH  16  20
BRANCH  18  29
HETATM   29  O   UNL     1      43.766 -10.676   5.193  1.00  0.00    -0.349 OA
BRANCH  29  30
HETATM   30  C   UNL     1      44.404 -11.802   5.794  1.00  0.00     0.171 C 
HETATM   31  C   UNL     1      44.305 -11.756   7.309  1.00  0.00     0.034 C 
ENDBRANCH  29  30
ENDBRANCH  18  29
ENDBRANCH   1  13
BRANCH   5  32
HETATM   32  N   UNL     1      39.745 -11.484  -2.202  1.00  0.00    -0.282 NA
HETATM   33  H   UNL     1      39.098 -12.015  -2.779  1.00  0.00     0.126 HD
HETATM   34  H   UNL     1      39.419 -10.543  -1.997  1.00  0.00     0.126 HD
ENDBRANCH   5  32
BRANCH  12  35
HETATM   35  C   UNL     1      41.326 -14.854   3.483  1.00  0.00    -0.005 A 
HETATM   36  C   UNL     1      42.591 -15.368   3.771  1.00  0.00     0.016 A 
HETATM   37  C   UNL     1      43.066 -15.366   5.089  1.00  0.00     0.037 A 
HETATM   38  C   UNL     1      42.286 -14.870   6.137  1.00  0.00     0.068 A 
HETATM   39  C   UNL     1      41.013 -14.379   5.859  1.00  0.00     0.037 A 
HETATM   40  C   UNL     1      40.539 -14.372   4.544  1.00  0.00     0.016 A 
BRANCH  38  41
HETATM   41  O   UNL     1      42.870 -14.925   7.372  1.00  0.00    -0.356 OA
HETATM   42  C   UNL     1      43.362 -16.191   7.794  1.00  0.00     0.210 C 
ENDBRANCH  38  41
ENDBRANCH  12  35
TORSDOF 8
ENDMDL
MODEL 2
REMARK VINA RESULT:      -7.7      2.521      7.694
REMARK  8 active torsions:
REMARK  status: ('A' for Active; 'I' for Inactive)
REMARK    1  A    between atoms: C_2  and  O_3 
REMARK    2  A    between atoms: O_3  and  C_4 
REMARK    3  A    between atoms: C_5  and  O_6 
REMARK    4  A    between atoms: O_6  and  C_7 
REMARK       I    between atoms: C_7  and  N_8 
REMARK    5  A    between atoms: C_18  and  C_19 
REMARK    6  A    between atoms: C_23  and  N_24 
REMARK    7  A    between atoms: C_31  and  C_32 
REMARK    8  A    between atoms: C_35  and  O_36 
ROOT
HETATM    1  C   UNL     1      40.884 -11.050   5.740  1.00  0.00     0.105 C 
HETATM    2  C   UNL     1      40.499  -9.651   6.234  1.00  0.00     0.067 C 
HETATM    3  C   UNL     1      39.146  -9.093   5.824  1.00  0.00     0.020 C 
HETATM    4  N   UNL     1      38.024  -8.630   5.484  1.00  0.00    -0.096 N 
HETATM    5  C   UNL     1      41.311  -8.886   7.011  1.00  0.00     0.139 C 
HETATM    6  O   UNL     1      42.584  -9.326   7.401  1.00  0.00    -0.279 OA
HETATM    7  C   UNL     1      43.007 -10.460   6.860  1.00  0.00     0.175 A 
HETATM    8  C   UNL     1      42.327 -11.334   6.044  1.00  0.00     0.040 A 
HETATM    9  N   UNL     1      44.263 -10.939   7.009  1.00  0.00    -0.256 N 
HETATM   10  H   UNL     1      45.028 -10.542   7.543  1.00  0.00     0.191 HD
HETATM   11  N   UNL     1      44.475 -12.062   6.311  1.00  0.00    -0.172 NA
HETATM   12  C   UNL     1      43.300 -12.327   5.704  1.00  0.00     0.099 A 
ENDROOT
BRANCH   1  13
HETATM   13  C   UNL     1      40.585 -11.308   4.268  1.00  0.00    -0.040 C 
HETATM   14  C   UNL     1      40.929 -10.440   3.220  1.00  0.00     0.030 C 
HETATM   15  C   UNL     1      40.799 -10.854   1.890  1.00  0.00     0.048 C 
HETATM   16  C   UNL     1      40.237 -12.098   1.596  1.00  0.00     0.131 C 
HETATM   17 BR   UNL     1      41.443  -9.713   0.517  1.00  0.00    -0.048 Br
HETATM   18  C   UNL     1      39.706 -12.897   2.615  1.00  0.00     0.104 C 
HETATM   19  C   UNL     1      39.928 -12.519   3.939  1.00  0.00     0.048 C 
BRANCH  16  20
HETATM   20  O   UNL     1      40.172 -12.525   0.261  1.00  0.00    -0.257 OA
BRANCH  20  21
HETATM   21  C   UNL     1      39.005 -12.132  -0.392  1.00  0.00     0.368 C 
HETATM   22  N   UNL     1      39.011 -12.464  -1.738  1.00  0.00    -0.324 N 
HETATM   23  C   UNL     1      39.876 -13.493  -2.308  1.00  0.00     0.154 C 
HETATM   24  C   UNL     1      37.854 -12.141  -2.565  1.00  0.00     0.154 C 
HETATM   25  C   UNL     1      39.036 -14.734  -2.648  1.00  0.00     0.187 C 
HETATM   26  O   UNL     1      37.934 -14.396  -3.510  1.00  0.00    -0.388 OA
HETATM   27  C   UNL     1      37.074 -13.418  -2.892  1.00  0.00     0.187 C 
HETATM   28  O   UNL     1      38.061 -11.553   0.141  1.00  0.00    -0.238 OA
ENDBRANCH  20  21
ENDBRANCH  16  20
BRANCH  18  29
HETATM   29  O   UNL     1      39.047 -14.032   2.226  1.00  0.00    -0.349 OA
BRANCH  29  30
HETATM   30  C   UNL     1      39.700 -15.292   2.374  1.00  0.00     0.171 C 
HETATM   31  C   UNL     1      39.944 -15.954   1.028  1.00  0.00     0.034 C 
ENDBRANCH  29  30
ENDBRANCH  18  29
ENDBRANCH   1  13
BRANCH   5  32
HETATM   32  N   UNL     1      41.011  -7.635   7.499  1.00  0.00    -0.282 NA
HETATM   33  H   UNL     1      41.234  -6.850   6.892  1.00  0.00     0.126 HD
HETATM   34  H   UNL     1      40.072  -7.587   7.888  1.00  0.00     0.126 HD
ENDBRANCH   5  32
BRANCH  12  35
HETATM   35  C   UNL     1      43.219 -13.455   4.773  1.00  0.00    -0.005 A 
HETATM   36  C   UNL     1      43.352 -13.298   3.392  1.00  0.00     0.016 A 
HETATM   37  C   UNL     1      43.345 -14.421   2.555  1.00  0.00     0.037 A 
HETATM   38  C   UNL     1      43.190 -15.709   3.076  1.00  0.00     0.068 A 
HETATM   39  C   UNL     1      43.032 -15.869   4.449  1.00  0.00     0.037 A 
HETATM   40  C   UNL     1      43.046 -14.751   5.289  1.00  0.00     0.016 A 
BRANCH  38  41
HETATM   41  O   UNL     1      43.205 -16.715   2.149  1.00  0.00    -0.356 OA
HETATM   42  C   UNL     1      43.341 -18.042   2.644  1.00  0.00     0.210 C 
ENDBRANCH  38  41
ENDBRANCH  12  35
TORSDOF 8
ENDMDL
MODEL 3
REMARK VINA RESULT:      -7.6      1.527      2.320
REMARK  8 active torsions:
REMARK  status: ('A' for Active; 'I' for Inactive)
REMARK    1  A    between atoms: C_2  and  O_3 
REMARK    2  A    between atoms: O_3  and  C_4 
REMARK    3  A    between atoms: C_5  and  O_6 
REMARK    4  A    between atoms: O_6  and  C_7 
REMARK       I    between atoms: C_7  and  N_8 
REMARK    5  A    between atoms: C_18  and  C_19 
REMARK    6  A    between atoms: C_23  and  N_24 
REMARK    7  A    between atoms: C_31  and  C_32 
REMARK    8  A    between atoms: C_35  and  O_36 
ROOT
HETATM    1  C   UNL     1      41.428 -12.928   1.006  1.00  0.00     0.105 C 
HETATM    2  C   UNL     1      40.890 -11.888   0.018  1.00  0.00     0.067 C 
HETATM    3  C   UNL     1      41.362 -10.450   0.164  1.00  0.00     0.020 C 
HETATM    4  N   UNL     1      41.752  -9.258   0.285  1.00  0.00    -0.096 N 
HETATM    5  C   UNL     1      40.009 -12.187  -0.973  1.00  0.00     0.139 C 
HETATM    6  O   UNL     1      39.511 -13.485  -1.147  1.00  0.00    -0.279 OA
HETATM    7  C   UNL     1      39.832 -14.370  -0.214  1.00  0.00     0.175 A 
HETATM    8  C   UNL     1      40.685 -14.225   0.857  1.00  0.00     0.040 A 
HETATM    9  N   UNL     1      39.311 -15.617  -0.149  1.00  0.00    -0.256 N 
HETATM   10  H   UNL     1      38.645 -16.052  -0.779  1.00  0.00     0.191 HD
HETATM   11  N   UNL     1      39.734 -16.301   0.921  1.00  0.00    -0.172 NA
HETATM   12  C   UNL     1      40.579 -15.467   1.561  1.00  0.00     0.099 A 
ENDROOT
BRANCH   1  13
HETATM   13  C   UNL     1      41.436 -12.478   2.462  1.00  0.00    -0.040 C 
HETATM   14  C   UNL     1      42.555 -12.537   3.308  1.00  0.00     0.030 C 
HETATM   15  C   UNL     1      42.525 -11.914   4.561  1.00  0.00     0.048 C 
HETATM   16  C   UNL     1      41.349 -11.313   5.014  1.00  0.00     0.131 C 
HETATM   17 BR   UNL     1      44.117 -11.871   5.591  1.00  0.00    -0.048 Br
HETATM   18  C   UNL     1      40.166 -11.412   4.273  1.00  0.00     0.104 C 
HETATM   19  C   UNL     1      40.233 -11.949   2.987  1.00  0.00     0.048 C 
BRANCH  16  20
HETATM   20  O   UNL     1      41.354 -10.637   6.244  1.00  0.00    -0.257 OA
BRANCH  20  21
HETATM   21  C   UNL     1      41.467  -9.253   6.117  1.00  0.00     0.368 C 
HETATM   22  N   UNL     1      41.134  -8.584   7.284  1.00  0.00    -0.324 N 
HETATM   23  C   UNL     1      41.129  -9.215   8.601  1.00  0.00     0.154 C 
HETATM   24  C   UNL     1      41.219  -7.128   7.329  1.00  0.00     0.154 C 
HETATM   25  C   UNL     1      42.342  -8.726   9.406  1.00  0.00     0.187 C 
HETATM   26  O   UNL     1      42.370  -7.288   9.481  1.00  0.00    -0.388 OA
HETATM   27  C   UNL     1      42.428  -6.702   8.166  1.00  0.00     0.187 C 
HETATM   28  O   UNL     1      41.819  -8.667   5.097  1.00  0.00    -0.238 OA
ENDBRANCH  20  21
ENDBRANCH  16  20
BRANCH  18  29
HETATM   29  O   UNL     1      39.031 -10.918   4.857  1.00  0.00    -0.349 OA
BRANCH  29  30
HETATM   30  C   UNL     1      38.348  -9.835   4.227  1.00  0.00     0.171 C 
HETATM   31  C   UNL     1      38.086  -8.699   5.202  1.00  0.00     0.034 C 
ENDBRANCH  29  30
ENDBRANCH  18  29
ENDBRANCH   1  13
BRANCH   5  32
HETATM   32  N   UNL     1      39.509 -11.300  -1.898  1.00  0.00    -0.282 NA
HETATM   33  H   UNL     1      39.441 -11.638  -2.855  1.00  0.00     0.126 HD
HETATM   34  H   UNL     1      38.662 -10.840  -1.575  1.00  0.00     0.126 HD
ENDBRANCH   5  32
BRANCH  12  35
HETATM   35  C   UNL     1      41.152 -15.881   2.844  1.00  0.00    -0.005 A 
HETATM   36  C   UNL     1      42.469 -16.325   2.968  1.00  0.00     0.016 A 
HETATM   37  C   UNL     1      42.989 -16.634   4.231  1.00  0.00     0.037 A 
HETATM   38  C   UNL     1      42.205 -16.520   5.383  1.00  0.00     0.068 A 
HETATM   39  C   UNL     1      40.883 -16.102   5.262  1.00  0.00     0.037 A 
HETATM   40  C   UNL     1      40.363 -15.786   4.003  1.00  0.00     0.016 A 
BRANCH  38  41
HETATM   41  O   UNL     1      42.837 -16.850   6.551  1.00  0.00    -0.356 OA
HETATM   42  C   UNL     1      42.919 -15.835   7.544  1.00  0.00     0.210 C 
ENDBRANCH  38  41
ENDBRANCH  12  35
TORSDOF 8
ENDMDL
MODEL 4
REMARK VINA RESULT:      -7.4      2.462      5.085
REMARK  8 active torsions:
REMARK  status: ('A' for Active; 'I' for Inactive)
REMARK    1  A    between atoms: C_2  and  O_3 
REMARK    2  A    between atoms: O_3  and  C_4 
REMARK    3  A    between atoms: C_5  and  O_6 
REMARK    4  A    between atoms: O_6  and  C_7 
REMARK       I    between atoms: C_7  and  N_8 
REMARK    5  A    between atoms: C_18  and  C_19 
REMARK    6  A    between atoms: C_23  and  N_24 
REMARK    7  A    between atoms: C_31  and  C_32 
REMARK    8  A    between atoms: C_35  and  O_36 
ROOT
HETATM    1  C   UNL     1      41.829 -14.668   4.731  1.00  0.00     0.105 C 
HETATM    2  C   UNL     1      42.772 -15.670   5.407  1.00  0.00     0.067 C 
HETATM    3  C   UNL     1      42.935 -15.593   6.916  1.00  0.00     0.020 C 
HETATM    4  N   UNL     1      43.071 -15.530   8.168  1.00  0.00    -0.096 N 
HETATM    5  C   UNL     1      43.470 -16.614   4.723  1.00  0.00     0.139 C 
HETATM    6  O   UNL     1      43.390 -16.722   3.328  1.00  0.00    -0.279 OA
HETATM    7  C   UNL     1      42.710 -15.772   2.701  1.00  0.00     0.175 A 
HETATM    8  C   UNL     1      41.972 -14.742   3.238  1.00  0.00     0.040 A 
HETATM    9  N   UNL     1      42.667 -15.643   1.355  1.00  0.00    -0.256 N 
HETATM   10  H   UNL     1      43.105 -16.230   0.654  1.00  0.00     0.191 HD
HETATM   11  N   UNL     1      41.975 -14.567   0.960  1.00  0.00    -0.172 NA
HETATM   12  C   UNL     1      41.538 -13.990   2.099  1.00  0.00     0.099 A 
ENDROOT
BRANCH   1  13
HETATM   13  C   UNL     1      41.977 -13.231   5.214  1.00  0.00    -0.040 C 
HETATM   14  C   UNL     1      40.917 -12.429   5.667  1.00  0.00     0.030 C 
HETATM   15  C   UNL     1      41.176 -11.199   6.281  1.00  0.00     0.048 C 
HETATM   16  C   UNL     1      42.485 -10.719   6.361  1.00  0.00     0.131 C 
HETATM   17 BR   UNL     1      39.724 -10.236   7.033  1.00  0.00    -0.048 Br
HETATM   18  C   UNL     1      43.535 -11.408   5.743  1.00  0.00     0.104 C 
HETATM   19  C   UNL     1      43.280 -12.676   5.220  1.00  0.00     0.048 C 
BRANCH  16  20
HETATM   20  O   UNL     1      42.735  -9.515   7.036  1.00  0.00    -0.257 OA
BRANCH  20  21
HETATM   21  C   UNL     1      43.005  -9.685   8.394  1.00  0.00     0.368 C 
HETATM   22  N   UNL     1      42.796  -8.527   9.126  1.00  0.00    -0.324 N 
HETATM   23  C   UNL     1      41.961  -7.422   8.663  1.00  0.00     0.154 C 
HETATM   24  C   UNL     1      43.013  -8.538  10.568  1.00  0.00     0.154 C 
HETATM   25  C   UNL     1      40.642  -7.414   9.452  1.00  0.00     0.187 C 
HETATM   26  O   UNL     1      40.886  -7.368  10.870  1.00  0.00    -0.388 OA
HETATM   27  C   UNL     1      41.667  -8.501  11.298  1.00  0.00     0.187 C 
HETATM   28  O   UNL     1      43.388 -10.732   8.909  1.00  0.00    -0.238 OA
ENDBRANCH  20  21
ENDBRANCH  16  20
BRANCH  18  29
HETATM   29  O   UNL     1      44.759 -10.796   5.748  1.00  0.00    -0.349 OA
BRANCH  29  30
HETATM   30  C   UNL     1      45.844 -11.432   6.421  1.00  0.00     0.171 C 
HETATM   31  C   UNL     1      46.471 -10.516   7.458  1.00  0.00     0.034 C 
ENDBRANCH  29  30
ENDBRANCH  18  29
ENDBRANCH   1  13
BRANCH   5  32
HETATM   32  N   UNL     1      44.313 -17.549   5.278  1.00  0.00    -0.282 NA
HETATM   33  H   UNL     1      44.690 -17.327   6.197  1.00  0.00     0.126 HD
HETATM   34  H   UNL     1      43.939 -18.493   5.217  1.00  0.00     0.126 HD
ENDBRANCH   5  32
BRANCH  12  35
HETATM   35  C   UNL     1      40.818 -12.718   2.021  1.00  0.00    -0.005 A 
HETATM   36  C   UNL     1      39.425 -12.640   2.079  1.00  0.00     0.016 A 
HETATM   37  C   UNL     1      38.792 -11.391   2.080  1.00  0.00     0.037 A 
HETATM   38  C   UNL     1      39.531 -10.207   2.006  1.00  0.00     0.068 A 
HETATM   39  C   UNL     1      40.918 -10.279   1.923  1.00  0.00     0.037 A 
HETATM   40  C   UNL     1      41.554 -11.524   1.929  1.00  0.00     0.016 A 
BRANCH  38  41
HETATM   41  O   UNL     1      38.788  -9.057   2.019  1.00  0.00    -0.356 OA
HETATM   42  C   UNL     1      38.394  -8.562   3.292  1.00  0.00     0.210 C 
ENDBRANCH  38  41
ENDBRANCH  12  35
TORSDOF 8
ENDMDL
MODEL 5
REMARK VINA RESULT:      -7.4      6.530     10.632
REMARK  8 active torsions:
REMARK  status: ('A' for Active; 'I' for Inactive)
REMARK    1  A    between atoms: C_2  and  O_3 
REMARK    2  A    between atoms: O_3  and  C_4 
REMARK    3  A    between atoms: C_5  and  O_6 
REMARK    4  A    between atoms: O_6  and  C_7 
REMARK       I    between atoms: C_7  and  N_8 
REMARK    5  A    between atoms: C_18  and  C_19 
REMARK    6  A    between atoms: C_23  and  N_24 
REMARK    7  A    between atoms: C_31  and  C_32 
REMARK    8  A    between atoms: C_35  and  O_36 
ROOT
HETATM    1  C   UNL     1      42.643  -7.360  10.132  1.00  0.00     0.105 C 
HETATM    2  C   UNL     1      42.427  -7.578   8.630  1.00  0.00     0.067 C 
HETATM    3  C   UNL     1      42.017  -6.383   7.785  1.00  0.00     0.020 C 
HETATM    4  N   UNL     1      41.677  -5.393   7.084  1.00  0.00    -0.096 N 
HETATM    5  C   UNL     1      42.575  -8.786   8.024  1.00  0.00     0.139 C 
HETATM    6  O   UNL     1      42.922  -9.935   8.747  1.00  0.00    -0.279 OA
HETATM    7  C   UNL     1      42.960  -9.811  10.067  1.00  0.00     0.175 A 
HETATM    8  C   UNL     1      42.812  -8.678  10.833  1.00  0.00     0.040 A 
HETATM    9  N   UNL     1      43.125 -10.853  10.914  1.00  0.00    -0.256 N 
HETATM   10  H   UNL     1      43.257 -11.833  10.686  1.00  0.00     0.191 HD
HETATM   11  N   UNL     1      43.058 -10.491  12.201  1.00  0.00    -0.172 NA
HETATM   12  C   UNL     1      42.863  -9.156  12.181  1.00  0.00     0.099 A 
ENDROOT
BRANCH   1  13
HETATM   13  C   UNL     1      41.568  -6.523  10.814  1.00  0.00    -0.040 C 
HETATM   14  C   UNL     1      40.268  -6.972  11.098  1.00  0.00     0.030 C 
HETATM   15  C   UNL     1      39.420  -6.210  11.908  1.00  0.00     0.048 C 
HETATM   16  C   UNL     1      39.828  -4.953  12.359  1.00  0.00     0.131 C 
HETATM   17 BR   UNL     1      37.741  -6.940  12.405  1.00  0.00    -0.048 Br
HETATM   18  C   UNL     1      41.039  -4.400  11.928  1.00  0.00     0.104 C 
HETATM   19  C   UNL     1      41.916  -5.207  11.203  1.00  0.00     0.048 C 
BRANCH  16  20
HETATM   20  O   UNL     1      38.992  -4.228  13.222  1.00  0.00    -0.257 OA
BRANCH  20  21
HETATM   21  C   UNL     1      38.008  -3.497  12.558  1.00  0.00     0.368 C 
HETATM   22  N   UNL     1      36.835  -3.397  13.290  1.00  0.00    -0.324 N 
HETATM   23  C   UNL     1      36.769  -3.597  14.735  1.00  0.00     0.154 C 
HETATM   24  C   UNL     1      35.709  -2.646  12.747  1.00  0.00     0.154 C 
HETATM   25  C   UNL     1      36.583  -2.240  15.430  1.00  0.00     0.187 C 
HETATM   26  O   UNL     1      35.433  -1.545  14.914  1.00  0.00    -0.388 OA
HETATM   27  C   UNL     1      35.558  -1.318  13.497  1.00  0.00     0.187 C 
HETATM   28  O   UNL     1      38.138  -2.989  11.447  1.00  0.00    -0.238 OA
ENDBRANCH  20  21
ENDBRANCH  16  20
BRANCH  18  29
HETATM   29  O   UNL     1      41.294  -3.109  12.304  1.00  0.00    -0.349 OA
BRANCH  29  30
HETATM   30  C   UNL     1      42.186  -2.872  13.393  1.00  0.00     0.171 C 
HETATM   31  C   UNL     1      43.455  -2.174  12.933  1.00  0.00     0.034 C 
ENDBRANCH  29  30
ENDBRANCH  18  29
ENDBRANCH   1  13
BRANCH   5  32
HETATM   32  N   UNL     1      42.413  -9.035   6.680  1.00  0.00    -0.282 NA
HETATM   33  H   UNL     1      42.733  -9.942   6.349  1.00  0.00     0.126 HD
HETATM   34  H   UNL     1      41.481  -8.794   6.352  1.00  0.00     0.126 HD
ENDBRANCH   5  32
BRANCH  12  35
HETATM   35  C   UNL     1      42.648  -8.450  13.446  1.00  0.00    -0.005 A 
HETATM   36  C   UNL     1      43.392  -7.328  13.814  1.00  0.00     0.016 A 
HETATM   37  C   UNL     1      43.091  -6.644  14.999  1.00  0.00     0.037 A 
HETATM   38  C   UNL     1      42.060  -7.075  15.839  1.00  0.00     0.068 A 
HETATM   39  C   UNL     1      41.331  -8.208  15.490  1.00  0.00     0.037 A 
HETATM   40  C   UNL     1      41.624  -8.888  14.304  1.00  0.00     0.016 A 
BRANCH  38  41
HETATM   41  O   UNL     1      41.870  -6.315  16.961  1.00  0.00    -0.356 OA
HETATM   42  C   UNL     1      42.091  -6.954  18.213  1.00  0.00     0.210 C 
ENDBRANCH  38  41
ENDBRANCH  12  35
TORSDOF 8
ENDMDL
MODEL 6
REMARK VINA RESULT:      -7.2      2.703      5.462
REMARK  8 active torsions:
REMARK  status: ('A' for Active; 'I' for Inactive)
REMARK    1  A    between atoms: C_2  and  O_3 
REMARK    2  A    between atoms: O_3  and  C_4 
REMARK    3  A    between atoms: C_5  and  O_6 
REMARK    4  A    between atoms: O_6  and  C_7 
REMARK       I    between atoms: C_7  and  N_8 
REMARK    5  A    between atoms: C_18  and  C_19 
REMARK    6  A    between atoms: C_23  and  N_24 
REMARK    7  A    between atoms: C_31  and  C_32 
REMARK    8  A    between atoms: C_35  and  O_36 
ROOT
HETATM    1  C   UNL     1      42.217 -15.189   4.695  1.00  0.00     0.105 C 
HETATM    2  C   UNL     1      43.082 -16.340   5.221  1.00  0.00     0.067 C 
HETATM    3  C   UNL     1      43.263 -16.470   6.725  1.00  0.00     0.020 C 
HETATM    4  N   UNL     1      43.413 -16.578   7.971  1.00  0.00    -0.096 N 
HETATM    5  C   UNL     1      43.698 -17.240   4.410  1.00  0.00     0.139 C 
HETATM    6  O   UNL     1      43.598 -17.162   3.014  1.00  0.00    -0.279 OA
HETATM    7  C   UNL     1      42.991 -16.089   2.526  1.00  0.00     0.175 A 
HETATM    8  C   UNL     1      42.341 -15.082   3.202  1.00  0.00     0.040 A 
HETATM    9  N   UNL     1      42.947 -15.786   1.208  1.00  0.00    -0.256 N 
HETATM   10  H   UNL     1      43.332 -16.310   0.430  1.00  0.00     0.191 HD
HETATM   11  N   UNL     1      42.341 -14.617   0.965  1.00  0.00    -0.172 NA
HETATM   12  C   UNL     1      41.960 -14.159   2.176  1.00  0.00     0.099 A 
ENDROOT
BRANCH   1  13
HETATM   13  C   UNL     1      42.483 -13.841   5.353  1.00  0.00    -0.040 C 
HETATM   14  C   UNL     1      43.760 -13.326   5.628  1.00  0.00     0.030 C 
HETATM   15  C   UNL     1      43.910 -11.998   6.044  1.00  0.00     0.048 C 
HETATM   16  C   UNL     1      42.784 -11.208   6.280  1.00  0.00     0.131 C 
HETATM   17 BR   UNL     1      45.664 -11.299   6.231  1.00  0.00    -0.048 Br
HETATM   18  C   UNL     1      41.499 -11.758   6.203  1.00  0.00     0.104 C 
HETATM   19  C   UNL     1      41.360 -13.049   5.695  1.00  0.00     0.048 C 
BRANCH  16  20
HETATM   20  O   UNL     1      42.952  -9.861   6.635  1.00  0.00    -0.257 OA
BRANCH  20  21
HETATM   21  C   UNL     1      42.990  -9.649   8.012  1.00  0.00     0.368 C 
HETATM   22  N   UNL     1      42.447  -8.428   8.378  1.00  0.00    -0.324 N 
HETATM   23  C   UNL     1      41.531  -7.669   7.531  1.00  0.00     0.154 C 
HETATM   24  C   UNL     1      42.390  -8.058   9.788  1.00  0.00     0.154 C 
HETATM   25  C   UNL     1      40.109  -7.766   8.104  1.00  0.00     0.187 C 
HETATM   26  O   UNL     1      40.072  -7.342   9.479  1.00  0.00    -0.388 OA
HETATM   27  C   UNL     1      40.947  -8.148  10.293  1.00  0.00     0.187 C 
HETATM   28  O   UNL     1      43.450 -10.440   8.833  1.00  0.00    -0.238 OA
ENDBRANCH  20  21
ENDBRANCH  16  20
BRANCH  18  29
HETATM   29  O   UNL     1      40.461 -10.953   6.588  1.00  0.00    -0.349 OA
BRANCH  29  30
HETATM   30  C   UNL     1      39.136 -11.303   6.195  1.00  0.00     0.171 C 
HETATM   31  C   UNL     1      38.331 -10.078   5.793  1.00  0.00     0.034 C 
ENDBRANCH  29  30
ENDBRANCH  18  29
ENDBRANCH   1  13
BRANCH   5  32
HETATM   32  N   UNL     1      44.468 -18.301   4.827  1.00  0.00    -0.282 NA
HETATM   33  H   UNL     1      44.970 -18.177   5.702  1.00  0.00     0.126 HD
HETATM   34  H   UNL     1      43.968 -19.186   4.775  1.00  0.00     0.126 HD
ENDBRANCH   5  32
BRANCH  12  35
HETATM   35  C   UNL     1      41.343 -12.834   2.273  1.00  0.00    -0.005 A 
HETATM   36  C   UNL     1      39.959 -12.652   2.292  1.00  0.00     0.016 A 
HETATM   37  C   UNL     1      39.423 -11.370   2.467  1.00  0.00     0.037 A 
HETATM   38  C   UNL     1      40.252 -10.253   2.607  1.00  0.00     0.068 A 
HETATM   39  C   UNL     1      41.633 -10.426   2.564  1.00  0.00     0.037 A 
HETATM   40  C   UNL     1      42.171 -11.706   2.397  1.00  0.00     0.016 A 
BRANCH  38  41
HETATM   41  O   UNL     1      39.600  -9.063   2.774  1.00  0.00    -0.356 OA
HETATM   42  C   UNL     1      40.402  -7.929   3.081  1.00  0.00     0.210 C 
ENDBRANCH  38  41
ENDBRANCH  12  35
TORSDOF 8
ENDMDL
MODEL 7
REMARK VINA RESULT:      -7.1     18.634     22.248
REMARK  8 active torsions:
REMARK  status: ('A' for Active; 'I' for Inactive)
REMARK    1  A    between atoms: C_2  and  O_3 
REMARK    2  A    between atoms: O_3  and  C_4 
REMARK    3  A    between atoms: C_5  and  O_6 
REMARK    4  A    between atoms: O_6  and  C_7 
REMARK       I    between atoms: C_7  and  N_8 
REMARK    5  A    between atoms: C_18  and  C_19 
REMARK    6  A    between atoms: C_23  and  N_24 
REMARK    7  A    between atoms: C_31  and  C_32 
REMARK    8  A    between atoms: C_35  and  O_36 
ROOT
HETATM    1  C   UNL     1      44.578 -31.632   1.025  1.00  0.00     0.105 C 
HETATM    2  C   UNL     1      43.065 -31.859   1.113  1.00  0.00     0.067 C 
HETATM    3  C   UNL     1      42.472 -33.036   0.357  1.00  0.00     0.020 C 
HETATM    4  N   UNL     1      41.979 -34.012  -0.270  1.00  0.00    -0.096 N 
HETATM    5  C   UNL     1      42.232 -31.055   1.826  1.00  0.00     0.139 C 
HETATM    6  O   UNL     1      42.707 -29.935   2.522  1.00  0.00    -0.279 OA
HETATM    7  C   UNL     1      43.982 -29.622   2.335  1.00  0.00     0.175 A 
HETATM    8  C   UNL     1      44.946 -30.309   1.633  1.00  0.00     0.040 A 
HETATM    9  N   UNL     1      44.554 -28.491   2.807  1.00  0.00    -0.256 N 
HETATM   10  H   UNL     1      44.129 -27.756   3.362  1.00  0.00     0.191 HD
HETATM   11  N   UNL     1      45.833 -28.361   2.430  1.00  0.00    -0.172 NA
HETATM   12  C   UNL     1      46.100 -29.465   1.703  1.00  0.00     0.099 A 
ENDROOT
BRANCH   1  13
HETATM   13  C   UNL     1      45.159 -31.757  -0.379  1.00  0.00    -0.040 C 
HETATM   14  C   UNL     1      46.249 -32.574  -0.721  1.00  0.00     0.030 C 
HETATM   15  C   UNL     1      46.580 -32.782  -2.064  1.00  0.00     0.048 C 
HETATM   16  C   UNL     1      45.887 -32.102  -3.068  1.00  0.00     0.131 C 
HETATM   17 BR   UNL     1      47.947 -34.030  -2.479  1.00  0.00    -0.048 Br
HETATM   18  C   UNL     1      44.929 -31.135  -2.743  1.00  0.00     0.104 C 
HETATM   19  C   UNL     1      44.541 -31.008  -1.409  1.00  0.00     0.048 C 
BRANCH  16  20
HETATM   20  O   UNL     1      46.188 -32.370  -4.412  1.00  0.00    -0.257 OA
BRANCH  20  21
HETATM   21  C   UNL     1      45.296 -33.254  -5.016  1.00  0.00     0.368 C 
HETATM   22  N   UNL     1      44.871 -32.814  -6.260  1.00  0.00    -0.324 N 
HETATM   23  C   UNL     1      45.596 -31.826  -7.054  1.00  0.00     0.154 C 
HETATM   24  C   UNL     1      43.948 -33.634  -7.037  1.00  0.00     0.154 C 
HETATM   25  C   UNL     1      46.289 -32.528  -8.232  1.00  0.00     0.187 C 
HETATM   26  O   UNL     1      45.345 -33.284  -9.015  1.00  0.00    -0.388 OA
HETATM   27  C   UNL     1      44.689 -34.283  -8.210  1.00  0.00     0.187 C 
HETATM   28  O   UNL     1      44.910 -34.311  -4.522  1.00  0.00    -0.238 OA
ENDBRANCH  20  21
ENDBRANCH  16  20
BRANCH  18  29
HETATM   29  O   UNL     1      44.402 -30.418  -3.782  1.00  0.00    -0.349 OA
BRANCH  29  30
HETATM   30  C   UNL     1      44.022 -29.061  -3.560  1.00  0.00     0.171 C 
HETATM   31  C   UNL     1      45.201 -28.117  -3.722  1.00  0.00     0.034 C 
ENDBRANCH  29  30
ENDBRANCH  18  29
ENDBRANCH   1  13
BRANCH   5  32
HETATM   32  N   UNL     1      40.872 -31.221   1.956  1.00  0.00    -0.282 NA
HETATM   33  H   UNL     1      40.314 -31.029   1.128  1.00  0.00     0.126 HD
HETATM   34  H   UNL     1      40.632 -32.101   2.406  1.00  0.00     0.126 HD
ENDBRANCH   5  32
BRANCH  12  35
HETATM   35  C   UNL     1      47.407 -29.590   1.054  1.00  0.00    -0.005 A 
HETATM   36  C   UNL     1      48.464 -30.297   1.628  1.00  0.00     0.016 A 
HETATM   37  C   UNL     1      49.667 -30.452   0.927  1.00  0.00     0.037 A 
HETATM   38  C   UNL     1      49.840 -29.893  -0.342  1.00  0.00     0.068 A 
HETATM   39  C   UNL     1      48.798 -29.165  -0.909  1.00  0.00     0.037 A 
HETATM   40  C   UNL     1      47.593 -29.016  -0.215  1.00  0.00     0.016 A 
BRANCH  38  41
HETATM   41  O   UNL     1      51.061 -30.122  -0.916  1.00  0.00    -0.356 OA
HETATM   42  C   UNL     1      51.062 -30.570  -2.265  1.00  0.00     0.210 C 
ENDBRANCH  38  41
ENDBRANCH  12  35
TORSDOF 8
ENDMDL
MODEL 8
REMARK VINA RESULT:      -6.7      2.467      7.580
REMARK  8 active torsions:
REMARK  status: ('A' for Active; 'I' for Inactive)
REMARK    1  A    between atoms: C_2  and  O_3 
REMARK    2  A    between atoms: O_3  and  C_4 
REMARK    3  A    between atoms: C_5  and  O_6 
REMARK    4  A    between atoms: O_6  and  C_7 
REMARK       I    between atoms: C_7  and  N_8 
REMARK    5  A    between atoms: C_18  and  C_19 
REMARK    6  A    between atoms: C_23  and  N_24 
REMARK    7  A    between atoms: C_31  and  C_32 
REMARK    8  A    between atoms: C_35  and  O_36 
ROOT
HETATM    1  C   UNL     1      41.920 -10.083   7.571  1.00  0.00     0.105 C 
HETATM    2  C   UNL     1      41.754  -8.908   8.541  1.00  0.00     0.067 C 
HETATM    3  C   UNL     1      40.373  -8.289   8.687  1.00  0.00     0.020 C 
HETATM    4  N   UNL     1      39.228  -7.777   8.809  1.00  0.00    -0.096 N 
HETATM    5  C   UNL     1      42.781  -8.389   9.266  1.00  0.00     0.139 C 
HETATM    6  O   UNL     1      44.085  -8.891   9.158  1.00  0.00    -0.279 OA
HETATM    7  C   UNL     1      44.291  -9.799   8.213  1.00  0.00     0.175 A 
HETATM    8  C   UNL     1      43.375 -10.406   7.385  1.00  0.00     0.040 A 
HETATM    9  N   UNL     1      45.514 -10.267   7.876  1.00  0.00    -0.256 N 
HETATM   10  H   UNL     1      46.412 -10.027   8.282  1.00  0.00     0.191 HD
HETATM   11  N   UNL     1      45.476 -11.123   6.847  1.00  0.00    -0.172 NA
HETATM   12  C   UNL     1      44.171 -11.225   6.522  1.00  0.00     0.099 A 
ENDROOT
BRANCH   1  13
HETATM   13  C   UNL     1      41.235  -9.897   6.223  1.00  0.00    -0.040 C 
HETATM   14  C   UNL     1      41.257  -8.708   5.475  1.00  0.00     0.030 C 
HETATM   15  C   UNL     1      40.777  -8.694   4.161  1.00  0.00     0.048 C 
HETATM   16  C   UNL     1      40.187  -9.837   3.619  1.00  0.00     0.131 C 
HETATM   17 BR   UNL     1      40.990  -7.112   3.135  1.00  0.00    -0.048 Br
HETATM   18  C   UNL     1      39.977 -10.973   4.410  1.00  0.00     0.104 C 
HETATM   19  C   UNL     1      40.545 -11.009   5.683  1.00  0.00     0.048 C 
BRANCH  16  20
HETATM   20  O   UNL     1      39.769  -9.826   2.279  1.00  0.00    -0.257 OA
BRANCH  20  21
HETATM   21  C   UNL     1      40.681 -10.421   1.408  1.00  0.00     0.368 C 
HETATM   22  N   UNL     1      40.101 -11.406   0.625  1.00  0.00    -0.324 N 
HETATM   23  C   UNL     1      38.664 -11.498   0.380  1.00  0.00     0.154 C 
HETATM   24  C   UNL     1      40.913 -12.116  -0.357  1.00  0.00     0.154 C 
HETATM   25  C   UNL     1      38.362 -11.053  -1.059  1.00  0.00     0.187 C 
HETATM   26  O   UNL     1      39.136 -11.808  -2.010  1.00  0.00    -0.388 OA
HETATM   27  C   UNL     1      40.548 -11.650  -1.770  1.00  0.00     0.187 C 
HETATM   28  O   UNL     1      41.870 -10.125   1.325  1.00  0.00    -0.238 OA
ENDBRANCH  20  21
ENDBRANCH  16  20
BRANCH  18  29
HETATM   29  O   UNL     1      39.266 -11.995   3.841  1.00  0.00    -0.349 OA
BRANCH  29  30
HETATM   30  C   UNL     1      39.713 -13.335   4.033  1.00  0.00     0.171 C 
HETATM   31  C   UNL     1      39.586 -14.154   2.760  1.00  0.00     0.034 C 
ENDBRANCH  29  30
ENDBRANCH  18  29
ENDBRANCH   1  13
BRANCH   5  32
HETATM   32  N   UNL     1      42.686  -7.351  10.163  1.00  0.00    -0.282 NA
HETATM   33  H   UNL     1      42.523  -7.608  11.134  1.00  0.00     0.126 HD
HETATM   34  H   UNL     1      43.433  -6.671  10.049  1.00  0.00     0.126 HD
ENDBRANCH   5  32
BRANCH  12  35
HETATM   35  C   UNL     1      43.789 -12.024   5.355  1.00  0.00    -0.005 A 
HETATM   36  C   UNL     1      43.839 -11.521   4.054  1.00  0.00     0.016 A 
HETATM   37  C   UNL     1      43.539 -12.354   2.968  1.00  0.00     0.037 A 
HETATM   38  C   UNL     1      43.171 -13.688   3.162  1.00  0.00     0.068 A 
HETATM   39  C   UNL     1      43.095 -14.188   4.459  1.00  0.00     0.037 A 
HETATM   40  C   UNL     1      43.401 -13.362   5.544  1.00  0.00     0.016 A 
BRANCH  38  41
HETATM   41  O   UNL     1      42.907 -14.389   2.017  1.00  0.00    -0.356 OA
HETATM   42  C   UNL     1      43.133 -15.793   2.058  1.00  0.00     0.210 C 
ENDBRANCH  38  41
ENDBRANCH  12  35
TORSDOF 8
ENDMDL
MODEL 9
REMARK VINA RESULT:      -6.7     18.239     21.090
REMARK  8 active torsions:
REMARK  status: ('A' for Active; 'I' for Inactive)
REMARK    1  A    between atoms: C_2  and  O_3 
REMARK    2  A    between atoms: O_3  and  C_4 
REMARK    3  A    between atoms: C_5  and  O_6 
REMARK    4  A    between atoms: O_6  and  C_7 
REMARK       I    between atoms: C_7  and  N_8 
REMARK    5  A    between atoms: C_18  and  C_19 
REMARK    6  A    between atoms: C_23  and  N_24 
REMARK    7  A    between atoms: C_31  and  C_32 
REMARK    8  A    between atoms: C_35  and  O_36 
ROOT
HETATM    1  C   UNL     1      44.588 -31.426  -3.160  1.00  0.00     0.105 C 
HETATM    2  C   UNL     1      44.290 -32.309  -4.377  1.00  0.00     0.067 C 
HETATM    3  C   UNL     1      44.252 -33.816  -4.177  1.00  0.00     0.020 C 
HETATM    4  N   UNL     1      44.221 -35.065  -4.011  1.00  0.00    -0.096 N 
HETATM    5  C   UNL     1      44.066 -31.811  -5.622  1.00  0.00     0.139 C 
HETATM    6  O   UNL     1      44.115 -30.435  -5.883  1.00  0.00    -0.279 OA
HETATM    7  C   UNL     1      44.526 -29.660  -4.889  1.00  0.00     0.175 A 
HETATM    8  C   UNL     1      44.812 -30.004  -3.588  1.00  0.00     0.040 A 
HETATM    9  N   UNL     1      44.776 -28.338  -5.023  1.00  0.00    -0.256 N 
HETATM   10  H   UNL     1      44.676 -27.760  -5.850  1.00  0.00     0.191 HD
HETATM   11  N   UNL     1      45.248 -27.783  -3.899  1.00  0.00    -0.172 NA
HETATM   12  C   UNL     1      45.284 -28.788  -2.999  1.00  0.00     0.099 A 
ENDROOT
BRANCH   1  13
HETATM   13  C   UNL     1      45.739 -31.912  -2.289  1.00  0.00    -0.040 C 
HETATM   14  C   UNL     1      47.039 -32.168  -2.754  1.00  0.00     0.030 C 
HETATM   15  C   UNL     1      48.077 -32.412  -1.849  1.00  0.00     0.048 C 
HETATM   16  C   UNL     1      47.808 -32.496  -0.482  1.00  0.00     0.131 C 
HETATM   17 BR   UNL     1      49.845 -32.577  -2.518  1.00  0.00    -0.048 Br
HETATM   18  C   UNL     1      46.490 -32.439  -0.011  1.00  0.00     0.104 C 
HETATM   19  C   UNL     1      45.479 -32.100  -0.910  1.00  0.00     0.048 C 
BRANCH  16  20
HETATM   20  O   UNL     1      48.869 -32.677   0.418  1.00  0.00    -0.257 OA
BRANCH  20  21
HETATM   21  C   UNL     1      49.322 -31.488   0.989  1.00  0.00     0.368 C 
HETATM   22  N   UNL     1      49.363 -31.545   2.373  1.00  0.00    -0.324 N 
HETATM   23  C   UNL     1      49.397 -32.795   3.126  1.00  0.00     0.154 C 
HETATM   24  C   UNL     1      49.835 -30.389   3.127  1.00  0.00     0.154 C 
HETATM   25  C   UNL     1      50.806 -33.008   3.700  1.00  0.00     0.187 C 
HETATM   26  O   UNL     1      51.224 -31.875   4.485  1.00  0.00    -0.388 OA
HETATM   27  C   UNL     1      51.229 -30.671   3.695  1.00  0.00     0.187 C 
HETATM   28  O   UNL     1      49.653 -30.487   0.358  1.00  0.00    -0.238 OA
ENDBRANCH  20  21
ENDBRANCH  16  20
BRANCH  18  29
HETATM   29  O   UNL     1      46.304 -32.672   1.325  1.00  0.00    -0.349 OA
BRANCH  29  30
HETATM   30  C   UNL     1      45.003 -32.493   1.880  1.00  0.00     0.171 C 
HETATM   31  C   UNL     1      45.072 -32.051   3.332  1.00  0.00     0.034 C 
ENDBRANCH  29  30
ENDBRANCH  18  29
ENDBRANCH   1  13
BRANCH   5  32
HETATM   32  N   UNL     1      43.776 -32.553  -6.743  1.00  0.00    -0.282 NA
HETATM   33  H   UNL     1      43.022 -32.205  -7.331  1.00  0.00     0.126 HD
HETATM   34  H   UNL     1      44.610 -32.804  -7.268  1.00  0.00     0.126 HD
ENDBRANCH   5  32
BRANCH  12  35
HETATM   35  C   UNL     1      45.851 -28.534  -1.672  1.00  0.00    -0.005 A 
HETATM   36  C   UNL     1      45.128 -28.742  -0.497  1.00  0.00     0.016 A 
HETATM   37  C   UNL     1      45.745 -28.559   0.748  1.00  0.00     0.037 A 
HETATM   38  C   UNL     1      47.080 -28.153   0.839  1.00  0.00     0.068 A 
HETATM   39  C   UNL     1      47.798 -27.921  -0.330  1.00  0.00     0.037 A 
HETATM   40  C   UNL     1      47.187 -28.110  -1.574  1.00  0.00     0.016 A 
BRANCH  38  41
HETATM   41  O   UNL     1      47.559 -28.016   2.113  1.00  0.00    -0.356 OA
HETATM   42  C   UNL     1      46.970 -28.839   3.112  1.00  0.00     0.210 C 
ENDBRANCH  38  41
ENDBRANCH  12  35
TORSDOF 8
ENDMDL
MODEL 10
REMARK VINA RESULT:      -6.7      2.080      4.726
REMARK  8 active torsions:
REMARK  status: ('A' for Active; 'I' for Inactive)
REMARK    1  A    between atoms: C_2  and  O_3 
REMARK    2  A    between atoms: O_3  and  C_4 
REMARK    3  A    between atoms: C_5  and  O_6 
REMARK    4  A    between atoms: O_6  and  C_7 
REMARK       I    between atoms: C_7  and  N_8 
REMARK    5  A    between atoms: C_18  and  C_19 
REMARK    6  A    between atoms: C_23  and  N_24 
REMARK    7  A    between atoms: C_31  and  C_32 
REMARK    8  A    between atoms: C_35  and  O_36 
ROOT
HETATM    1  C   UNL     1      40.283 -14.192   3.256  1.00  0.00     0.105 C 
HETATM    2  C   UNL     1      41.026 -15.511   3.497  1.00  0.00     0.067 C 
HETATM    3  C   UNL     1      41.167 -16.003   4.929  1.00  0.00     0.020 C 
HETATM    4  N   UNL     1      41.284 -16.410   6.116  1.00  0.00    -0.096 N 
HETATM    5  C   UNL     1      41.568 -16.254   2.496  1.00  0.00     0.139 C 
HETATM    6  O   UNL     1      41.500 -15.846   1.157  1.00  0.00    -0.279 OA
HETATM    7  C   UNL     1      41.007 -14.636   0.934  1.00  0.00     0.175 A 
HETATM    8  C   UNL     1      40.444 -13.755   1.829  1.00  0.00     0.040 A 
HETATM    9  N   UNL     1      41.016 -14.033  -0.277  1.00  0.00    -0.256 N 
HETATM   10  H   UNL     1      41.363 -14.398  -1.157  1.00  0.00     0.191 HD
HETATM   11  N   UNL     1      40.527 -12.787  -0.239  1.00  0.00    -0.172 NA
HETATM   12  C   UNL     1      40.170 -12.587   1.047  1.00  0.00     0.099 A 
ENDROOT
BRANCH   1  13
HETATM   13  C   UNL     1      40.664 -13.065   4.209  1.00  0.00    -0.040 C 
HETATM   14  C   UNL     1      39.761 -12.385   5.041  1.00  0.00     0.030 C 
HETATM   15  C   UNL     1      40.231 -11.511   6.027  1.00  0.00     0.048 C 
HETATM   16  C   UNL     1      41.596 -11.237   6.125  1.00  0.00     0.131 C 
HETATM   17 BR   UNL     1      38.983 -10.755   7.239  1.00  0.00    -0.048 Br
HETATM   18  C   UNL     1      42.495 -11.749   5.182  1.00  0.00     0.104 C 
HETATM   19  C   UNL     1      42.029 -12.694   4.267  1.00  0.00     0.048 C 
BRANCH  16  20
HETATM   20  O   UNL     1      42.059 -10.408   7.159  1.00  0.00    -0.257 OA
BRANCH  20  21
HETATM   21  C   UNL     1      41.775  -9.058   6.957  1.00  0.00     0.368 C 
HETATM   22  N   UNL     1      41.484  -8.394   8.139  1.00  0.00    -0.324 N 
HETATM   23  C   UNL     1      41.879  -8.886   9.456  1.00  0.00     0.154 C 
HETATM   24  C   UNL     1      41.185  -6.967   8.108  1.00  0.00     0.154 C 
HETATM   25  C   UNL     1      43.039  -8.034   9.993  1.00  0.00     0.187 C 
HETATM   26  O   UNL     1      42.695  -6.636  10.003  1.00  0.00    -0.388 OA
HETATM   27  C   UNL     1      42.364  -6.174   8.679  1.00  0.00     0.187 C 
HETATM   28  O   UNL     1      41.774  -8.495   5.865  1.00  0.00    -0.238 OA
ENDBRANCH  20  21
ENDBRANCH  16  20
BRANCH  18  29
HETATM   29  O   UNL     1      43.790 -11.317   5.268  1.00  0.00    -0.349 OA
BRANCH  29  30
HETATM   30  C   UNL     1      44.696 -12.021   6.116  1.00  0.00     0.171 C 
HETATM   31  C   UNL     1      45.584 -11.067   6.898  1.00  0.00     0.034 C 
ENDBRANCH  29  30
ENDBRANCH  18  29
ENDBRANCH   1  13
BRANCH   5  32
HETATM   32  N   UNL     1      42.226 -17.452   2.652  1.00  0.00    -0.282 NA
HETATM   33  H   UNL     1      42.096 -17.925   3.543  1.00  0.00     0.126 HD
HETATM   34  H   UNL     1      42.104 -18.068   1.851  1.00  0.00     0.126 HD
ENDBRANCH   5  32
BRANCH  12  35
HETATM   35  C   UNL     1      39.680 -11.268   1.452  1.00  0.00    -0.005 A 
HETATM   36  C   UNL     1      38.321 -10.988   1.605  1.00  0.00     0.016 A 
HETATM   37  C   UNL     1      37.911  -9.732   2.071  1.00  0.00     0.037 A 
HETATM   38  C   UNL     1      38.843  -8.736   2.375  1.00  0.00     0.068 A 
HETATM   39  C   UNL     1      40.198  -9.001   2.199  1.00  0.00     0.037 A 
HETATM   40  C   UNL     1      40.611 -10.256   1.741  1.00  0.00     0.016 A 
BRANCH  38  41
HETATM   41  O   UNL     1      38.309  -7.558   2.823  1.00  0.00    -0.356 OA
HETATM   42  C   UNL     1      36.890  -7.471   2.861  1.00  0.00     0.210 C 
ENDBRANCH  38  41
ENDBRANCH  12  35
TORSDOF 8
ENDMDL
