MODEL 1
REMARK VINA RESULT:     -10.6      0.000      0.000
REMARK  6 active torsions:
REMARK  status: ('A' for Active; 'I' for Inactive)
REMARK    1  A    between atoms: C_2  and  N_3 
REMARK    2  A    between atoms: C_2  and  C_32 
REMARK       I    between atoms: N_3  and  C_4 
REMARK    3  A    between atoms: C_4  and  C_5 
REMARK    4  A    between atoms: C_6  and  N_7 
REMARK       I    between atoms: N_7  and  C_8 
REMARK    5  A    between atoms: C_8  and  C_9 
REMARK    6  A    between atoms: C_9  and  N_10 
ROOT
HETATM    1  N   UNL     1      43.791 -11.584   6.414  1.00  0.00    -0.325 N 
HETATM    2  C   UNL     1      45.132 -11.270   6.243  1.00  0.00     0.240 C 
HETATM    3  O   UNL     1      45.716 -11.127   5.174  1.00  0.00    -0.271 OA
HETATM    4  H   UNL     1      43.507 -11.857   7.350  1.00  0.00     0.169 HD
ENDROOT
BRANCH   1   5
HETATM    5  C   UNL     1      42.790 -11.732   5.425  1.00  0.00     0.050 A 
HETATM    6  C   UNL     1      42.241 -13.012   5.183  1.00  0.00     0.058 A 
HETATM    7  C   UNL     1      41.174 -13.168   4.285  1.00  0.00     0.019 A 
HETATM    8  C   UNL     1      40.667 -12.067   3.599  1.00  0.00     0.001 A 
HETATM    9  C   UNL     1      41.222 -10.809   3.811  1.00  0.00     0.002 A 
HETATM   10  C   UNL     1      42.274 -10.641   4.718  1.00  0.00     0.030 A 
BRANCH   6  11
HETATM   11  C   UNL     1      42.715 -14.247   5.869  1.00  0.00     0.254 C 
HETATM   12  N   UNL     1      43.183 -15.261   5.055  1.00  0.00    -0.349 N 
HETATM   13  H   UNL     1      42.955 -15.234   4.062  1.00  0.00     0.163 HD
HETATM   14  O   UNL     1      42.676 -14.316   7.092  1.00  0.00    -0.268 OA
BRANCH  12  15
HETATM   15  C   UNL     1      43.565 -16.556   5.603  1.00  0.00     0.114 C 
HETATM   16  C   UNL     1      44.933 -16.467   6.280  1.00  0.00     0.037 C 
BRANCH  15  17
HETATM   17  C   UNL     1      43.540 -17.635   4.533  1.00  0.00    -0.036 A 
HETATM   18  C   UNL     1      43.984 -18.931   4.840  1.00  0.00     0.009 A 
HETATM   19  C   UNL     1      43.997 -19.931   3.864  1.00  0.00     0.001 A 
HETATM   20  C   UNL     1      43.562 -19.652   2.572  1.00  0.00     0.000 A 
HETATM   21  C   UNL     1      43.109 -18.375   2.252  1.00  0.00     0.001 A 
HETATM   22  C   UNL     1      43.098 -17.373   3.226  1.00  0.00     0.009 A 
ENDBRANCH  15  17
ENDBRANCH  12  15
ENDBRANCH   6  11
ENDBRANCH   1   5
BRANCH   2  23
HETATM   23  C   UNL     1      45.882 -11.225   7.575  1.00  0.00     0.240 C 
BRANCH  23  24
HETATM   24  N   UNL     1      45.263 -10.285   8.483  1.00  0.00    -0.259 N 
HETATM   25  C   UNL     1      45.489  -8.945   8.436  1.00  0.00     0.326 C 
HETATM   26  O   UNL     1      46.321  -8.356   7.767  1.00  0.00    -0.247 OA
HETATM   27  N   UNL     1      44.554  -8.317   9.221  1.00  0.00    -0.324 N 
HETATM   28  C   UNL     1      43.627  -9.241   9.840  1.00  0.00     0.120 C 
HETATM   29  H   UNL     1      44.573  -7.314   9.358  1.00  0.00     0.165 HD
HETATM   30  C   UNL     1      43.788  -9.286  11.360  1.00  0.00     0.080 C 
HETATM   31  C   UNL     1      42.174  -8.983   9.446  1.00  0.00     0.046 C 
HETATM   32  C   UNL     1      44.120 -10.542   9.189  1.00  0.00     0.257 C 
HETATM   33  C   UNL     1      43.125  -8.105  12.039  1.00  0.00    -0.049 A 
HETATM   34  C   UNL     1      42.106  -7.368  11.406  1.00  0.00    -0.052 A 
HETATM   35  C   UNL     1      43.506  -7.770  13.348  1.00  0.00     0.007 A 
HETATM   36  C   UNL     1      41.677  -7.646   9.988  1.00  0.00     0.042 C 
HETATM   37  C   UNL     1      41.511  -6.293  12.085  1.00  0.00     0.007 A 
HETATM   38  C   UNL     1      41.907  -5.962  13.380  1.00  0.00     0.001 A 
HETATM   39  C   UNL     1      42.904  -6.701  14.011  1.00  0.00     0.001 A 
HETATM   40  O   UNL     1      43.563 -11.632   9.269  1.00  0.00    -0.270 OA
ENDBRANCH  23  24
ENDBRANCH   2  23
TORSDOF 6
ENDMDL
MODEL 2
REMARK VINA RESULT:     -10.4      1.218      2.104
REMARK  6 active torsions:
REMARK  status: ('A' for Active; 'I' for Inactive)
REMARK    1  A    between atoms: C_2  and  N_3 
REMARK    2  A    between atoms: C_2  and  C_32 
REMARK       I    between atoms: N_3  and  C_4 
REMARK    3  A    between atoms: C_4  and  C_5 
REMARK    4  A    between atoms: C_6  and  N_7 
REMARK       I    between atoms: N_7  and  C_8 
REMARK    5  A    between atoms: C_8  and  C_9 
REMARK    6  A    between atoms: C_9  and  N_10 
ROOT
HETATM    1  N   UNL     1      43.950 -11.973   5.074  1.00  0.00    -0.325 N 
HETATM    2  C   UNL     1      45.261 -11.521   5.031  1.00  0.00     0.240 C 
HETATM    3  O   UNL     1      45.901 -11.240   4.023  1.00  0.00    -0.271 OA
HETATM    4  H   UNL     1      43.629 -12.345   5.964  1.00  0.00     0.169 HD
ENDROOT
BRANCH   1   5
HETATM    5  C   UNL     1      43.040 -12.136   4.003  1.00  0.00     0.050 A 
HETATM    6  C   UNL     1      42.290 -13.330   3.909  1.00  0.00     0.058 A 
HETATM    7  C   UNL     1      41.305 -13.473   2.919  1.00  0.00     0.019 A 
HETATM    8  C   UNL     1      41.080 -12.451   1.999  1.00  0.00     0.001 A 
HETATM    9  C   UNL     1      41.835 -11.284   2.068  1.00  0.00     0.002 A 
HETATM   10  C   UNL     1      42.807 -11.126   3.064  1.00  0.00     0.030 A 
BRANCH   6  11
HETATM   11  C   UNL     1      42.457 -14.476   4.846  1.00  0.00     0.254 C 
HETATM   12  N   UNL     1      43.374 -15.442   4.478  1.00  0.00    -0.349 N 
HETATM   13  H   UNL     1      43.692 -15.470   3.511  1.00  0.00     0.163 HD
HETATM   14  O   UNL     1      41.797 -14.518   5.878  1.00  0.00    -0.268 OA
BRANCH  12  15
HETATM   15  C   UNL     1      43.541 -16.663   5.256  1.00  0.00     0.114 C 
HETATM   16  C   UNL     1      44.797 -16.576   6.124  1.00  0.00     0.037 C 
BRANCH  15  17
HETATM   17  C   UNL     1      43.564 -17.888   4.359  1.00  0.00    -0.036 A 
HETATM   18  C   UNL     1      43.988 -19.122   4.874  1.00  0.00     0.009 A 
HETATM   19  C   UNL     1      44.045 -20.256   4.060  1.00  0.00     0.001 A 
HETATM   20  C   UNL     1      43.674 -20.174   2.721  1.00  0.00     0.000 A 
HETATM   21  C   UNL     1      43.241 -18.960   2.194  1.00  0.00     0.001 A 
HETATM   22  C   UNL     1      43.187 -17.825   3.007  1.00  0.00     0.009 A 
ENDBRANCH  15  17
ENDBRANCH  12  15
ENDBRANCH   6  11
ENDBRANCH   1   5
BRANCH   2  23
HETATM   23  C   UNL     1      45.908 -11.511   6.417  1.00  0.00     0.240 C 
BRANCH  23  24
HETATM   24  N   UNL     1      45.069 -10.822   7.371  1.00  0.00    -0.259 N 
HETATM   25  C   UNL     1      44.056 -11.429   8.046  1.00  0.00     0.326 C 
HETATM   26  O   UNL     1      43.606 -12.547   7.861  1.00  0.00    -0.247 OA
HETATM   27  N   UNL     1      43.651 -10.600   9.063  1.00  0.00    -0.324 N 
HETATM   28  C   UNL     1      44.406  -9.365   9.117  1.00  0.00     0.120 C 
HETATM   29  H   UNL     1      42.872 -10.846   9.662  1.00  0.00     0.165 HD
HETATM   30  C   UNL     1      43.544  -8.148   8.777  1.00  0.00     0.080 C 
HETATM   31  C   UNL     1      45.138  -9.172  10.443  1.00  0.00     0.046 C 
HETATM   32  C   UNL     1      45.419  -9.659   8.000  1.00  0.00     0.257 C 
HETATM   33  C   UNL     1      42.681  -7.717   9.945  1.00  0.00    -0.049 A 
HETATM   34  C   UNL     1      43.000  -8.074  11.269  1.00  0.00    -0.052 A 
HETATM   35  C   UNL     1      41.563  -6.903   9.703  1.00  0.00     0.007 A 
HETATM   36  C   UNL     1      44.161  -8.980  11.598  1.00  0.00     0.042 C 
HETATM   37  C   UNL     1      42.178  -7.634  12.318  1.00  0.00     0.007 A 
HETATM   38  C   UNL     1      41.064  -6.837  12.063  1.00  0.00     0.001 A 
HETATM   39  C   UNL     1      40.757  -6.471  10.755  1.00  0.00     0.001 A 
HETATM   40  O   UNL     1      46.400  -8.973   7.733  1.00  0.00    -0.270 OA
ENDBRANCH  23  24
ENDBRANCH   2  23
TORSDOF 6
ENDMDL
MODEL 3
REMARK VINA RESULT:     -10.4      1.997     10.275
REMARK  6 active torsions:
REMARK  status: ('A' for Active; 'I' for Inactive)
REMARK    1  A    between atoms: C_2  and  N_3 
REMARK    2  A    between atoms: C_2  and  C_32 
REMARK       I    between atoms: N_3  and  C_4 
REMARK    3  A    between atoms: C_4  and  C_5 
REMARK    4  A    between atoms: C_6  and  N_7 
REMARK       I    between atoms: N_7  and  C_8 
REMARK    5  A    between atoms: C_8  and  C_9 
REMARK    6  A    between atoms: C_9  and  N_10 
ROOT
HETATM    1  N   UNL     1      42.799 -11.281   7.197  1.00  0.00    -0.325 N 
HETATM    2  C   UNL     1      41.910 -10.802   6.246  1.00  0.00     0.240 C 
HETATM    3  O   UNL     1      41.991  -9.735   5.646  1.00  0.00    -0.271 OA
HETATM    4  H   UNL     1      42.492 -12.085   7.739  1.00  0.00     0.169 HD
ENDROOT
BRANCH   1   5
HETATM    5  C   UNL     1      44.017 -10.706   7.631  1.00  0.00     0.050 A 
HETATM    6  C   UNL     1      44.039  -9.954   8.827  1.00  0.00     0.058 A 
HETATM    7  C   UNL     1      45.251  -9.463   9.335  1.00  0.00     0.019 A 
HETATM    8  C   UNL     1      46.442  -9.686   8.647  1.00  0.00     0.001 A 
HETATM    9  C   UNL     1      46.424 -10.402   7.454  1.00  0.00     0.002 A 
HETATM   10  C   UNL     1      45.221 -10.910   6.950  1.00  0.00     0.030 A 
BRANCH   6  11
HETATM   11  C   UNL     1      42.819  -9.664   9.633  1.00  0.00     0.254 C 
HETATM   12  N   UNL     1      42.806 -10.150  10.926  1.00  0.00    -0.349 N 
HETATM   13  H   UNL     1      43.477 -10.873  11.182  1.00  0.00     0.163 HD
HETATM   14  O   UNL     1      41.901  -9.021   9.135  1.00  0.00    -0.268 OA
BRANCH  12  15
HETATM   15  C   UNL     1      41.624 -10.028  11.769  1.00  0.00     0.114 C 
HETATM   16  C   UNL     1      40.413  -9.610  10.934  1.00  0.00     0.037 C 
BRANCH  15  17
HETATM   17  C   UNL     1      41.867  -9.068  12.921  1.00  0.00    -0.036 A 
HETATM   18  C   UNL     1      42.959  -8.187  12.875  1.00  0.00     0.009 A 
HETATM   19  C   UNL     1      43.220  -7.315  13.936  1.00  0.00     0.001 A 
HETATM   20  C   UNL     1      42.389  -7.307  15.052  1.00  0.00     0.000 A 
HETATM   21  C   UNL     1      41.295  -8.166  15.111  1.00  0.00     0.001 A 
HETATM   22  C   UNL     1      41.036  -9.040  14.052  1.00  0.00     0.009 A 
ENDBRANCH  15  17
ENDBRANCH  12  15
ENDBRANCH   6  11
ENDBRANCH   1   5
BRANCH   2  23
HETATM   23  C   UNL     1      40.697 -11.719   6.084  1.00  0.00     0.240 C 
BRANCH  23  24
HETATM   24  N   UNL     1      41.095 -13.013   5.575  1.00  0.00    -0.259 N 
HETATM   25  C   UNL     1      40.445 -14.167   5.887  1.00  0.00     0.326 C 
HETATM   26  O   UNL     1      39.570 -14.324   6.720  1.00  0.00    -0.247 OA
HETATM   27  N   UNL     1      40.879 -15.155   5.037  1.00  0.00    -0.324 N 
HETATM   28  C   UNL     1      41.863 -14.685   4.084  1.00  0.00     0.120 C 
HETATM   29  H   UNL     1      40.550 -16.108   5.130  1.00  0.00     0.165 HD
HETATM   30  C   UNL     1      43.238 -15.312   4.320  1.00  0.00     0.080 C 
HETATM   31  C   UNL     1      41.418 -14.858   2.634  1.00  0.00     0.046 C 
HETATM   32  C   UNL     1      41.859 -13.194   4.456  1.00  0.00     0.257 C 
HETATM   33  C   UNL     1      43.324 -16.722   3.773  1.00  0.00    -0.049 A 
HETATM   34  C   UNL     1      42.443 -17.179   2.774  1.00  0.00    -0.052 A 
HETATM   35  C   UNL     1      44.335 -17.575   4.242  1.00  0.00     0.007 A 
HETATM   36  C   UNL     1      41.309 -16.332   2.255  1.00  0.00     0.042 C 
HETATM   37  C   UNL     1      42.575 -18.489   2.287  1.00  0.00     0.007 A 
HETATM   38  C   UNL     1      43.576 -19.330   2.770  1.00  0.00     0.001 A 
HETATM   39  C   UNL     1      44.455 -18.873   3.747  1.00  0.00     0.001 A 
HETATM   40  O   UNL     1      42.430 -12.306   3.833  1.00  0.00    -0.270 OA
ENDBRANCH  23  24
ENDBRANCH   2  23
TORSDOF 6
ENDMDL
MODEL 4
REMARK VINA RESULT:     -10.3      1.986      2.882
REMARK  6 active torsions:
REMARK  status: ('A' for Active; 'I' for Inactive)
REMARK    1  A    between atoms: C_2  and  N_3 
REMARK    2  A    between atoms: C_2  and  C_32 
REMARK       I    between atoms: N_3  and  C_4 
REMARK    3  A    between atoms: C_4  and  C_5 
REMARK    4  A    between atoms: C_6  and  N_7 
REMARK       I    between atoms: N_7  and  C_8 
REMARK    5  A    between atoms: C_8  and  C_9 
REMARK    6  A    between atoms: C_9  and  N_10 
ROOT
HETATM    1  N   UNL     1      42.472 -12.320   3.844  1.00  0.00    -0.325 N 
HETATM    2  C   UNL     1      42.099 -11.492   4.893  1.00  0.00     0.240 C 
HETATM    3  O   UNL     1      40.952 -11.232   5.242  1.00  0.00    -0.271 OA
HETATM    4  H   UNL     1      43.448 -12.279   3.562  1.00  0.00     0.169 HD
ENDROOT
BRANCH   1   5
HETATM    5  C   UNL     1      41.646 -13.101   3.003  1.00  0.00     0.050 A 
HETATM    6  C   UNL     1      41.379 -14.445   3.350  1.00  0.00     0.058 A 
HETATM    7  C   UNL     1      40.479 -15.209   2.591  1.00  0.00     0.019 A 
HETATM    8  C   UNL     1      39.865 -14.659   1.468  1.00  0.00     0.001 A 
HETATM    9  C   UNL     1      40.145 -13.345   1.104  1.00  0.00     0.002 A 
HETATM   10  C   UNL     1      41.028 -12.571   1.866  1.00  0.00     0.030 A 
BRANCH   6  11
HETATM   11  C   UNL     1      41.986 -15.120   4.531  1.00  0.00     0.254 C 
HETATM   12  N   UNL     1      42.926 -16.098   4.266  1.00  0.00    -0.349 N 
HETATM   13  H   UNL     1      42.975 -16.484   3.324  1.00  0.00     0.163 HD
HETATM   14  O   UNL     1      41.643 -14.791   5.661  1.00  0.00    -0.268 OA
BRANCH  12  15
HETATM   15  C   UNL     1      43.503 -16.903   5.334  1.00  0.00     0.114 C 
HETATM   16  C   UNL     1      44.820 -16.292   5.813  1.00  0.00     0.037 C 
BRANCH  15  17
HETATM   17  C   UNL     1      43.683 -18.347   4.899  1.00  0.00    -0.036 A 
HETATM   18  C   UNL     1      43.767 -18.658   3.533  1.00  0.00     0.009 A 
HETATM   19  C   UNL     1      43.904 -19.981   3.107  1.00  0.00     0.001 A 
HETATM   20  C   UNL     1      43.963 -21.012   4.041  1.00  0.00     0.000 A 
HETATM   21  C   UNL     1      43.890 -20.722   5.401  1.00  0.00     0.001 A 
HETATM   22  C   UNL     1      43.751 -19.399   5.827  1.00  0.00     0.009 A 
ENDBRANCH  15  17
ENDBRANCH  12  15
ENDBRANCH   6  11
ENDBRANCH   1   5
BRANCH   2  23
HETATM   23  C   UNL     1      43.305 -10.808   5.539  1.00  0.00     0.240 C 
BRANCH  23  24
HETATM   24  N   UNL     1      43.085 -10.609   6.954  1.00  0.00    -0.259 N 
HETATM   25  C   UNL     1      43.584 -11.441   7.908  1.00  0.00     0.326 C 
HETATM   26  O   UNL     1      44.132 -12.516   7.742  1.00  0.00    -0.247 OA
HETATM   27  N   UNL     1      43.447 -10.832   9.132  1.00  0.00    -0.324 N 
HETATM   28  C   UNL     1      42.839  -9.521   9.043  1.00  0.00     0.120 C 
HETATM   29  H   UNL     1      43.718 -11.305   9.986  1.00  0.00     0.165 HD
HETATM   30  C   UNL     1      41.458  -9.481   9.698  1.00  0.00     0.080 C 
HETATM   31  C   UNL     1      43.738  -8.409   9.581  1.00  0.00     0.046 C 
HETATM   32  C   UNL     1      42.734  -9.412   7.514  1.00  0.00     0.257 C 
HETATM   33  C   UNL     1      41.545  -9.382  11.208  1.00  0.00    -0.049 A 
HETATM   34  C   UNL     1      42.702  -8.900  11.848  1.00  0.00    -0.052 A 
HETATM   35  C   UNL     1      40.428  -9.735  11.980  1.00  0.00     0.007 A 
HETATM   36  C   UNL     1      43.953  -8.543  11.085  1.00  0.00     0.042 C 
HETATM   37  C   UNL     1      42.727  -8.811  13.249  1.00  0.00     0.007 A 
HETATM   38  C   UNL     1      41.615  -9.177  14.006  1.00  0.00     0.001 A 
HETATM   39  C   UNL     1      40.465  -9.639  13.371  1.00  0.00     0.001 A 
HETATM   40  O   UNL     1      42.410  -8.404   6.895  1.00  0.00    -0.270 OA
ENDBRANCH  23  24
ENDBRANCH   2  23
TORSDOF 6
ENDMDL
MODEL 5
REMARK VINA RESULT:     -10.3      4.275      8.459
REMARK  6 active torsions:
REMARK  status: ('A' for Active; 'I' for Inactive)
REMARK    1  A    between atoms: C_2  and  N_3 
REMARK    2  A    between atoms: C_2  and  C_32 
REMARK       I    between atoms: N_3  and  C_4 
REMARK    3  A    between atoms: C_4  and  C_5 
REMARK    4  A    between atoms: C_6  and  N_7 
REMARK       I    between atoms: N_7  and  C_8 
REMARK    5  A    between atoms: C_8  and  C_9 
REMARK    6  A    between atoms: C_9  and  N_10 
ROOT
HETATM    1  N   UNL     1      39.401 -10.438   4.898  1.00  0.00    -0.325 N 
HETATM    2  C   UNL     1      40.736 -10.309   5.252  1.00  0.00     0.240 C 
HETATM    3  O   UNL     1      41.575  -9.615   4.687  1.00  0.00    -0.271 OA
HETATM    4  H   UNL     1      38.887 -11.195   5.341  1.00  0.00     0.169 HD
ENDROOT
BRANCH   1   5
HETATM    5  C   UNL     1      38.691  -9.757   3.881  1.00  0.00     0.050 A 
HETATM    6  C   UNL     1      38.416 -10.423   2.665  1.00  0.00     0.058 A 
HETATM    7  C   UNL     1      37.623  -9.809   1.684  1.00  0.00     0.019 A 
HETATM    8  C   UNL     1      37.126  -8.523   1.885  1.00  0.00     0.001 A 
HETATM    9  C   UNL     1      37.417  -7.851   3.068  1.00  0.00     0.002 A 
HETATM   10  C   UNL     1      38.192  -8.463   4.060  1.00  0.00     0.030 A 
BRANCH   6  11
HETATM   11  C   UNL     1      38.902 -11.797   2.358  1.00  0.00     0.254 C 
HETATM   12  N   UNL     1      39.343 -12.020   1.067  1.00  0.00    -0.349 N 
HETATM   13  H   UNL     1      39.089 -11.350   0.343  1.00  0.00     0.163 HD
HETATM   14  O   UNL     1      38.896 -12.653   3.236  1.00  0.00    -0.268 OA
BRANCH  12  15
HETATM   15  C   UNL     1      39.733 -13.351   0.620  1.00  0.00     0.114 C 
HETATM   16  C   UNL     1      41.256 -13.490   0.624  1.00  0.00     0.037 C 
BRANCH  15  17
HETATM   17  C   UNL     1      39.147 -13.666  -0.745  1.00  0.00    -0.036 A 
HETATM   18  C   UNL     1      39.414 -14.904  -1.350  1.00  0.00     0.009 A 
HETATM   19  C   UNL     1      38.908 -15.205  -2.617  1.00  0.00     0.001 A 
HETATM   20  C   UNL     1      38.125 -14.276  -3.295  1.00  0.00     0.000 A 
HETATM   21  C   UNL     1      37.841 -13.046  -2.706  1.00  0.00     0.001 A 
HETATM   22  C   UNL     1      38.348 -12.743  -1.440  1.00  0.00     0.009 A 
ENDBRANCH  15  17
ENDBRANCH  12  15
ENDBRANCH   6  11
ENDBRANCH   1   5
BRANCH   2  23
HETATM   23  C   UNL     1      41.116 -11.246   6.400  1.00  0.00     0.240 C 
BRANCH  23  24
HETATM   24  N   UNL     1      41.661 -12.486   5.892  1.00  0.00    -0.259 N 
HETATM   25  C   UNL     1      42.983 -12.664   5.628  1.00  0.00     0.326 C 
HETATM   26  O   UNL     1      43.860 -11.817   5.622  1.00  0.00    -0.247 OA
HETATM   27  N   UNL     1      43.213 -14.005   5.440  1.00  0.00    -0.324 N 
HETATM   28  C   UNL     1      42.016 -14.807   5.585  1.00  0.00     0.120 C 
HETATM   29  H   UNL     1      44.131 -14.349   5.187  1.00  0.00     0.165 HD
HETATM   30  C   UNL     1      41.592 -15.451   4.265  1.00  0.00     0.080 C 
HETATM   31  C   UNL     1      42.126 -15.847   6.697  1.00  0.00     0.046 C 
HETATM   32  C   UNL     1      41.038 -13.698   6.003  1.00  0.00     0.257 C 
HETATM   33  C   UNL     1      42.420 -16.677   3.936  1.00  0.00    -0.049 A 
HETATM   34  C   UNL     1      43.120 -17.382   4.933  1.00  0.00    -0.052 A 
HETATM   35  C   UNL     1      42.451 -17.144   2.613  1.00  0.00     0.007 A 
HETATM   36  C   UNL     1      43.166 -16.912   6.366  1.00  0.00     0.042 C 
HETATM   37  C   UNL     1      43.859 -18.522   4.580  1.00  0.00     0.007 A 
HETATM   38  C   UNL     1      43.891 -18.969   3.261  1.00  0.00     0.001 A 
HETATM   39  C   UNL     1      43.187 -18.280   2.277  1.00  0.00     0.001 A 
HETATM   40  O   UNL     1      39.890 -13.875   6.396  1.00  0.00    -0.270 OA
ENDBRANCH  23  24
ENDBRANCH   2  23
TORSDOF 6
ENDMDL
MODEL 6
REMARK VINA RESULT:      -9.9      3.249      5.061
REMARK  6 active torsions:
REMARK  status: ('A' for Active; 'I' for Inactive)
REMARK    1  A    between atoms: C_2  and  N_3 
REMARK    2  A    between atoms: C_2  and  C_32 
REMARK       I    between atoms: N_3  and  C_4 
REMARK    3  A    between atoms: C_4  and  C_5 
REMARK    4  A    between atoms: C_6  and  N_7 
REMARK       I    between atoms: N_7  and  C_8 
REMARK    5  A    between atoms: C_8  and  C_9 
REMARK    6  A    between atoms: C_9  and  N_10 
ROOT
HETATM    1  N   UNL     1      39.132 -11.566   1.642  1.00  0.00    -0.325 N 
HETATM    2  C   UNL     1      39.907 -10.452   1.929  1.00  0.00     0.240 C 
HETATM    3  O   UNL     1      40.961 -10.139   1.384  1.00  0.00    -0.271 OA
HETATM    4  H   UNL     1      38.396 -11.788   2.308  1.00  0.00     0.169 HD
ENDROOT
BRANCH   1   5
HETATM    5  C   UNL     1      39.323 -12.534   0.628  1.00  0.00     0.050 A 
HETATM    6  C   UNL     1      39.860 -13.796   0.970  1.00  0.00     0.058 A 
HETATM    7  C   UNL     1      39.961 -14.809   0.004  1.00  0.00     0.019 A 
HETATM    8  C   UNL     1      39.563 -14.570  -1.309  1.00  0.00     0.001 A 
HETATM    9  C   UNL     1      39.060 -13.321  -1.659  1.00  0.00     0.002 A 
HETATM   10  C   UNL     1      38.939 -12.310  -0.698  1.00  0.00     0.030 A 
BRANCH   6  11
HETATM   11  C   UNL     1      40.311 -14.147   2.346  1.00  0.00     0.254 C 
HETATM   12  N   UNL     1      41.531 -14.789   2.449  1.00  0.00    -0.349 N 
HETATM   13  H   UNL     1      41.931 -15.212   1.612  1.00  0.00     0.163 HD
HETATM   14  O   UNL     1      39.608 -13.858   3.308  1.00  0.00    -0.268 OA
BRANCH  12  15
HETATM   15  C   UNL     1      42.022 -15.282   3.729  1.00  0.00     0.114 C 
HETATM   16  C   UNL     1      42.911 -14.234   4.399  1.00  0.00     0.037 C 
BRANCH  15  17
HETATM   17  C   UNL     1      42.744 -16.608   3.568  1.00  0.00    -0.036 A 
HETATM   18  C   UNL     1      42.489 -17.409   2.444  1.00  0.00     0.009 A 
HETATM   19  C   UNL     1      43.120 -18.645   2.288  1.00  0.00     0.001 A 
HETATM   20  C   UNL     1      44.018 -19.096   3.251  1.00  0.00     0.000 A 
HETATM   21  C   UNL     1      44.292 -18.311   4.368  1.00  0.00     0.001 A 
HETATM   22  C   UNL     1      43.659 -17.076   4.525  1.00  0.00     0.009 A 
ENDBRANCH  15  17
ENDBRANCH  12  15
ENDBRANCH   6  11
ENDBRANCH   1   5
BRANCH   2  23
HETATM   23  C   UNL     1      39.363  -9.668   3.124  1.00  0.00     0.240 C 
BRANCH  23  24
HETATM   24  N   UNL     1      40.351  -9.584   4.176  1.00  0.00    -0.259 N 
HETATM   25  C   UNL     1      41.078  -8.462   4.426  1.00  0.00     0.326 C 
HETATM   26  O   UNL     1      41.135  -7.449   3.751  1.00  0.00    -0.247 OA
HETATM   27  N   UNL     1      41.702  -8.608   5.641  1.00  0.00    -0.324 N 
HETATM   28  C   UNL     1      41.401  -9.873   6.279  1.00  0.00     0.120 C 
HETATM   29  H   UNL     1      42.332  -7.899   5.995  1.00  0.00     0.165 HD
HETATM   30  C   UNL     1      42.631 -10.777   6.373  1.00  0.00     0.080 C 
HETATM   31  C   UNL     1      40.731  -9.709   7.641  1.00  0.00     0.046 C 
HETATM   32  C   UNL     1      40.387 -10.417   5.261  1.00  0.00     0.257 C 
HETATM   33  C   UNL     1      43.548 -10.376   7.511  1.00  0.00    -0.049 A 
HETATM   34  C   UNL     1      43.082  -9.614   8.599  1.00  0.00    -0.052 A 
HETATM   35  C   UNL     1      44.881 -10.815   7.499  1.00  0.00     0.007 A 
HETATM   36  C   UNL     1      41.675  -9.074   8.656  1.00  0.00     0.042 C 
HETATM   37  C   UNL     1      43.967  -9.284   9.637  1.00  0.00     0.007 A 
HETATM   38  C   UNL     1      45.292  -9.715   9.608  1.00  0.00     0.001 A 
HETATM   39  C   UNL     1      45.749 -10.481   8.539  1.00  0.00     0.001 A 
HETATM   40  O   UNL     1      39.703 -11.423   5.409  1.00  0.00    -0.270 OA
ENDBRANCH  23  24
ENDBRANCH   2  23
TORSDOF 6
ENDMDL
MODEL 7
REMARK VINA RESULT:      -9.8      3.050      4.739
REMARK  6 active torsions:
REMARK  status: ('A' for Active; 'I' for Inactive)
REMARK    1  A    between atoms: C_2  and  N_3 
REMARK    2  A    between atoms: C_2  and  C_32 
REMARK       I    between atoms: N_3  and  C_4 
REMARK    3  A    between atoms: C_4  and  C_5 
REMARK    4  A    between atoms: C_6  and  N_7 
REMARK       I    between atoms: N_7  and  C_8 
REMARK    5  A    between atoms: C_8  and  C_9 
REMARK    6  A    between atoms: C_9  and  N_10 
ROOT
HETATM    1  N   UNL     1      41.293 -12.058   5.601  1.00  0.00    -0.325 N 
HETATM    2  C   UNL     1      42.474 -11.467   6.025  1.00  0.00     0.240 C 
HETATM    3  O   UNL     1      43.504 -12.050   6.349  1.00  0.00    -0.271 OA
HETATM    4  H   UNL     1      40.476 -11.455   5.557  1.00  0.00     0.169 HD
ENDROOT
BRANCH   1   5
HETATM    5  C   UNL     1      41.028 -13.429   5.371  1.00  0.00     0.050 A 
HETATM    6  C   UNL     1      41.294 -13.981   4.098  1.00  0.00     0.058 A 
HETATM    7  C   UNL     1      41.140 -15.358   3.875  1.00  0.00     0.019 A 
HETATM    8  C   UNL     1      40.692 -16.189   4.899  1.00  0.00     0.001 A 
HETATM    9  C   UNL     1      40.401 -15.648   6.148  1.00  0.00     0.002 A 
HETATM   10  C   UNL     1      40.569 -14.278   6.383  1.00  0.00     0.030 A 
BRANCH   6  11
HETATM   11  C   UNL     1      41.777 -13.174   2.942  1.00  0.00     0.254 C 
HETATM   12  N   UNL     1      40.815 -12.748   2.045  1.00  0.00    -0.349 N 
HETATM   13  H   UNL     1      39.900 -13.195   2.061  1.00  0.00     0.163 HD
HETATM   14  O   UNL     1      42.972 -12.923   2.834  1.00  0.00    -0.268 OA
BRANCH  12  15
HETATM   15  C   UNL     1      41.181 -12.050   0.819  1.00  0.00     0.114 C 
HETATM   16  C   UNL     1      40.709 -10.597   0.870  1.00  0.00     0.037 C 
BRANCH  15  17
HETATM   17  C   UNL     1      40.641 -12.771  -0.405  1.00  0.00    -0.036 A 
HETATM   18  C   UNL     1      39.899 -13.951  -0.248  1.00  0.00     0.009 A 
HETATM   19  C   UNL     1      39.417 -14.646  -1.360  1.00  0.00     0.001 A 
HETATM   20  C   UNL     1      39.666 -14.169  -2.643  1.00  0.00     0.000 A 
HETATM   21  C   UNL     1      40.392 -12.993  -2.818  1.00  0.00     0.001 A 
HETATM   22  C   UNL     1      40.877 -12.300  -1.707  1.00  0.00     0.009 A 
ENDBRANCH  15  17
ENDBRANCH  12  15
ENDBRANCH   6  11
ENDBRANCH   1   5
BRANCH   2  23
HETATM   23  C   UNL     1      42.335  -9.951   6.167  1.00  0.00     0.240 C 
BRANCH  23  24
HETATM   24  N   UNL     1      42.228  -9.573   7.559  1.00  0.00    -0.259 N 
HETATM   25  C   UNL     1      41.086  -9.717   8.283  1.00  0.00     0.326 C 
HETATM   26  O   UNL     1      39.980 -10.022   7.872  1.00  0.00    -0.247 OA
HETATM   27  N   UNL     1      41.387  -9.542   9.612  1.00  0.00    -0.324 N 
HETATM   28  C   UNL     1      42.792  -9.274   9.840  1.00  0.00     0.120 C 
HETATM   29  H   UNL     1      40.664  -9.565  10.321  1.00  0.00     0.165 HD
HETATM   30  C   UNL     1      43.029  -7.857  10.363  1.00  0.00     0.080 C 
HETATM   31  C   UNL     1      43.460 -10.313  10.737  1.00  0.00     0.046 C 
HETATM   32  C   UNL     1      43.299  -9.427   8.398  1.00  0.00     0.257 C 
HETATM   33  C   UNL     1      42.726  -7.736  11.843  1.00  0.00    -0.049 A 
HETATM   34  C   UNL     1      42.713  -8.864  12.685  1.00  0.00    -0.052 A 
HETATM   35  C   UNL     1      42.498  -6.465  12.391  1.00  0.00     0.007 A 
HETATM   36  C   UNL     1      42.907 -10.263  12.158  1.00  0.00     0.042 C 
HETATM   37  C   UNL     1      42.444  -8.697  14.053  1.00  0.00     0.007 A 
HETATM   38  C   UNL     1      42.207  -7.431  14.584  1.00  0.00     0.001 A 
HETATM   39  C   UNL     1      42.235  -6.314  13.752  1.00  0.00     0.001 A 
HETATM   40  O   UNL     1      44.477  -9.441   8.057  1.00  0.00    -0.270 OA
ENDBRANCH  23  24
ENDBRANCH   2  23
TORSDOF 6
ENDMDL
MODEL 8
REMARK VINA RESULT:      -9.7      2.940      4.870
REMARK  6 active torsions:
REMARK  status: ('A' for Active; 'I' for Inactive)
REMARK    1  A    between atoms: C_2  and  N_3 
REMARK    2  A    between atoms: C_2  and  C_32 
REMARK       I    between atoms: N_3  and  C_4 
REMARK    3  A    between atoms: C_4  and  C_5 
REMARK    4  A    between atoms: C_6  and  N_7 
REMARK       I    between atoms: N_7  and  C_8 
REMARK    5  A    between atoms: C_8  and  C_9 
REMARK    6  A    between atoms: C_9  and  N_10 
ROOT
HETATM    1  N   UNL     1      38.997 -11.880   2.466  1.00  0.00    -0.325 N 
HETATM    2  C   UNL     1      39.500 -10.634   2.810  1.00  0.00     0.240 C 
HETATM    3  O   UNL     1      40.364 -10.006   2.206  1.00  0.00    -0.271 OA
HETATM    4  H   UNL     1      38.432 -12.349   3.169  1.00  0.00     0.169 HD
ENDROOT
BRANCH   1   5
HETATM    5  C   UNL     1      39.292 -12.664   1.326  1.00  0.00     0.050 A 
HETATM    6  C   UNL     1      39.969 -13.894   1.488  1.00  0.00     0.058 A 
HETATM    7  C   UNL     1      40.180 -14.739   0.388  1.00  0.00     0.019 A 
HETATM    8  C   UNL     1      39.751 -14.359  -0.882  1.00  0.00     0.001 A 
HETATM    9  C   UNL     1      39.109 -13.136  -1.054  1.00  0.00     0.002 A 
HETATM   10  C   UNL     1      38.879 -12.296   0.041  1.00  0.00     0.030 A 
BRANCH   6  11
HETATM   11  C   UNL     1      40.464 -14.386   2.805  1.00  0.00     0.254 C 
HETATM   12  N   UNL     1      41.677 -15.049   2.798  1.00  0.00    -0.349 N 
HETATM   13  H   UNL     1      42.041 -15.389   1.909  1.00  0.00     0.163 HD
HETATM   14  O   UNL     1      39.799 -14.189   3.815  1.00  0.00    -0.268 OA
BRANCH  12  15
HETATM   15  C   UNL     1      42.205 -15.674   4.003  1.00  0.00     0.114 C 
HETATM   16  C   UNL     1      43.196 -14.739   4.699  1.00  0.00     0.037 C 
BRANCH  15  17
HETATM   17  C   UNL     1      42.831 -17.023   3.695  1.00  0.00    -0.036 A 
HETATM   18  C   UNL     1      43.687 -17.624   4.630  1.00  0.00     0.009 A 
HETATM   19  C   UNL     1      44.297 -18.851   4.355  1.00  0.00     0.001 A 
HETATM   20  C   UNL     1      44.054 -19.496   3.146  1.00  0.00     0.000 A 
HETATM   21  C   UNL     1      43.199 -18.920   2.211  1.00  0.00     0.001 A 
HETATM   22  C   UNL     1      42.592 -17.692   2.483  1.00  0.00     0.009 A 
ENDBRANCH  15  17
ENDBRANCH  12  15
ENDBRANCH   6  11
ENDBRANCH   1   5
BRANCH   2  23
HETATM   23  C   UNL     1      38.936 -10.137   4.142  1.00  0.00     0.240 C 
BRANCH  23  24
HETATM   24  N   UNL     1      39.933 -10.218   5.185  1.00  0.00    -0.259 N 
HETATM   25  C   UNL     1      40.004 -11.250   6.068  1.00  0.00     0.326 C 
HETATM   26  O   UNL     1      39.196 -12.149   6.225  1.00  0.00    -0.247 OA
HETATM   27  N   UNL     1      41.206 -11.177   6.729  1.00  0.00    -0.324 N 
HETATM   28  C   UNL     1      42.019 -10.060   6.295  1.00  0.00     0.120 C 
HETATM   29  H   UNL     1      41.440 -11.831   7.466  1.00  0.00     0.165 HD
HETATM   30  C   UNL     1      42.194  -9.013   7.396  1.00  0.00     0.080 C 
HETATM   31  C   UNL     1      43.368 -10.491   5.725  1.00  0.00     0.046 C 
HETATM   32  C   UNL     1      41.119  -9.536   5.166  1.00  0.00     0.257 C 
HETATM   33  C   UNL     1      43.235  -9.425   8.417  1.00  0.00    -0.049 A 
HETATM   34  C   UNL     1      44.225 -10.379   8.114  1.00  0.00    -0.052 A 
HETATM   35  C   UNL     1      43.238  -8.807   9.676  1.00  0.00     0.007 A 
HETATM   36  C   UNL     1      44.256 -11.114   6.797  1.00  0.00     0.042 C 
HETATM   37  C   UNL     1      45.178 -10.715   9.088  1.00  0.00     0.007 A 
HETATM   38  C   UNL     1      45.163 -10.102  10.340  1.00  0.00     0.001 A 
HETATM   39  C   UNL     1      44.193  -9.148  10.633  1.00  0.00     0.001 A 
HETATM   40  O   UNL     1      41.425  -8.663   4.362  1.00  0.00    -0.270 OA
ENDBRANCH  23  24
ENDBRANCH   2  23
TORSDOF 6
ENDMDL
MODEL 9
REMARK VINA RESULT:      -9.7      4.413      6.756
REMARK  6 active torsions:
REMARK  status: ('A' for Active; 'I' for Inactive)
REMARK    1  A    between atoms: C_2  and  N_3 
REMARK    2  A    between atoms: C_2  and  C_32 
REMARK       I    between atoms: N_3  and  C_4 
REMARK    3  A    between atoms: C_4  and  C_5 
REMARK    4  A    between atoms: C_6  and  N_7 
REMARK       I    between atoms: N_7  and  C_8 
REMARK    5  A    between atoms: C_8  and  C_9 
REMARK    6  A    between atoms: C_9  and  N_10 
ROOT
HETATM    1  N   UNL     1      38.564 -11.603   0.434  1.00  0.00    -0.325 N 
HETATM    2  C   UNL     1      38.832 -10.242   0.432  1.00  0.00     0.240 C 
HETATM    3  O   UNL     1      39.359  -9.605  -0.475  1.00  0.00    -0.271 OA
HETATM    4  H   UNL     1      38.306 -12.011   1.328  1.00  0.00     0.169 HD
ENDROOT
BRANCH   1   5
HETATM    5  C   UNL     1      38.756 -12.538  -0.610  1.00  0.00     0.050 A 
HETATM    6  C   UNL     1      39.908 -13.357  -0.602  1.00  0.00     0.058 A 
HETATM    7  C   UNL     1      40.068 -14.365  -1.565  1.00  0.00     0.019 A 
HETATM    8  C   UNL     1      39.109 -14.546  -2.559  1.00  0.00     0.001 A 
HETATM    9  C   UNL     1      37.986 -13.725  -2.589  1.00  0.00     0.002 A 
HETATM   10  C   UNL     1      37.809 -12.729  -1.621  1.00  0.00     0.030 A 
BRANCH   6  11
HETATM   11  C   UNL     1      40.987 -13.240   0.419  1.00  0.00     0.254 C 
HETATM   12  N   UNL     1      41.517 -14.425   0.893  1.00  0.00    -0.349 N 
HETATM   13  H   UNL     1      41.001 -15.289   0.732  1.00  0.00     0.163 HD
HETATM   14  O   UNL     1      41.355 -12.131   0.788  1.00  0.00    -0.268 OA
BRANCH  12  15
HETATM   15  C   UNL     1      42.495 -14.439   1.972  1.00  0.00     0.114 C 
HETATM   16  C   UNL     1      43.744 -15.214   1.552  1.00  0.00     0.037 C 
BRANCH  15  17
HETATM   17  C   UNL     1      41.894 -14.997   3.251  1.00  0.00    -0.036 A 
HETATM   18  C   UNL     1      42.577 -14.842   4.467  1.00  0.00     0.009 A 
HETATM   19  C   UNL     1      42.058 -15.372   5.652  1.00  0.00     0.001 A 
HETATM   20  C   UNL     1      40.847 -16.057   5.637  1.00  0.00     0.000 A 
HETATM   21  C   UNL     1      40.150 -16.212   4.442  1.00  0.00     0.001 A 
HETATM   22  C   UNL     1      40.670 -15.685   3.257  1.00  0.00     0.009 A 
ENDBRANCH  15  17
ENDBRANCH  12  15
ENDBRANCH   6  11
ENDBRANCH   1   5
BRANCH   2  23
HETATM   23  C   UNL     1      38.499  -9.591   1.776  1.00  0.00     0.240 C 
BRANCH  23  24
HETATM   24  N   UNL     1      39.606  -9.717   2.697  1.00  0.00    -0.259 N 
HETATM   25  C   UNL     1      40.380  -8.666   3.078  1.00  0.00     0.326 C 
HETATM   26  O   UNL     1      40.377  -7.537   2.619  1.00  0.00    -0.247 OA
HETATM   27  N   UNL     1      41.141  -9.052   4.154  1.00  0.00    -0.324 N 
HETATM   28  C   UNL     1      40.892 -10.421   4.556  1.00  0.00     0.120 C 
HETATM   29  H   UNL     1      41.822  -8.427   4.566  1.00  0.00     0.165 HD
HETATM   30  C   UNL     1      42.106 -11.320   4.318  1.00  0.00     0.080 C 
HETATM   31  C   UNL     1      40.391 -10.539   5.994  1.00  0.00     0.046 C 
HETATM   32  C   UNL     1      39.754 -10.752   3.579  1.00  0.00     0.257 C 
HETATM   33  C   UNL     1      43.160 -11.154   5.394  1.00  0.00    -0.049 A 
HETATM   34  C   UNL     1      42.841 -10.630   6.661  1.00  0.00    -0.052 A 
HETATM   35  C   UNL     1      44.473 -11.576   5.134  1.00  0.00     0.007 A 
HETATM   36  C   UNL     1      41.462 -10.118   6.995  1.00  0.00     0.042 C 
HETATM   37  C   UNL     1      43.849 -10.512   7.631  1.00  0.00     0.007 A 
HETATM   38  C   UNL     1      45.153 -10.923   7.356  1.00  0.00     0.001 A 
HETATM   39  C   UNL     1      45.464 -11.455   6.108  1.00  0.00     0.001 A 
HETATM   40  O   UNL     1      39.072 -11.770   3.602  1.00  0.00    -0.270 OA
ENDBRANCH  23  24
ENDBRANCH   2  23
TORSDOF 6
ENDMDL
MODEL 10
REMARK VINA RESULT:      -9.6      3.808      5.608
REMARK  6 active torsions:
REMARK  status: ('A' for Active; 'I' for Inactive)
REMARK    1  A    between atoms: C_2  and  N_3 
REMARK    2  A    between atoms: C_2  and  C_32 
REMARK       I    between atoms: N_3  and  C_4 
REMARK    3  A    between atoms: C_4  and  C_5 
REMARK    4  A    between atoms: C_6  and  N_7 
REMARK       I    between atoms: N_7  and  C_8 
REMARK    5  A    between atoms: C_8  and  C_9 
REMARK    6  A    between atoms: C_9  and  N_10 
ROOT
HETATM    1  N   UNL     1      40.666 -12.356   4.814  1.00  0.00    -0.325 N 
HETATM    2  C   UNL     1      39.773 -11.742   5.680  1.00  0.00     0.240 C 
HETATM    3  O   UNL     1      38.819 -12.273   6.238  1.00  0.00    -0.271 OA
HETATM    4  H   UNL     1      41.279 -11.741   4.286  1.00  0.00     0.169 HD
ENDROOT
BRANCH   1   5
HETATM    5  C   UNL     1      40.734 -13.719   4.442  1.00  0.00     0.050 A 
HETATM    6  C   UNL     1      40.699 -14.065   3.071  1.00  0.00     0.058 A 
HETATM    7  C   UNL     1      40.872 -15.399   2.671  1.00  0.00     0.019 A 
HETATM    8  C   UNL     1      41.048 -16.400   3.624  1.00  0.00     0.001 A 
HETATM    9  C   UNL     1      41.055 -16.071   4.976  1.00  0.00     0.002 A 
HETATM   10  C   UNL     1      40.901 -14.740   5.383  1.00  0.00     0.030 A 
BRANCH   6  11
HETATM   11  C   UNL     1      40.518 -13.066   1.981  1.00  0.00     0.254 C 
HETATM   12  N   UNL     1      39.326 -13.126   1.284  1.00  0.00    -0.349 N 
HETATM   13  H   UNL     1      38.758 -13.968   1.360  1.00  0.00     0.163 HD
HETATM   14  O   UNL     1      41.404 -12.250   1.752  1.00  0.00    -0.268 OA
BRANCH  12  15
HETATM   15  C   UNL     1      39.083 -12.276   0.125  1.00  0.00     0.114 C 
HETATM   16  C   UNL     1      38.008 -11.235   0.441  1.00  0.00     0.037 C 
BRANCH  15  17
HETATM   17  C   UNL     1      38.719 -13.103  -1.096  1.00  0.00    -0.036 A 
HETATM   18  C   UNL     1      39.500 -14.216  -1.442  1.00  0.00     0.009 A 
HETATM   19  C   UNL     1      39.202 -14.974  -2.577  1.00  0.00     0.001 A 
HETATM   20  C   UNL     1      38.116 -14.634  -3.378  1.00  0.00     0.000 A 
HETATM   21  C   UNL     1      37.323 -13.538  -3.045  1.00  0.00     0.001 A 
HETATM   22  C   UNL     1      37.623 -12.778  -1.912  1.00  0.00     0.009 A 
ENDBRANCH  15  17
ENDBRANCH  12  15
ENDBRANCH   6  11
ENDBRANCH   1   5
BRANCH   2  23
HETATM   23  C   UNL     1      40.030 -10.239   5.795  1.00  0.00     0.240 C 
BRANCH  23  24
HETATM   24  N   UNL     1      40.572  -9.908   7.094  1.00  0.00    -0.259 N 
HETATM   25  C   UNL     1      41.877 -10.103   7.427  1.00  0.00     0.326 C 
HETATM   26  O   UNL     1      42.725 -10.699   6.786  1.00  0.00    -0.247 OA
HETATM   27  N   UNL     1      42.131  -9.437   8.601  1.00  0.00    -0.324 N 
HETATM   28  C   UNL     1      40.971  -8.737   9.113  1.00  0.00     0.120 C 
HETATM   29  H   UNL     1      43.038  -9.490   9.048  1.00  0.00     0.165 HD
HETATM   30  C   UNL     1      40.472  -9.338  10.428  1.00  0.00     0.080 C 
HETATM   31  C   UNL     1      41.192  -7.232   9.243  1.00  0.00     0.046 C 
HETATM   32  C   UNL     1      39.994  -9.024   7.963  1.00  0.00     0.257 C 
HETATM   33  C   UNL     1      41.309  -8.898  11.611  1.00  0.00    -0.049 A 
HETATM   34  C   UNL     1      42.100  -7.735  11.562  1.00  0.00    -0.052 A 
HETATM   35  C   UNL     1      41.257  -9.645  12.799  1.00  0.00     0.007 A 
HETATM   36  C   UNL     1      42.236  -6.909  10.307  1.00  0.00     0.042 C 
HETATM   37  C   UNL     1      42.844  -7.360  12.691  1.00  0.00     0.007 A 
HETATM   38  C   UNL     1      42.794  -8.116  13.861  1.00  0.00     0.001 A 
HETATM   39  C   UNL     1      42.000  -9.259  13.914  1.00  0.00     0.001 A 
HETATM   40  O   UNL     1      38.884  -8.521   7.833  1.00  0.00    -0.270 OA
ENDBRANCH  23  24
ENDBRANCH   2  23
TORSDOF 6
ENDMDL
