MODEL 1
REMARK VINA RESULT:      -8.1      0.000      0.000
REMARK  5 active torsions:
REMARK  status: ('A' for Active; 'I' for Inactive)
REMARK    1  A    between atoms: C_2  and  O_3 
REMARK    2  A    between atoms: O_3  and  C_4 
REMARK    3  A    between atoms: C_7  and  C_8 
REMARK       I    between atoms: C_8  and  N_9 
REMARK    4  A    between atoms: N_9  and  N_10 
REMARK    5  A    between atoms: C_11  and  C_12 
ROOT
HETATM    1  C   UNL     1      44.491 -11.399   7.787  1.00  0.00     0.271 C 
HETATM    2  N   UNL     1      43.565 -12.398   7.524  1.00  0.00    -0.243 N 
HETATM    3  O   UNL     1      45.594 -11.302   7.256  1.00  0.00    -0.266 OA
HETATM    4  H   UNL     1      42.720 -12.487   8.072  1.00  0.00     0.192 HD
ENDROOT
BRANCH   2   5
HETATM    5  N   UNL     1      43.898 -13.403   6.658  1.00  0.00    -0.183 NA
HETATM    6  C   UNL     1      43.279 -14.525   6.819  1.00  0.00     0.152 C 
BRANCH   6   7
HETATM    7  C   UNL     1      43.612 -15.646   5.963  1.00  0.00     0.011 A 
HETATM    8  C   UNL     1      42.965 -16.047   4.749  1.00  0.00     0.005 A 
HETATM    9  C   UNL     1      43.622 -17.190   4.285  1.00  0.00     0.043 A 
HETATM   10  C   UNL     1      41.883 -15.543   3.995  1.00  0.00     0.033 A 
HETATM   11  C   UNL     1      43.252 -17.858   3.111  1.00  0.00     0.031 A 
HETATM   12  N   UNL     1      44.630 -17.471   5.178  1.00  0.00    -0.364 N 
HETATM   13  C   UNL     1      42.178 -17.340   2.381  1.00  0.00     0.021 A 
HETATM   14  C   UNL     1      41.509 -16.201   2.819  1.00  0.00     0.012 A 
HETATM   15 BR   UNL     1      40.064 -15.522   1.800  1.00  0.00    -0.051 Br
HETATM   16  H   UNL     1      45.274 -18.246   5.098  1.00  0.00     0.165 HD
HETATM   17  C   UNL     1      44.635 -16.549   6.186  1.00  0.00     0.102 A 
ENDBRANCH   6   7
ENDBRANCH   2   5
BRANCH   1  18
HETATM   18  C   UNL     1      44.104 -10.405   8.831  1.00  0.00     0.033 A 
HETATM   19  C   UNL     1      42.887  -9.716   8.811  1.00  0.00     0.020 A 
HETATM   20  C   UNL     1      42.581  -8.814   9.837  1.00  0.00     0.038 A 
HETATM   21  C   UNL     1      43.481  -8.580  10.881  1.00  0.00     0.068 A 
HETATM   22  C   UNL     1      44.707  -9.244  10.884  1.00  0.00     0.038 A 
HETATM   23  C   UNL     1      45.016 -10.150   9.863  1.00  0.00     0.020 A 
BRANCH  21  24
HETATM   24  O   UNL     1      43.049  -7.686  11.820  1.00  0.00    -0.352 OA
BRANCH  24  25
HETATM   25  C   UNL     1      42.818  -8.189  13.136  1.00  0.00     0.171 C 
HETATM   26  C   UNL     1      43.167  -7.093  14.127  1.00  0.00     0.034 C 
ENDBRANCH  24  25
ENDBRANCH  21  24
ENDBRANCH   1  18
TORSDOF 5
ENDMDL
MODEL 2
REMARK VINA RESULT:      -7.9      2.109      2.698
REMARK  5 active torsions:
REMARK  status: ('A' for Active; 'I' for Inactive)
REMARK    1  A    between atoms: C_2  and  O_3 
REMARK    2  A    between atoms: O_3  and  C_4 
REMARK    3  A    between atoms: C_7  and  C_8 
REMARK       I    between atoms: C_8  and  N_9 
REMARK    4  A    between atoms: N_9  and  N_10 
REMARK    5  A    between atoms: C_11  and  C_12 
ROOT
HETATM    1  C   UNL     1      44.620 -10.996   6.863  1.00  0.00     0.271 C 
HETATM    2  N   UNL     1      43.437 -11.289   6.199  1.00  0.00    -0.243 N 
HETATM    3  O   UNL     1      45.746 -11.236   6.438  1.00  0.00    -0.266 OA
HETATM    4  H   UNL     1      42.539 -11.167   6.648  1.00  0.00     0.192 HD
ENDROOT
BRANCH   2   5
HETATM    5  N   UNL     1      43.492 -11.954   5.005  1.00  0.00    -0.183 NA
HETATM    6  C   UNL     1      42.718 -12.981   4.885  1.00  0.00     0.152 C 
BRANCH   6   7
HETATM    7  C   UNL     1      42.754 -13.757   3.663  1.00  0.00     0.011 A 
HETATM    8  C   UNL     1      43.036 -15.154   3.517  1.00  0.00     0.005 A 
HETATM    9  C   UNL     1      42.973 -15.452   2.154  1.00  0.00     0.043 A 
HETATM   10  C   UNL     1      43.336 -16.199   4.419  1.00  0.00     0.033 A 
HETATM   11  C   UNL     1      43.198 -16.736   1.643  1.00  0.00     0.031 A 
HETATM   12  N   UNL     1      42.661 -14.284   1.496  1.00  0.00    -0.364 N 
HETATM   13  C   UNL     1      43.492 -17.755   2.553  1.00  0.00     0.021 A 
HETATM   14  C   UNL     1      43.558 -17.486   3.918  1.00  0.00     0.012 A 
HETATM   15 BR   UNL     1      43.951 -18.891   5.125  1.00  0.00    -0.051 Br
HETATM   16  H   UNL     1      42.548 -14.197   0.495  1.00  0.00     0.165 HD
HETATM   17  C   UNL     1      42.523 -13.263   2.392  1.00  0.00     0.102 A 
ENDBRANCH   6   7
ENDBRANCH   2   5
BRANCH   1  18
HETATM   18  C   UNL     1      44.476 -10.378   8.214  1.00  0.00     0.033 A 
HETATM   19  C   UNL     1      45.536 -10.279   9.122  1.00  0.00     0.020 A 
HETATM   20  C   UNL     1      45.333  -9.666  10.364  1.00  0.00     0.038 A 
HETATM   21  C   UNL     1      44.080  -9.158  10.719  1.00  0.00     0.068 A 
HETATM   22  C   UNL     1      43.017  -9.284   9.827  1.00  0.00     0.038 A 
HETATM   23  C   UNL     1      43.214  -9.893   8.582  1.00  0.00     0.020 A 
BRANCH  21  24
HETATM   24  O   UNL     1      44.028  -8.576  11.955  1.00  0.00    -0.352 OA
BRANCH  24  25
HETATM   25  C   UNL     1      42.732  -8.350  12.511  1.00  0.00     0.171 C 
HETATM   26  C   UNL     1      42.905  -7.600  13.819  1.00  0.00     0.034 C 
ENDBRANCH  24  25
ENDBRANCH  21  24
ENDBRANCH   1  18
TORSDOF 5
ENDMDL
MODEL 3
REMARK VINA RESULT:      -7.5      7.379     10.254
REMARK  5 active torsions:
REMARK  status: ('A' for Active; 'I' for Inactive)
REMARK    1  A    between atoms: C_2  and  O_3 
REMARK    2  A    between atoms: O_3  and  C_4 
REMARK    3  A    between atoms: C_7  and  C_8 
REMARK       I    between atoms: C_8  and  N_9 
REMARK    4  A    between atoms: N_9  and  N_10 
REMARK    5  A    between atoms: C_11  and  C_12 
ROOT
HETATM    1  C   UNL     1      40.904 -15.324   2.029  1.00  0.00     0.271 C 
HETATM    2  N   UNL     1      41.371 -14.787   0.838  1.00  0.00    -0.243 N 
HETATM    3  O   UNL     1      39.804 -15.095   2.523  1.00  0.00    -0.266 OA
HETATM    4  H   UNL     1      42.328 -14.927   0.539  1.00  0.00     0.192 HD
ENDROOT
BRANCH   2   5
HETATM    5  N   UNL     1      40.598 -13.879   0.169  1.00  0.00    -0.183 NA
HETATM    6  C   UNL     1      40.232 -14.210  -1.025  1.00  0.00     0.152 C 
BRANCH   6   7
HETATM    7  C   UNL     1      39.445 -13.279  -1.808  1.00  0.00     0.011 A 
HETATM    8  C   UNL     1      39.738 -11.906  -2.095  1.00  0.00     0.005 A 
HETATM    9  C   UNL     1      38.687 -11.409  -2.870  1.00  0.00     0.043 A 
HETATM   10  C   UNL     1      40.803 -11.036  -1.772  1.00  0.00     0.033 A 
HETATM   11  C   UNL     1      38.641 -10.089  -3.335  1.00  0.00     0.031 A 
HETATM   12  N   UNL     1      37.792 -12.439  -3.051  1.00  0.00    -0.364 N 
HETATM   13  C   UNL     1      39.706  -9.246  -3.004  1.00  0.00     0.021 A 
HETATM   14  C   UNL     1      40.768  -9.717  -2.236  1.00  0.00     0.012 A 
HETATM   15 BR   UNL     1      42.198  -8.551  -1.814  1.00  0.00    -0.051 Br
HETATM   16  H   UNL     1      36.931 -12.370  -3.576  1.00  0.00     0.165 HD
HETATM   17  C   UNL     1      38.240 -13.565  -2.422  1.00  0.00     0.102 A 
ENDBRANCH   6   7
ENDBRANCH   2   5
BRANCH   1  18
HETATM   18  C   UNL     1      41.852 -16.213   2.763  1.00  0.00     0.033 A 
HETATM   19  C   UNL     1      41.987 -16.198   4.156  1.00  0.00     0.020 A 
HETATM   20  C   UNL     1      42.880 -17.077   4.778  1.00  0.00     0.038 A 
HETATM   21  C   UNL     1      43.653 -17.968   4.027  1.00  0.00     0.068 A 
HETATM   22  C   UNL     1      43.542 -17.962   2.638  1.00  0.00     0.038 A 
HETATM   23  C   UNL     1      42.647 -17.087   2.010  1.00  0.00     0.020 A 
BRANCH  21  24
HETATM   24  O   UNL     1      44.473 -18.776   4.764  1.00  0.00    -0.352 OA
BRANCH  24  25
HETATM   25  C   UNL     1      43.846 -19.652   5.701  1.00  0.00     0.171 C 
HETATM   26  C   UNL     1      43.843 -21.050   5.111  1.00  0.00     0.034 C 
ENDBRANCH  24  25
ENDBRANCH  21  24
ENDBRANCH   1  18
TORSDOF 5
ENDMDL
MODEL 4
REMARK VINA RESULT:      -7.4      6.326      9.630
REMARK  5 active torsions:
REMARK  status: ('A' for Active; 'I' for Inactive)
REMARK    1  A    between atoms: C_2  and  O_3 
REMARK    2  A    between atoms: O_3  and  C_4 
REMARK    3  A    between atoms: C_7  and  C_8 
REMARK       I    between atoms: C_8  and  N_9 
REMARK    4  A    between atoms: N_9  and  N_10 
REMARK    5  A    between atoms: C_11  and  C_12 
ROOT
HETATM    1  C   UNL     1      40.039 -14.309   0.822  1.00  0.00     0.271 C 
HETATM    2  N   UNL     1      40.573 -13.706   1.951  1.00  0.00    -0.243 N 
HETATM    3  O   UNL     1      39.889 -15.519   0.673  1.00  0.00    -0.266 OA
HETATM    4  H   UNL     1      40.773 -12.714   1.971  1.00  0.00     0.192 HD
ENDROOT
BRANCH   2   5
HETATM    5  N   UNL     1      41.036 -14.492   2.970  1.00  0.00    -0.183 NA
HETATM    6  C   UNL     1      42.318 -14.634   3.046  1.00  0.00     0.152 C 
BRANCH   6   7
HETATM    7  C   UNL     1      42.876 -15.486   4.076  1.00  0.00     0.011 A 
HETATM    8  C   UNL     1      43.247 -16.866   3.967  1.00  0.00     0.005 A 
HETATM    9  C   UNL     1      43.723 -17.269   5.218  1.00  0.00     0.043 A 
HETATM   10  C   UNL     1      43.228 -17.813   2.921  1.00  0.00     0.033 A 
HETATM   11  C   UNL     1      44.175 -18.568   5.480  1.00  0.00     0.031 A 
HETATM   12  N   UNL     1      43.648 -16.177   6.053  1.00  0.00    -0.364 N 
HETATM   13  C   UNL     1      44.147 -19.489   4.428  1.00  0.00     0.021 A 
HETATM   14  C   UNL     1      43.682 -19.113   3.171  1.00  0.00     0.012 A 
HETATM   15 BR   UNL     1      43.667 -20.383   1.767  1.00  0.00    -0.051 Br
HETATM   16  H   UNL     1      43.927 -16.173   7.024  1.00  0.00     0.165 HD
HETATM   17  C   UNL     1      43.146 -15.102   5.376  1.00  0.00     0.102 A 
ENDBRANCH   6   7
ENDBRANCH   2   5
BRANCH   1  18
HETATM   18  C   UNL     1      39.666 -13.394  -0.296  1.00  0.00     0.033 A 
HETATM   19  C   UNL     1      39.797 -12.003  -0.217  1.00  0.00     0.020 A 
HETATM   20  C   UNL     1      39.448 -11.208  -1.315  1.00  0.00     0.038 A 
HETATM   21  C   UNL     1      38.958 -11.782  -2.492  1.00  0.00     0.068 A 
HETATM   22  C   UNL     1      38.798 -13.164  -2.560  1.00  0.00     0.038 A 
HETATM   23  C   UNL     1      39.149 -13.965  -1.466  1.00  0.00     0.020 A 
BRANCH  21  24
HETATM   24  O   UNL     1      38.669 -10.890  -3.486  1.00  0.00    -0.352 OA
BRANCH  24  25
HETATM   25  C   UNL     1      37.697  -9.886  -3.193  1.00  0.00     0.171 C 
HETATM   26  C   UNL     1      36.332 -10.549  -3.158  1.00  0.00     0.034 C 
ENDBRANCH  24  25
ENDBRANCH  21  24
ENDBRANCH   1  18
TORSDOF 5
ENDMDL
MODEL 5
REMARK VINA RESULT:      -7.3     17.884     19.568
REMARK  5 active torsions:
REMARK  status: ('A' for Active; 'I' for Inactive)
REMARK    1  A    between atoms: C_2  and  O_3 
REMARK    2  A    between atoms: O_3  and  C_4 
REMARK    3  A    between atoms: C_7  and  C_8 
REMARK       I    between atoms: C_8  and  N_9 
REMARK    4  A    between atoms: N_9  and  N_10 
REMARK    5  A    between atoms: C_11  and  C_12 
ROOT
HETATM    1  C   UNL     1      41.669 -30.663   2.760  1.00  0.00     0.271 C 
HETATM    2  N   UNL     1      42.833 -30.188   3.347  1.00  0.00    -0.243 N 
HETATM    3  O   UNL     1      41.362 -30.516   1.581  1.00  0.00    -0.266 OA
HETATM    4  H   UNL     1      42.978 -30.246   4.347  1.00  0.00     0.192 HD
ENDROOT
BRANCH   2   5
HETATM    5  N   UNL     1      43.697 -29.439   2.598  1.00  0.00    -0.183 NA
HETATM    6  C   UNL     1      44.861 -29.956   2.380  1.00  0.00     0.152 C 
BRANCH   6   7
HETATM    7  C   UNL     1      45.843 -29.201   1.629  1.00  0.00     0.011 A 
HETATM    8  C   UNL     1      45.863 -28.946   0.219  1.00  0.00     0.005 A 
HETATM    9  C   UNL     1      47.007 -28.189  -0.051  1.00  0.00     0.043 A 
HETATM   10  C   UNL     1      45.014 -29.285  -0.857  1.00  0.00     0.033 A 
HETATM   11  C   UNL     1      47.349 -27.757  -1.338  1.00  0.00     0.031 A 
HETATM   12  N   UNL     1      47.653 -27.988   1.147  1.00  0.00    -0.364 N 
HETATM   13  C   UNL     1      46.493 -28.104  -2.388  1.00  0.00     0.021 A 
HETATM   14  C   UNL     1      45.345 -28.854  -2.147  1.00  0.00     0.012 A 
HETATM   15 BR   UNL     1      44.204 -29.298  -3.590  1.00  0.00    -0.051 Br
HETATM   16  H   UNL     1      48.514 -27.469   1.259  1.00  0.00     0.165 HD
HETATM   17  C   UNL     1      46.961 -28.586   2.161  1.00  0.00     0.102 A 
ENDBRANCH   6   7
ENDBRANCH   2   5
BRANCH   1  18
HETATM   18  C   UNL     1      40.718 -31.369   3.669  1.00  0.00     0.033 A 
HETATM   19  C   UNL     1      40.707 -31.180   5.055  1.00  0.00     0.020 A 
HETATM   20  C   UNL     1      39.770 -31.859   5.843  1.00  0.00     0.038 A 
HETATM   21  C   UNL     1      38.847 -32.736   5.266  1.00  0.00     0.068 A 
HETATM   22  C   UNL     1      38.878 -32.948   3.890  1.00  0.00     0.038 A 
HETATM   23  C   UNL     1      39.809 -32.269   3.096  1.00  0.00     0.020 A 
BRANCH  21  24
HETATM   24  O   UNL     1      37.984 -33.321   6.151  1.00  0.00    -0.352 OA
BRANCH  24  25
HETATM   25  C   UNL     1      36.884 -34.045   5.600  1.00  0.00     0.171 C 
HETATM   26  C   UNL     1      36.045 -34.574   6.749  1.00  0.00     0.034 C 
ENDBRANCH  24  25
ENDBRANCH  21  24
ENDBRANCH   1  18
TORSDOF 5
ENDMDL
MODEL 6
REMARK VINA RESULT:      -7.2      3.821      4.986
REMARK  5 active torsions:
REMARK  status: ('A' for Active; 'I' for Inactive)
REMARK    1  A    between atoms: C_2  and  O_3 
REMARK    2  A    between atoms: O_3  and  C_4 
REMARK    3  A    between atoms: C_7  and  C_8 
REMARK       I    between atoms: C_8  and  N_9 
REMARK    4  A    between atoms: N_9  and  N_10 
REMARK    5  A    between atoms: C_11  and  C_12 
ROOT
HETATM    1  C   UNL     1      43.596 -11.881   4.454  1.00  0.00     0.271 C 
HETATM    2  N   UNL     1      42.629 -12.876   4.443  1.00  0.00    -0.243 N 
HETATM    3  O   UNL     1      44.126 -11.400   3.456  1.00  0.00    -0.266 OA
HETATM    4  H   UNL     1      42.310 -13.307   5.301  1.00  0.00     0.192 HD
ENDROOT
BRANCH   2   5
HETATM    5  N   UNL     1      42.260 -13.431   3.249  1.00  0.00    -0.183 NA
HETATM    6  C   UNL     1      41.000 -13.392   2.965  1.00  0.00     0.152 C 
BRANCH   6   7
HETATM    7  C   UNL     1      40.532 -13.998   1.735  1.00  0.00     0.011 A 
HETATM    8  C   UNL     1      40.480 -13.409   0.430  1.00  0.00     0.005 A 
HETATM    9  C   UNL     1      39.942 -14.364  -0.437  1.00  0.00     0.043 A 
HETATM   10  C   UNL     1      40.843 -12.152  -0.100  1.00  0.00     0.033 A 
HETATM   11  C   UNL     1      39.743 -14.128  -1.802  1.00  0.00     0.031 A 
HETATM   12  N   UNL     1      39.682 -15.491   0.310  1.00  0.00    -0.364 N 
HETATM   13  C   UNL     1      40.111 -12.877  -2.305  1.00  0.00     0.021 A 
HETATM   14  C   UNL     1      40.653 -11.908  -1.464  1.00  0.00     0.012 A 
HETATM   15 BR   UNL     1      41.147 -10.227  -2.180  1.00  0.00    -0.051 Br
HETATM   16  H   UNL     1      39.288 -16.347  -0.055  1.00  0.00     0.165 HD
HETATM   17  C   UNL     1      40.036 -15.283   1.612  1.00  0.00     0.102 A 
ENDBRANCH   6   7
ENDBRANCH   2   5
BRANCH   1  18
HETATM   18  C   UNL     1      44.034 -11.408   5.800  1.00  0.00     0.033 A 
HETATM   19  C   UNL     1      43.136 -11.010   6.797  1.00  0.00     0.020 A 
HETATM   20  C   UNL     1      43.619 -10.600   8.045  1.00  0.00     0.038 A 
HETATM   21  C   UNL     1      44.992 -10.569   8.310  1.00  0.00     0.068 A 
HETATM   22  C   UNL     1      45.887 -10.936   7.308  1.00  0.00     0.038 A 
HETATM   23  C   UNL     1      45.410 -11.351   6.059  1.00  0.00     0.020 A 
BRANCH  21  24
HETATM   24  O   UNL     1      45.321 -10.160   9.572  1.00  0.00    -0.352 OA
BRANCH  24  25
HETATM   25  C   UNL     1      44.328 -10.324  10.585  1.00  0.00     0.171 C 
HETATM   26  C   UNL     1      44.122  -8.983  11.266  1.00  0.00     0.034 C 
ENDBRANCH  24  25
ENDBRANCH  21  24
ENDBRANCH   1  18
TORSDOF 5
ENDMDL
MODEL 7
REMARK VINA RESULT:      -7.0      3.580      9.615
REMARK  5 active torsions:
REMARK  status: ('A' for Active; 'I' for Inactive)
REMARK    1  A    between atoms: C_2  and  O_3 
REMARK    2  A    between atoms: O_3  and  C_4 
REMARK    3  A    between atoms: C_7  and  C_8 
REMARK       I    between atoms: C_8  and  N_9 
REMARK    4  A    between atoms: N_9  and  N_10 
REMARK    5  A    between atoms: C_11  and  C_12 
ROOT
HETATM    1  C   UNL     1      42.822 -13.100   4.437  1.00  0.00     0.271 C 
HETATM    2  N   UNL     1      44.039 -12.687   4.961  1.00  0.00    -0.243 N 
HETATM    3  O   UNL     1      41.781 -12.450   4.474  1.00  0.00    -0.266 OA
HETATM    4  H   UNL     1      44.834 -13.311   4.997  1.00  0.00     0.192 HD
ENDROOT
BRANCH   2   5
HETATM    5  N   UNL     1      44.105 -11.497   5.631  1.00  0.00    -0.183 NA
HETATM    6  C   UNL     1      44.739 -11.509   6.757  1.00  0.00     0.152 C 
BRANCH   6   7
HETATM    7  C   UNL     1      44.813 -10.293   7.541  1.00  0.00     0.011 A 
HETATM    8  C   UNL     1      43.727  -9.515   8.060  1.00  0.00     0.005 A 
HETATM    9  C   UNL     1      44.281  -8.426   8.737  1.00  0.00     0.043 A 
HETATM   10  C   UNL     1      42.321  -9.637   8.023  1.00  0.00     0.033 A 
HETATM   11  C   UNL     1      43.506  -7.449   9.373  1.00  0.00     0.031 A 
HETATM   12  N   UNL     1      45.650  -8.537   8.637  1.00  0.00    -0.364 N 
HETATM   13  C   UNL     1      42.116  -7.590   9.323  1.00  0.00     0.021 A 
HETATM   14  C   UNL     1      41.537  -8.668   8.659  1.00  0.00     0.012 A 
HETATM   15 BR   UNL     1      39.652  -8.833   8.619  1.00  0.00    -0.051 Br
HETATM   16  H   UNL     1      46.313  -7.887   9.035  1.00  0.00     0.165 HD
HETATM   17  C   UNL     1      45.978  -9.656   7.926  1.00  0.00     0.102 A 
ENDBRANCH   6   7
ENDBRANCH   2   5
BRANCH   1  18
HETATM   18  C   UNL     1      42.801 -14.461   3.825  1.00  0.00     0.033 A 
HETATM   19  C   UNL     1      43.178 -14.705   2.500  1.00  0.00     0.020 A 
HETATM   20  C   UNL     1      43.154 -16.013   2.000  1.00  0.00     0.038 A 
HETATM   21  C   UNL     1      42.747 -17.083   2.803  1.00  0.00     0.068 A 
HETATM   22  C   UNL     1      42.341 -16.834   4.113  1.00  0.00     0.038 A 
HETATM   23  C   UNL     1      42.367 -15.530   4.620  1.00  0.00     0.020 A 
BRANCH  21  24
HETATM   24  O   UNL     1      42.784 -18.304   2.190  1.00  0.00    -0.352 OA
BRANCH  24  25
HETATM   25  C   UNL     1      43.806 -19.208   2.611  1.00  0.00     0.171 C 
HETATM   26  C   UNL     1      43.637 -20.503   1.838  1.00  0.00     0.034 C 
ENDBRANCH  24  25
ENDBRANCH  21  24
ENDBRANCH   1  18
TORSDOF 5
ENDMDL
MODEL 8
REMARK VINA RESULT:      -7.0      4.171      9.855
REMARK  5 active torsions:
REMARK  status: ('A' for Active; 'I' for Inactive)
REMARK    1  A    between atoms: C_2  and  O_3 
REMARK    2  A    between atoms: O_3  and  C_4 
REMARK    3  A    between atoms: C_7  and  C_8 
REMARK       I    between atoms: C_8  and  N_9 
REMARK    4  A    between atoms: N_9  and  N_10 
REMARK    5  A    between atoms: C_11  and  C_12 
ROOT
HETATM    1  C   UNL     1      41.891 -14.013   4.181  1.00  0.00     0.271 C 
HETATM    2  N   UNL     1      42.399 -12.731   4.328  1.00  0.00    -0.243 N 
HETATM    3  O   UNL     1      41.979 -14.907   5.018  1.00  0.00    -0.266 OA
HETATM    4  H   UNL     1      42.391 -12.072   3.560  1.00  0.00     0.192 HD
ENDROOT
BRANCH   2   5
HETATM    5  N   UNL     1      43.112 -12.423   5.453  1.00  0.00    -0.183 NA
HETATM    6  C   UNL     1      43.856 -11.368   5.389  1.00  0.00     0.152 C 
BRANCH   6   7
HETATM    7  C   UNL     1      44.671 -11.005   6.530  1.00  0.00     0.011 A 
HETATM    8  C   UNL     1      44.239 -10.435   7.772  1.00  0.00     0.005 A 
HETATM    9  C   UNL     1      45.377 -10.243   8.560  1.00  0.00     0.043 A 
HETATM   10  C   UNL     1      42.985 -10.068   8.305  1.00  0.00     0.033 A 
HETATM   11  C   UNL     1      45.329  -9.699   9.849  1.00  0.00     0.031 A 
HETATM   12  N   UNL     1      46.458 -10.682   7.828  1.00  0.00    -0.364 N 
HETATM   13  C   UNL     1      44.076  -9.343  10.357  1.00  0.00     0.021 A 
HETATM   14  C   UNL     1      42.926  -9.527   9.595  1.00  0.00     0.012 A 
HETATM   15 BR   UNL     1      41.244  -9.042  10.317  1.00  0.00    -0.051 Br
HETATM   16  H   UNL     1      47.416 -10.665   8.148  1.00  0.00     0.165 HD
HETATM   17  C   UNL     1      46.044 -11.144   6.612  1.00  0.00     0.102 A 
ENDBRANCH   6   7
ENDBRANCH   2   5
BRANCH   1  18
HETATM   18  C   UNL     1      41.229 -14.310   2.877  1.00  0.00     0.033 A 
HETATM   19  C   UNL     1      41.190 -13.397   1.818  1.00  0.00     0.020 A 
HETATM   20  C   UNL     1      40.570 -13.754   0.615  1.00  0.00     0.038 A 
HETATM   21  C   UNL     1      39.975 -15.010   0.456  1.00  0.00     0.068 A 
HETATM   22  C   UNL     1      39.987 -15.907   1.522  1.00  0.00     0.038 A 
HETATM   23  C   UNL     1      40.609 -15.558   2.726  1.00  0.00     0.020 A 
BRANCH  21  24
HETATM   24  O   UNL     1      39.418 -15.227  -0.773  1.00  0.00    -0.352 OA
BRANCH  24  25
HETATM   25  C   UNL     1      39.445 -14.140  -1.697  1.00  0.00     0.171 C 
HETATM   26  C   UNL     1      38.774 -14.595  -2.980  1.00  0.00     0.034 C 
ENDBRANCH  24  25
ENDBRANCH  21  24
ENDBRANCH   1  18
TORSDOF 5
ENDMDL
MODEL 9
REMARK VINA RESULT:      -6.8      2.157      2.562
REMARK  5 active torsions:
REMARK  status: ('A' for Active; 'I' for Inactive)
REMARK    1  A    between atoms: C_2  and  O_3 
REMARK    2  A    between atoms: O_3  and  C_4 
REMARK    3  A    between atoms: C_7  and  C_8 
REMARK       I    between atoms: C_8  and  N_9 
REMARK    4  A    between atoms: N_9  and  N_10 
REMARK    5  A    between atoms: C_11  and  C_12 
ROOT
HETATM    1  C   UNL     1      44.138 -10.897   8.079  1.00  0.00     0.271 C 
HETATM    2  N   UNL     1      43.387 -11.655   7.193  1.00  0.00    -0.243 N 
HETATM    3  O   UNL     1      45.152 -11.283   8.655  1.00  0.00    -0.266 OA
HETATM    4  H   UNL     1      42.502 -11.319   6.835  1.00  0.00     0.192 HD
ENDROOT
BRANCH   2   5
HETATM    5  N   UNL     1      43.738 -12.957   6.967  1.00  0.00    -0.183 NA
HETATM    6  C   UNL     1      42.810 -13.838   7.143  1.00  0.00     0.152 C 
BRANCH   6   7
HETATM    7  C   UNL     1      43.123 -15.241   6.963  1.00  0.00     0.011 A 
HETATM    8  C   UNL     1      43.247 -15.962   5.730  1.00  0.00     0.005 A 
HETATM    9  C   UNL     1      43.541 -17.289   6.052  1.00  0.00     0.043 A 
HETATM   10  C   UNL     1      43.141 -15.610   4.367  1.00  0.00     0.033 A 
HETATM   11  C   UNL     1      43.730 -18.284   5.084  1.00  0.00     0.031 A 
HETATM   12  N   UNL     1      43.598 -17.373   7.424  1.00  0.00    -0.364 N 
HETATM   13  C   UNL     1      43.621 -17.912   3.741  1.00  0.00     0.021 A 
HETATM   14  C   UNL     1      43.332 -16.596   3.393  1.00  0.00     0.012 A 
HETATM   15 BR   UNL     1      43.200 -16.125   1.564  1.00  0.00    -0.051 Br
HETATM   16  H   UNL     1      43.796 -18.217   7.944  1.00  0.00     0.165 HD
HETATM   17  C   UNL     1      43.353 -16.149   7.979  1.00  0.00     0.102 A 
ENDBRANCH   6   7
ENDBRANCH   2   5
BRANCH   1  18
HETATM   18  C   UNL     1      43.626  -9.525   8.366  1.00  0.00     0.033 A 
HETATM   19  C   UNL     1      44.461  -8.456   8.707  1.00  0.00     0.020 A 
HETATM   20  C   UNL     1      43.912  -7.190   8.940  1.00  0.00     0.038 A 
HETATM   21  C   UNL     1      42.533  -6.977   8.849  1.00  0.00     0.068 A 
HETATM   22  C   UNL     1      41.697  -8.048   8.541  1.00  0.00     0.038 A 
HETATM   23  C   UNL     1      42.241  -9.316   8.302  1.00  0.00     0.020 A 
BRANCH  21  24
HETATM   24  O   UNL     1      42.136  -5.691   9.090  1.00  0.00    -0.352 OA
BRANCH  24  25
HETATM   25  C   UNL     1      40.880  -5.513   9.745  1.00  0.00     0.171 C 
HETATM   26  C   UNL     1      40.696  -4.031  10.017  1.00  0.00     0.034 C 
ENDBRANCH  24  25
ENDBRANCH  21  24
ENDBRANCH   1  18
TORSDOF 5
ENDMDL
MODEL 10
REMARK VINA RESULT:      -6.6      4.068     10.018
REMARK  5 active torsions:
REMARK  status: ('A' for Active; 'I' for Inactive)
REMARK    1  A    between atoms: C_2  and  O_3 
REMARK    2  A    between atoms: O_3  and  C_4 
REMARK    3  A    between atoms: C_7  and  C_8 
REMARK       I    between atoms: C_8  and  N_9 
REMARK    4  A    between atoms: N_9  and  N_10 
REMARK    5  A    between atoms: C_11  and  C_12 
ROOT
HETATM    1  C   UNL     1      42.702 -13.046   3.902  1.00  0.00     0.271 C 
HETATM    2  N   UNL     1      43.475 -12.415   4.865  1.00  0.00    -0.243 N 
HETATM    3  O   UNL     1      41.842 -12.499   3.216  1.00  0.00    -0.266 OA
HETATM    4  H   UNL     1      44.088 -12.941   5.473  1.00  0.00     0.192 HD
ENDROOT
BRANCH   2   5
HETATM    5  N   UNL     1      43.244 -11.096   5.144  1.00  0.00    -0.183 NA
HETATM    6  C   UNL     1      42.381 -10.849   6.073  1.00  0.00     0.152 C 
BRANCH   6   7
HETATM    7  C   UNL     1      42.057  -9.474   6.391  1.00  0.00     0.011 A 
HETATM    8  C   UNL     1      42.267  -8.787   7.631  1.00  0.00     0.005 A 
HETATM    9  C   UNL     1      41.784  -7.485   7.473  1.00  0.00     0.043 A 
HETATM   10  C   UNL     1      42.827  -9.147   8.876  1.00  0.00     0.033 A 
HETATM   11  C   UNL     1      41.827  -6.526   8.493  1.00  0.00     0.031 A 
HETATM   12  N   UNL     1      41.303  -7.382   6.187  1.00  0.00    -0.364 N 
HETATM   13  C   UNL     1      42.386  -6.906   9.716  1.00  0.00     0.021 A 
HETATM   14  C   UNL     1      42.879  -8.195   9.900  1.00  0.00     0.012 A 
HETATM   15 BR   UNL     1      43.638  -8.672  11.567  1.00  0.00    -0.051 Br
HETATM   16  H   UNL     1      40.893  -6.549   5.789  1.00  0.00     0.165 HD
HETATM   17  C   UNL     1      41.467  -8.568   5.529  1.00  0.00     0.102 A 
ENDBRANCH   6   7
ENDBRANCH   2   5
BRANCH   1  18
HETATM   18  C   UNL     1      42.928 -14.513   3.738  1.00  0.00     0.033 A 
HETATM   19  C   UNL     1      42.971 -15.141   2.489  1.00  0.00     0.020 A 
HETATM   20  C   UNL     1      43.211 -16.518   2.410  1.00  0.00     0.038 A 
HETATM   21  C   UNL     1      43.397 -17.282   3.566  1.00  0.00     0.068 A 
HETATM   22  C   UNL     1      43.322 -16.662   4.812  1.00  0.00     0.038 A 
HETATM   23  C   UNL     1      43.087 -15.284   4.896  1.00  0.00     0.020 A 
BRANCH  21  24
HETATM   24  O   UNL     1      43.633 -18.610   3.342  1.00  0.00    -0.352 OA
BRANCH  24  25
HETATM   25  C   UNL     1      43.093 -19.170   2.145  1.00  0.00     0.171 C 
HETATM   26  C   UNL     1      43.823 -20.470   1.862  1.00  0.00     0.034 C 
ENDBRANCH  24  25
ENDBRANCH  21  24
ENDBRANCH   1  18
TORSDOF 5
ENDMDL
