MODEL 1
REMARK VINA RESULT:      -7.8      0.000      0.000
REMARK  6 active torsions:
REMARK  status: ('A' for Active; 'I' for Inactive)
REMARK    1  A    between atoms: O_2  and  C_3 
REMARK    2  A    between atoms: C_3  and  C_4 
REMARK    3  A    between atoms: C_4  and  N_5 
REMARK       I    between atoms: N_5  and  C_6 
REMARK    4  A    between atoms: C_6  and  C_7 
REMARK    5  A    between atoms: C_12  and  C_13 
REMARK    6  A    between atoms: C_20  and  C_21 
ROOT
HETATM    1  C   UNL     1      41.541 -12.617   5.256  1.00  0.00     0.165 A 
HETATM    2  N   UNL     1      40.740 -13.025   4.239  1.00  0.00    -0.163 NA
HETATM    3  N   UNL     1      41.318 -14.158   3.808  1.00  0.00    -0.238 N 
HETATM    4  C   UNL     1      42.419 -14.537   4.525  1.00  0.00     0.141 A 
HETATM    5  N   UNL     1      43.074 -15.691   4.246  1.00  0.00    -0.365 N 
HETATM    6  C   UNL     1      42.769 -16.450   3.036  1.00  0.00     0.118 C 
HETATM    7  C   UNL     1      41.259 -16.368   2.748  1.00  0.00     0.066 C 
HETATM    8  C   UNL     1      40.781 -14.905   2.684  1.00  0.00     0.221 C 
HETATM    9  C   UNL     1      42.592 -13.549   5.461  1.00  0.00     0.092 A 
HETATM   10 BR   UNL     1      43.948 -13.470   6.752  1.00  0.00    -0.044 Br
HETATM   11  H   UNL     1      43.995 -15.864   4.650  1.00  0.00     0.162 HD
ENDROOT
BRANCH   1  12
HETATM   12  C   UNL     1      41.258 -11.364   5.978  1.00  0.00     0.273 C 
HETATM   13  N   UNL     1      40.014 -11.352   6.572  1.00  0.00    -0.353 N 
HETATM   14  H   UNL     1      39.521 -12.243   6.580  1.00  0.00     0.162 HD
HETATM   15  O   UNL     1      42.040 -10.422   6.050  1.00  0.00    -0.266 OA
BRANCH  13  16
HETATM   16  C   UNL     1      39.590 -10.315   7.488  1.00  0.00     0.149 C 
BRANCH  16  17
HETATM   17  C   UNL     1      39.067  -9.090   6.742  1.00  0.00     0.186 C 
BRANCH  17  18
HETATM   18  O   UNL     1      38.054  -9.501   5.817  1.00  0.00    -0.394 OA
HETATM   19  C   UNL     1      37.961  -8.605   4.716  1.00  0.00     0.201 C 
ENDBRANCH  17  18
ENDBRANCH  16  17
ENDBRANCH  13  16
ENDBRANCH   1  12
BRANCH   8  20
HETATM   20  C   UNL     1      41.174 -14.234   1.387  1.00  0.00     0.409 C 
HETATM   21  F   UNL     1      42.387 -13.643   1.442  1.00  0.00    -0.169 F 
HETATM   22  F   UNL     1      41.239 -15.156   0.391  1.00  0.00    -0.169 F 
HETATM   23  F   UNL     1      40.281 -13.302   0.987  1.00  0.00    -0.169 F 
ENDBRANCH   8  20
BRANCH   6  24
HETATM   24  C   UNL     1      43.213 -17.893   3.186  1.00  0.00    -0.035 A 
HETATM   25  C   UNL     1      43.815 -18.362   4.366  1.00  0.00     0.009 A 
HETATM   26  C   UNL     1      44.193 -19.700   4.490  1.00  0.00     0.001 A 
HETATM   27  C   UNL     1      43.968 -20.589   3.440  1.00  0.00     0.000 A 
HETATM   28  C   UNL     1      43.363 -20.142   2.268  1.00  0.00     0.001 A 
HETATM   29  C   UNL     1      42.986 -18.803   2.142  1.00  0.00     0.009 A 
ENDBRANCH   6  24
TORSDOF 6
ENDMDL
MODEL 2
REMARK VINA RESULT:      -7.8      1.377      2.273
REMARK  6 active torsions:
REMARK  status: ('A' for Active; 'I' for Inactive)
REMARK    1  A    between atoms: O_2  and  C_3 
REMARK    2  A    between atoms: C_3  and  C_4 
REMARK    3  A    between atoms: C_4  and  N_5 
REMARK       I    between atoms: N_5  and  C_6 
REMARK    4  A    between atoms: C_6  and  C_7 
REMARK    5  A    between atoms: C_12  and  C_13 
REMARK    6  A    between atoms: C_20  and  C_21 
ROOT
HETATM    1  C   UNL     1      41.343 -12.685   5.251  1.00  0.00     0.165 A 
HETATM    2  N   UNL     1      40.592 -13.088   4.194  1.00  0.00    -0.163 NA
HETATM    3  N   UNL     1      41.207 -14.204   3.769  1.00  0.00    -0.238 N 
HETATM    4  C   UNL     1      42.284 -14.577   4.525  1.00  0.00     0.141 A 
HETATM    5  N   UNL     1      42.969 -15.715   4.256  1.00  0.00    -0.365 N 
HETATM    6  C   UNL     1      42.729 -16.458   3.022  1.00  0.00     0.118 C 
HETATM    7  C   UNL     1      41.231 -16.396   2.671  1.00  0.00     0.066 C 
HETATM    8  C   UNL     1      40.731 -14.941   2.612  1.00  0.00     0.221 C 
HETATM    9  C   UNL     1      42.400 -13.603   5.485  1.00  0.00     0.092 A 
HETATM   10 BR   UNL     1      43.699 -13.524   6.833  1.00  0.00    -0.044 Br
HETATM   11  H   UNL     1      43.876 -15.880   4.696  1.00  0.00     0.162 HD
ENDROOT
BRANCH   1  12
HETATM   12  C   UNL     1      41.009 -11.450   5.981  1.00  0.00     0.273 C 
HETATM   13  N   UNL     1      42.012 -10.505   5.933  1.00  0.00    -0.353 N 
HETATM   14  H   UNL     1      42.771 -10.702   5.284  1.00  0.00     0.162 HD
HETATM   15  O   UNL     1      39.950 -11.268   6.573  1.00  0.00    -0.266 OA
BRANCH  13  16
HETATM   16  C   UNL     1      41.839  -9.150   6.410  1.00  0.00     0.149 C 
BRANCH  16  17
HETATM   17  C   UNL     1      42.705  -8.875   7.637  1.00  0.00     0.186 C 
BRANCH  17  18
HETATM   18  O   UNL     1      43.732  -9.869   7.719  1.00  0.00    -0.394 OA
HETATM   19  C   UNL     1      43.946 -10.286   9.062  1.00  0.00     0.201 C 
ENDBRANCH  17  18
ENDBRANCH  16  17
ENDBRANCH  13  16
ENDBRANCH   1  12
BRANCH   8  20
HETATM   20  C   UNL     1      41.167 -14.240   1.343  1.00  0.00     0.409 C 
HETATM   21  F   UNL     1      41.342 -15.085   0.304  1.00  0.00    -0.169 F 
HETATM   22  F   UNL     1      40.217 -13.347   0.959  1.00  0.00    -0.169 F 
HETATM   23  F   UNL     1      42.311 -13.538   1.498  1.00  0.00    -0.169 F 
ENDBRANCH   8  20
BRANCH   6  24
HETATM   24  C   UNL     1      43.190 -17.897   3.166  1.00  0.00    -0.035 A 
HETATM   25  C   UNL     1      43.820 -18.356   4.335  1.00  0.00     0.009 A 
HETATM   26  C   UNL     1      44.214 -19.690   4.454  1.00  0.00     0.001 A 
HETATM   27  C   UNL     1      43.978 -20.584   3.412  1.00  0.00     0.000 A 
HETATM   28  C   UNL     1      43.345 -20.146   2.250  1.00  0.00     0.001 A 
HETATM   29  C   UNL     1      42.952 -18.811   2.128  1.00  0.00     0.009 A 
ENDBRANCH   6  24
TORSDOF 6
ENDMDL
MODEL 3
REMARK VINA RESULT:      -7.4      2.186      2.745
REMARK  6 active torsions:
REMARK  status: ('A' for Active; 'I' for Inactive)
REMARK    1  A    between atoms: O_2  and  C_3 
REMARK    2  A    between atoms: C_3  and  C_4 
REMARK    3  A    between atoms: C_4  and  N_5 
REMARK       I    between atoms: N_5  and  C_6 
REMARK    4  A    between atoms: C_6  and  C_7 
REMARK    5  A    between atoms: C_12  and  C_13 
REMARK    6  A    between atoms: C_20  and  C_21 
ROOT
HETATM    1  C   UNL     1      42.146 -11.242   6.393  1.00  0.00     0.165 A 
HETATM    2  N   UNL     1      40.964 -11.766   5.980  1.00  0.00    -0.163 NA
HETATM    3  N   UNL     1      41.322 -12.852   5.274  1.00  0.00    -0.238 N 
HETATM    4  C   UNL     1      42.668 -13.091   5.253  1.00  0.00     0.141 A 
HETATM    5  N   UNL     1      43.176 -14.183   4.633  1.00  0.00    -0.365 N 
HETATM    6  C   UNL     1      42.335 -15.015   3.776  1.00  0.00     0.118 C 
HETATM    7  C   UNL     1      40.918 -15.096   4.373  1.00  0.00     0.066 C 
HETATM    8  C   UNL     1      40.335 -13.692   4.619  1.00  0.00     0.221 C 
HETATM    9  C   UNL     1      43.225 -12.056   5.961  1.00  0.00     0.092 A 
HETATM   10 BR   UNL     1      45.051 -11.792   6.287  1.00  0.00    -0.044 Br
HETATM   11  H   UNL     1      44.179 -14.248   4.455  1.00  0.00     0.162 HD
ENDROOT
BRANCH   1  12
HETATM   12  C   UNL     1      42.179  -9.996   7.180  1.00  0.00     0.273 C 
HETATM   13  N   UNL     1      42.529 -10.199   8.498  1.00  0.00    -0.353 N 
HETATM   14  H   UNL     1      42.871 -11.131   8.724  1.00  0.00     0.162 HD
HETATM   15  O   UNL     1      41.925  -8.888   6.721  1.00  0.00    -0.266 OA
BRANCH  13  16
HETATM   16  C   UNL     1      42.813  -9.113   9.412  1.00  0.00     0.149 C 
BRANCH  16  17
HETATM   17  C   UNL     1      41.856  -9.121  10.602  1.00  0.00     0.186 C 
BRANCH  17  18
HETATM   18  O   UNL     1      40.540  -8.785  10.149  1.00  0.00    -0.394 OA
HETATM   19  C   UNL     1      39.579  -9.736  10.591  1.00  0.00     0.201 C 
ENDBRANCH  17  18
ENDBRANCH  16  17
ENDBRANCH  13  16
ENDBRANCH   1  12
BRANCH   8  20
HETATM   20  C   UNL     1      39.873 -13.034   3.336  1.00  0.00     0.409 C 
HETATM   21  F   UNL     1      40.849 -12.332   2.720  1.00  0.00    -0.169 F 
HETATM   22  F   UNL     1      39.462 -13.982   2.454  1.00  0.00    -0.169 F 
HETATM   23  F   UNL     1      38.824 -12.204   3.521  1.00  0.00    -0.169 F 
ENDBRANCH   8  20
BRANCH   6  24
HETATM   24  C   UNL     1      42.935 -16.400   3.622  1.00  0.00    -0.035 A 
HETATM   25  C   UNL     1      43.731 -16.976   4.626  1.00  0.00     0.009 A 
HETATM   26  C   UNL     1      44.253 -18.261   4.472  1.00  0.00     0.001 A 
HETATM   27  C   UNL     1      43.981 -18.992   3.317  1.00  0.00     0.000 A 
HETATM   28  C   UNL     1      43.185 -18.439   2.316  1.00  0.00     0.001 A 
HETATM   29  C   UNL     1      42.664 -17.152   2.468  1.00  0.00     0.009 A 
ENDBRANCH   6  24
TORSDOF 6
ENDMDL
MODEL 4
REMARK VINA RESULT:      -7.4      3.268      4.126
REMARK  6 active torsions:
REMARK  status: ('A' for Active; 'I' for Inactive)
REMARK    1  A    between atoms: O_2  and  C_3 
REMARK    2  A    between atoms: C_3  and  C_4 
REMARK    3  A    between atoms: C_4  and  N_5 
REMARK       I    between atoms: N_5  and  C_6 
REMARK    4  A    between atoms: C_6  and  C_7 
REMARK    5  A    between atoms: C_12  and  C_13 
REMARK    6  A    between atoms: C_20  and  C_21 
ROOT
HETATM    1  C   UNL     1      42.686 -12.698   4.986  1.00  0.00     0.165 A 
HETATM    2  N   UNL     1      43.437 -13.269   5.962  1.00  0.00    -0.163 NA
HETATM    3  N   UNL     1      43.398 -14.580   5.673  1.00  0.00    -0.238 N 
HETATM    4  C   UNL     1      42.709 -14.885   4.532  1.00  0.00     0.141 A 
HETATM    5  N   UNL     1      42.633 -16.160   4.078  1.00  0.00    -0.365 N 
HETATM    6  C   UNL     1      43.086 -17.276   4.904  1.00  0.00     0.118 C 
HETATM    7  C   UNL     1      44.330 -16.848   5.704  1.00  0.00     0.066 C 
HETATM    8  C   UNL     1      44.060 -15.564   6.511  1.00  0.00     0.221 C 
HETATM    9  C   UNL     1      42.228 -13.685   4.074  1.00  0.00     0.092 A 
HETATM   10 BR   UNL     1      41.181 -13.420   2.542  1.00  0.00    -0.044 Br
HETATM   11  H   UNL     1      41.963 -16.402   3.347  1.00  0.00     0.162 HD
ENDROOT
BRANCH   1  12
HETATM   12  C   UNL     1      42.451 -11.243   4.975  1.00  0.00     0.273 C 
HETATM   13  N   UNL     1      41.919 -10.773   6.156  1.00  0.00    -0.353 N 
HETATM   14  H   UNL     1      41.905 -11.438   6.928  1.00  0.00     0.162 HD
HETATM   15  O   UNL     1      42.700 -10.515   4.020  1.00  0.00    -0.266 OA
BRANCH  13  16
HETATM   16  C   UNL     1      41.781  -9.363   6.451  1.00  0.00     0.149 C 
BRANCH  16  17
HETATM   17  C   UNL     1      42.646  -8.954   7.641  1.00  0.00     0.186 C 
BRANCH  17  18
HETATM   18  O   UNL     1      43.741  -9.869   7.761  1.00  0.00    -0.394 OA
HETATM   19  C   UNL     1      43.867 -10.358   9.091  1.00  0.00     0.201 C 
ENDBRANCH  17  18
ENDBRANCH  16  17
ENDBRANCH  13  16
ENDBRANCH   1  12
BRANCH   8  20
HETATM   20  C   UNL     1      43.227 -15.831   7.745  1.00  0.00     0.409 C 
HETATM   21  F   UNL     1      43.720 -16.827   8.513  1.00  0.00    -0.169 F 
HETATM   22  F   UNL     1      43.191 -14.721   8.528  1.00  0.00    -0.169 F 
HETATM   23  F   UNL     1      41.943 -16.135   7.454  1.00  0.00    -0.169 F 
ENDBRANCH   8  20
BRANCH   6  24
HETATM   24  C   UNL     1      43.389 -18.489   4.044  1.00  0.00    -0.035 A 
HETATM   25  C   UNL     1      43.910 -19.672   4.594  1.00  0.00     0.009 A 
HETATM   26  C   UNL     1      44.159 -20.783   3.786  1.00  0.00     0.001 A 
HETATM   27  C   UNL     1      43.883 -20.730   2.421  1.00  0.00     0.000 A 
HETATM   28  C   UNL     1      43.357 -19.567   1.863  1.00  0.00     0.001 A 
HETATM   29  C   UNL     1      43.111 -18.454   2.669  1.00  0.00     0.009 A 
ENDBRANCH   6  24
TORSDOF 6
ENDMDL
MODEL 5
REMARK VINA RESULT:      -7.3      3.999      5.364
REMARK  6 active torsions:
REMARK  status: ('A' for Active; 'I' for Inactive)
REMARK    1  A    between atoms: O_2  and  C_3 
REMARK    2  A    between atoms: C_3  and  C_4 
REMARK    3  A    between atoms: C_4  and  N_5 
REMARK       I    between atoms: N_5  and  C_6 
REMARK    4  A    between atoms: C_6  and  C_7 
REMARK    5  A    between atoms: C_12  and  C_13 
REMARK    6  A    between atoms: C_20  and  C_21 
ROOT
HETATM    1  C   UNL     1      43.828 -11.992   7.232  1.00  0.00     0.165 A 
HETATM    2  N   UNL     1      44.151 -13.308   7.145  1.00  0.00    -0.163 NA
HETATM    3  N   UNL     1      43.339 -13.777   6.184  1.00  0.00    -0.238 N 
HETATM    4  C   UNL     1      42.545 -12.825   5.604  1.00  0.00     0.141 A 
HETATM    5  N   UNL     1      41.716 -13.134   4.577  1.00  0.00    -0.365 N 
HETATM    6  C   UNL     1      41.472 -14.526   4.207  1.00  0.00     0.118 C 
HETATM    7  C   UNL     1      42.769 -15.337   4.381  1.00  0.00     0.066 C 
HETATM    8  C   UNL     1      43.342 -15.177   5.801  1.00  0.00     0.221 C 
HETATM    9  C   UNL     1      42.835 -11.663   6.273  1.00  0.00     0.092 A 
HETATM   10 BR   UNL     1      42.066  -9.983   5.962  1.00  0.00    -0.044 Br
HETATM   11  H   UNL     1      40.996 -12.472   4.287  1.00  0.00     0.162 HD
ENDROOT
BRANCH   1  12
HETATM   12  C   UNL     1      44.488 -11.122   8.221  1.00  0.00     0.273 C 
HETATM   13  N   UNL     1      43.686 -10.829   9.303  1.00  0.00    -0.353 N 
HETATM   14  H   UNL     1      42.822 -11.363   9.368  1.00  0.00     0.162 HD
HETATM   15  O   UNL     1      45.633 -10.697   8.106  1.00  0.00    -0.266 OA
BRANCH  13  16
HETATM   16  C   UNL     1      44.177 -10.155  10.486  1.00  0.00     0.149 C 
BRANCH  16  17
HETATM   17  C   UNL     1      43.578  -8.757  10.621  1.00  0.00     0.186 C 
BRANCH  17  18
HETATM   18  O   UNL     1      43.432  -8.440  12.009  1.00  0.00    -0.394 OA
HETATM   19  C   UNL     1      42.648  -9.415  12.686  1.00  0.00     0.201 C 
ENDBRANCH  17  18
ENDBRANCH  16  17
ENDBRANCH  13  16
ENDBRANCH   1  12
BRANCH   8  20
HETATM   20  C   UNL     1      42.572 -15.989   6.820  1.00  0.00     0.409 C 
HETATM   21  F   UNL     1      41.510 -15.328   7.330  1.00  0.00    -0.169 F 
HETATM   22  F   UNL     1      42.084 -17.116   6.239  1.00  0.00    -0.169 F 
HETATM   23  F   UNL     1      43.339 -16.394   7.856  1.00  0.00    -0.169 F 
ENDBRANCH   8  20
BRANCH   6  24
HETATM   24  C   UNL     1      40.965 -14.618   2.780  1.00  0.00    -0.035 A 
HETATM   25  C   UNL     1      41.171 -13.580   1.855  1.00  0.00     0.009 A 
HETATM   26  C   UNL     1      40.716 -13.697   0.541  1.00  0.00     0.001 A 
HETATM   27  C   UNL     1      40.057 -14.854   0.130  1.00  0.00     0.000 A 
HETATM   28  C   UNL     1      39.854 -15.896   1.032  1.00  0.00     0.001 A 
HETATM   29  C   UNL     1      40.306 -15.779   2.348  1.00  0.00     0.009 A 
ENDBRANCH   6  24
TORSDOF 6
ENDMDL
MODEL 6
REMARK VINA RESULT:      -7.3      3.720      4.708
REMARK  6 active torsions:
REMARK  status: ('A' for Active; 'I' for Inactive)
REMARK    1  A    between atoms: O_2  and  C_3 
REMARK    2  A    between atoms: C_3  and  C_4 
REMARK    3  A    between atoms: C_4  and  N_5 
REMARK       I    between atoms: N_5  and  C_6 
REMARK    4  A    between atoms: C_6  and  C_7 
REMARK    5  A    between atoms: C_12  and  C_13 
REMARK    6  A    between atoms: C_20  and  C_21 
ROOT
HETATM    1  C   UNL     1      41.037 -12.521   1.817  1.00  0.00     0.165 A 
HETATM    2  N   UNL     1      41.746 -12.451   2.973  1.00  0.00    -0.163 NA
HETATM    3  N   UNL     1      41.990 -13.735   3.280  1.00  0.00    -0.238 N 
HETATM    4  C   UNL     1      41.525 -14.633   2.359  1.00  0.00     0.141 A 
HETATM    5  N   UNL     1      41.748 -15.962   2.501  1.00  0.00    -0.365 N 
HETATM    6  C   UNL     1      42.288 -16.500   3.747  1.00  0.00     0.118 C 
HETATM    7  C   UNL     1      43.314 -15.511   4.329  1.00  0.00     0.066 C 
HETATM    8  C   UNL     1      42.707 -14.105   4.487  1.00  0.00     0.221 C 
HETATM    9  C   UNL     1      40.894 -13.872   1.408  1.00  0.00     0.092 A 
HETATM   10 BR   UNL     1      40.027 -14.511  -0.126  1.00  0.00    -0.044 Br
HETATM   11  H   UNL     1      41.236 -16.630   1.923  1.00  0.00     0.162 HD
ENDROOT
BRANCH   1  12
HETATM   12  C   UNL     1      40.539 -11.296   1.167  1.00  0.00     0.273 C 
HETATM   13  N   UNL     1      41.208 -10.994   0.000  1.00  0.00    -0.353 N 
HETATM   14  H   UNL     1      41.834 -11.717  -0.348  1.00  0.00     0.162 HD
HETATM   15  O   UNL     1      39.625 -10.608   1.608  1.00  0.00    -0.266 OA
BRANCH  13  16
HETATM   16  C   UNL     1      40.775  -9.953  -0.908  1.00  0.00     0.149 C 
BRANCH  16  17
HETATM   17  C   UNL     1      41.464  -8.625  -0.604  1.00  0.00     0.186 C 
BRANCH  17  18
HETATM   18  O   UNL     1      42.863  -8.747  -0.886  1.00  0.00    -0.394 OA
HETATM   19  C   UNL     1      43.311  -7.713  -1.754  1.00  0.00     0.201 C 
ENDBRANCH  17  18
ENDBRANCH  16  17
ENDBRANCH  13  16
ENDBRANCH   1  12
BRANCH   8  20
HETATM   20  C   UNL     1      41.783 -14.014   5.682  1.00  0.00     0.409 C 
HETATM   21  F   UNL     1      41.768 -12.789   6.249  1.00  0.00    -0.169 F 
HETATM   22  F   UNL     1      40.506 -14.278   5.298  1.00  0.00    -0.169 F 
HETATM   23  F   UNL     1      42.084 -14.910   6.647  1.00  0.00    -0.169 F 
ENDBRANCH   8  20
BRANCH   6  24
HETATM   24  C   UNL     1      42.921 -17.859   3.512  1.00  0.00    -0.035 A 
HETATM   25  C   UNL     1      43.685 -18.499   4.502  1.00  0.00     0.009 A 
HETATM   26  C   UNL     1      44.238 -19.760   4.270  1.00  0.00     0.001 A 
HETATM   27  C   UNL     1      44.030 -20.401   3.050  1.00  0.00     0.000 A 
HETATM   28  C   UNL     1      43.266 -19.783   2.062  1.00  0.00     0.001 A 
HETATM   29  C   UNL     1      42.715 -18.521   2.291  1.00  0.00     0.009 A 
ENDBRANCH   6  24
TORSDOF 6
ENDMDL
MODEL 7
REMARK VINA RESULT:      -7.3      3.742      7.050
REMARK  6 active torsions:
REMARK  status: ('A' for Active; 'I' for Inactive)
REMARK    1  A    between atoms: O_2  and  C_3 
REMARK    2  A    between atoms: C_3  and  C_4 
REMARK    3  A    between atoms: C_4  and  N_5 
REMARK       I    between atoms: N_5  and  C_6 
REMARK    4  A    between atoms: C_6  and  C_7 
REMARK    5  A    between atoms: C_12  and  C_13 
REMARK    6  A    between atoms: C_20  and  C_21 
ROOT
HETATM    1  C   UNL     1      43.133 -15.712   4.554  1.00  0.00     0.165 A 
HETATM    2  N   UNL     1      42.757 -14.436   4.827  1.00  0.00    -0.163 NA
HETATM    3  N   UNL     1      42.272 -13.985   3.659  1.00  0.00    -0.238 N 
HETATM    4  C   UNL     1      42.261 -14.916   2.657  1.00  0.00     0.141 A 
HETATM    5  N   UNL     1      41.745 -14.627   1.438  1.00  0.00    -0.365 N 
HETATM    6  C   UNL     1      41.394 -13.255   1.080  1.00  0.00     0.118 C 
HETATM    7  C   UNL     1      40.822 -12.535   2.315  1.00  0.00     0.066 C 
HETATM    8  C   UNL     1      41.788 -12.624   3.511  1.00  0.00     0.221 C 
HETATM    9  C   UNL     1      42.824 -16.039   3.208  1.00  0.00     0.092 A 
HETATM   10 BR   UNL     1      43.113 -17.675   2.340  1.00  0.00    -0.044 Br
HETATM   11  H   UNL     1      41.918 -15.253   0.650  1.00  0.00     0.162 HD
ENDROOT
BRANCH   1  12
HETATM   12  C   UNL     1      43.760 -16.548   5.593  1.00  0.00     0.273 C 
HETATM   13  N   UNL     1      42.981 -17.623   5.964  1.00  0.00    -0.353 N 
HETATM   14  H   UNL     1      42.166 -17.799   5.379  1.00  0.00     0.162 HD
HETATM   15  O   UNL     1      44.861 -16.321   6.084  1.00  0.00    -0.266 OA
BRANCH  13  16
HETATM   16  C   UNL     1      43.464 -18.684   6.822  1.00  0.00     0.149 C 
BRANCH  16  17
HETATM   17  C   UNL     1      43.444 -20.033   6.106  1.00  0.00     0.186 C 
BRANCH  17  18
HETATM   18  O   UNL     1      44.274 -19.959   4.942  1.00  0.00    -0.394 OA
HETATM   19  C   UNL     1      43.922 -20.954   3.988  1.00  0.00     0.201 C 
ENDBRANCH  17  18
ENDBRANCH  16  17
ENDBRANCH  13  16
ENDBRANCH   1  12
BRANCH   8  20
HETATM   20  C   UNL     1      42.959 -11.676   3.368  1.00  0.00     0.409 C 
HETATM   21  F   UNL     1      44.074 -12.278   2.901  1.00  0.00    -0.169 F 
HETATM   22  F   UNL     1      42.651 -10.692   2.483  1.00  0.00    -0.169 F 
HETATM   23  F   UNL     1      43.280 -11.061   4.527  1.00  0.00    -0.169 F 
ENDBRANCH   8  20
BRANCH   6  24
HETATM   24  C   UNL     1      40.397 -13.240  -0.063  1.00  0.00    -0.035 A 
HETATM   25  C   UNL     1      39.935 -12.037  -0.624  1.00  0.00     0.009 A 
HETATM   26  C   UNL     1      39.035 -12.048  -1.692  1.00  0.00     0.001 A 
HETATM   27  C   UNL     1      38.591 -13.260  -2.218  1.00  0.00     0.000 A 
HETATM   28  C   UNL     1      39.047 -14.461  -1.678  1.00  0.00     0.001 A 
HETATM   29  C   UNL     1      39.945 -14.451  -0.609  1.00  0.00     0.009 A 
ENDBRANCH   6  24
TORSDOF 6
ENDMDL
MODEL 8
REMARK VINA RESULT:      -7.2      4.238      6.636
REMARK  6 active torsions:
REMARK  status: ('A' for Active; 'I' for Inactive)
REMARK    1  A    between atoms: O_2  and  C_3 
REMARK    2  A    between atoms: C_3  and  C_4 
REMARK    3  A    between atoms: C_4  and  N_5 
REMARK       I    between atoms: N_5  and  C_6 
REMARK    4  A    between atoms: C_6  and  C_7 
REMARK    5  A    between atoms: C_12  and  C_13 
REMARK    6  A    between atoms: C_20  and  C_21 
ROOT
HETATM    1  C   UNL     1      40.177 -14.093  -0.190  1.00  0.00     0.165 A 
HETATM    2  N   UNL     1      40.289 -15.204   0.584  1.00  0.00    -0.163 NA
HETATM    3  N   UNL     1      41.082 -14.813   1.595  1.00  0.00    -0.238 N 
HETATM    4  C   UNL     1      41.446 -13.496   1.550  1.00  0.00     0.141 A 
HETATM    5  N   UNL     1      42.194 -12.941   2.534  1.00  0.00    -0.365 N 
HETATM    6  C   UNL     1      42.827 -13.775   3.553  1.00  0.00     0.118 C 
HETATM    7  C   UNL     1      41.894 -14.948   3.905  1.00  0.00     0.066 C 
HETATM    8  C   UNL     1      41.483 -15.733   2.645  1.00  0.00     0.221 C 
HETATM    9  C   UNL     1      40.882 -13.010   0.397  1.00  0.00     0.092 A 
HETATM   10 BR   UNL     1      41.022 -11.258  -0.252  1.00  0.00    -0.044 Br
HETATM   11  H   UNL     1      42.620 -12.024   2.395  1.00  0.00     0.162 HD
ENDROOT
BRANCH   1  12
HETATM   12  C   UNL     1      39.401 -14.126  -1.442  1.00  0.00     0.273 C 
HETATM   13  N   UNL     1      38.174 -13.508  -1.334  1.00  0.00    -0.353 N 
HETATM   14  H   UNL     1      38.023 -12.976  -0.479  1.00  0.00     0.162 HD
HETATM   15  O   UNL     1      39.796 -14.647  -2.480  1.00  0.00    -0.266 OA
BRANCH  13  16
HETATM   16  C   UNL     1      37.322 -13.248  -2.474  1.00  0.00     0.149 C 
BRANCH  16  17
HETATM   17  C   UNL     1      37.043 -11.755  -2.634  1.00  0.00     0.186 C 
BRANCH  17  18
HETATM   18  O   UNL     1      38.249 -11.092  -3.030  1.00  0.00    -0.394 OA
HETATM   19  C   UNL     1      38.314  -9.773  -2.502  1.00  0.00     0.201 C 
ENDBRANCH  17  18
ENDBRANCH  16  17
ENDBRANCH  13  16
ENDBRANCH   1  12
BRANCH   8  20
HETATM   20  C   UNL     1      42.595 -16.628   2.144  1.00  0.00     0.409 C 
HETATM   21  F   UNL     1      43.221 -16.136   1.053  1.00  0.00    -0.169 F 
HETATM   22  F   UNL     1      43.546 -16.765   3.105  1.00  0.00    -0.169 F 
HETATM   23  F   UNL     1      42.171 -17.876   1.846  1.00  0.00    -0.169 F 
ENDBRANCH   8  20
BRANCH   6  24
HETATM   24  C   UNL     1      43.152 -12.956   4.787  1.00  0.00    -0.035 A 
HETATM   25  C   UNL     1      43.097 -11.552   4.777  1.00  0.00     0.009 A 
HETATM   26  C   UNL     1      43.378 -10.820   5.932  1.00  0.00     0.001 A 
HETATM   27  C   UNL     1      43.710 -11.479   7.114  1.00  0.00     0.000 A 
HETATM   28  C   UNL     1      43.760 -12.871   7.142  1.00  0.00     0.001 A 
HETATM   29  C   UNL     1      43.482 -13.605   5.987  1.00  0.00     0.009 A 
ENDBRANCH   6  24
TORSDOF 6
ENDMDL
MODEL 9
REMARK VINA RESULT:      -7.2      3.007      3.619
REMARK  6 active torsions:
REMARK  status: ('A' for Active; 'I' for Inactive)
REMARK    1  A    between atoms: O_2  and  C_3 
REMARK    2  A    between atoms: C_3  and  C_4 
REMARK    3  A    between atoms: C_4  and  N_5 
REMARK       I    between atoms: N_5  and  C_6 
REMARK    4  A    between atoms: C_6  and  C_7 
REMARK    5  A    between atoms: C_12  and  C_13 
REMARK    6  A    between atoms: C_20  and  C_21 
ROOT
HETATM    1  C   UNL     1      42.353 -12.777   4.751  1.00  0.00     0.165 A 
HETATM    2  N   UNL     1      43.166 -13.253   5.729  1.00  0.00    -0.163 NA
HETATM    3  N   UNL     1      43.199 -14.577   5.505  1.00  0.00    -0.238 N 
HETATM    4  C   UNL     1      42.497 -14.979   4.402  1.00  0.00     0.141 A 
HETATM    5  N   UNL     1      42.487 -16.277   4.012  1.00  0.00    -0.365 N 
HETATM    6  C   UNL     1      43.032 -17.321   4.877  1.00  0.00     0.118 C 
HETATM    7  C   UNL     1      44.269 -16.780   5.615  1.00  0.00     0.066 C 
HETATM    8  C   UNL     1      43.945 -15.476   6.367  1.00  0.00     0.221 C 
HETATM    9  C   UNL     1      41.930 -13.834   3.903  1.00  0.00     0.092 A 
HETATM   10 BR   UNL     1      40.826 -13.709   2.394  1.00  0.00    -0.044 Br
HETATM   11  H   UNL     1      41.812 -16.595   3.316  1.00  0.00     0.162 HD
ENDROOT
BRANCH   1  12
HETATM   12  C   UNL     1      42.029 -11.341   4.678  1.00  0.00     0.273 C 
HETATM   13  N   UNL     1      40.818 -11.031   5.257  1.00  0.00    -0.353 N 
HETATM   14  H   UNL     1      40.382 -11.778   5.794  1.00  0.00     0.162 HD
HETATM   15  O   UNL     1      42.754 -10.500   4.157  1.00  0.00    -0.266 OA
BRANCH  13  16
HETATM   16  C   UNL     1      40.377  -9.670   5.476  1.00  0.00     0.149 C 
BRANCH  16  17
HETATM   17  C   UNL     1      39.092  -9.369   4.709  1.00  0.00     0.186 C 
BRANCH  17  18
HETATM   18  O   UNL     1      38.664 -10.553   4.028  1.00  0.00    -0.394 OA
HETATM   19  C   UNL     1      38.367 -10.288   2.662  1.00  0.00     0.201 C 
ENDBRANCH  17  18
ENDBRANCH  16  17
ENDBRANCH  13  16
ENDBRANCH   1  12
BRANCH   8  20
HETATM   20  C   UNL     1      43.165 -15.730   7.639  1.00  0.00     0.409 C 
HETATM   21  F   UNL     1      43.169 -14.677   8.484  1.00  0.00    -0.169 F 
HETATM   22  F   UNL     1      41.863 -15.980   7.340  1.00  0.00    -0.169 F 
HETATM   23  F   UNL     1      43.612 -16.806   8.322  1.00  0.00    -0.169 F 
ENDBRANCH   8  20
BRANCH   6  24
HETATM   24  C   UNL     1      43.384 -18.555   4.067  1.00  0.00    -0.035 A 
HETATM   25  C   UNL     1      43.868 -19.725   4.676  1.00  0.00     0.009 A 
HETATM   26  C   UNL     1      44.162 -20.856   3.913  1.00  0.00     0.001 A 
HETATM   27  C   UNL     1      43.971 -20.836   2.532  1.00  0.00     0.000 A 
HETATM   28  C   UNL     1      43.482 -19.687   1.915  1.00  0.00     0.001 A 
HETATM   29  C   UNL     1      43.189 -18.554   2.677  1.00  0.00     0.009 A 
ENDBRANCH   6  24
TORSDOF 6
ENDMDL
MODEL 10
REMARK VINA RESULT:      -7.1      5.172      8.689
REMARK  6 active torsions:
REMARK  status: ('A' for Active; 'I' for Inactive)
REMARK    1  A    between atoms: O_2  and  C_3 
REMARK    2  A    between atoms: C_3  and  C_4 
REMARK    3  A    between atoms: C_4  and  N_5 
REMARK       I    between atoms: N_5  and  C_6 
REMARK    4  A    between atoms: C_6  and  C_7 
REMARK    5  A    between atoms: C_12  and  C_13 
REMARK    6  A    between atoms: C_20  and  C_21 
ROOT
HETATM    1  C   UNL     1      40.704 -14.357   0.890  1.00  0.00     0.165 A 
HETATM    2  N   UNL     1      40.149 -14.469  -0.345  1.00  0.00    -0.163 NA
HETATM    3  N   UNL     1      40.276 -13.238  -0.868  1.00  0.00    -0.238 N 
HETATM    4  C   UNL     1      40.931 -12.349  -0.062  1.00  0.00     0.141 A 
HETATM    5  N   UNL     1      41.189 -11.084  -0.478  1.00  0.00    -0.365 N 
HETATM    6  C   UNL     1      40.581 -10.561  -1.699  1.00  0.00     0.118 C 
HETATM    7  C   UNL     1      40.496 -11.682  -2.750  1.00  0.00     0.066 C 
HETATM    8  C   UNL     1      39.768 -12.918  -2.190  1.00  0.00     0.221 C 
HETATM    9  C   UNL     1      41.208 -13.045   1.087  1.00  0.00     0.092 A 
HETATM   10 BR   UNL     1      42.087 -12.380   2.602  1.00  0.00    -0.044 Br
HETATM   11  H   UNL     1      41.497 -10.380   0.193  1.00  0.00     0.162 HD
ENDROOT
BRANCH   1  12
HETATM   12  C   UNL     1      40.724 -15.508   1.810  1.00  0.00     0.273 C 
HETATM   13  N   UNL     1      41.980 -16.054   1.963  1.00  0.00    -0.353 N 
HETATM   14  H   UNL     1      42.747 -15.515   1.565  1.00  0.00     0.162 HD
HETATM   15  O   UNL     1      39.733 -15.943   2.386  1.00  0.00    -0.266 OA
BRANCH  13  16
HETATM   16  C   UNL     1      42.282 -17.064   2.955  1.00  0.00     0.149 C 
BRANCH  16  17
HETATM   17  C   UNL     1      43.322 -18.058   2.441  1.00  0.00     0.186 C 
BRANCH  17  18
HETATM   18  O   UNL     1      42.664 -19.272   2.063  1.00  0.00    -0.394 OA
HETATM   19  C   UNL     1      43.587 -20.346   1.937  1.00  0.00     0.201 C 
ENDBRANCH  17  18
ENDBRANCH  16  17
ENDBRANCH  13  16
ENDBRANCH   1  12
BRANCH   8  20
HETATM   20  C   UNL     1      38.269 -12.716  -2.128  1.00  0.00     0.409 C 
HETATM   21  F   UNL     1      37.572 -13.851  -2.353  1.00  0.00    -0.169 F 
HETATM   22  F   UNL     1      37.913 -12.282  -0.891  1.00  0.00    -0.169 F 
HETATM   23  F   UNL     1      37.829 -11.784  -3.001  1.00  0.00    -0.169 F 
ENDBRANCH   8  20
BRANCH   6  24
HETATM   24  C   UNL     1      41.378  -9.383  -2.229  1.00  0.00    -0.035 A 
HETATM   25  C   UNL     1      42.360  -8.746  -1.451  1.00  0.00     0.009 A 
HETATM   26  C   UNL     1      43.097  -7.680  -1.969  1.00  0.00     0.001 A 
HETATM   27  C   UNL     1      42.870  -7.241  -3.272  1.00  0.00     0.000 A 
HETATM   28  C   UNL     1      41.907  -7.869  -4.059  1.00  0.00     0.001 A 
HETATM   29  C   UNL     1      41.166  -8.934  -3.542  1.00  0.00     0.009 A 
ENDBRANCH   6  24
TORSDOF 6
ENDMDL
