MODEL 1
REMARK VINA RESULT:      -8.9      0.000      0.000
REMARK  5 active torsions:
REMARK  status: ('A' for Active; 'I' for Inactive)
REMARK    1  A    between atoms: C_5  and  C_6 
REMARK    2  A    between atoms: C_9  and  O_10 
REMARK    3  A    between atoms: N_14  and  C_15 
REMARK    4  A    between atoms: C_15  and  C_16 
REMARK       I    between atoms: C_16  and  N_17 
REMARK    5  A    between atoms: N_17  and  C_18 
ROOT
HETATM    1  C   UNL     1      37.433 -10.696   0.381  1.00  0.00     0.156 C 
HETATM    2  N   UNL     1      38.496 -11.639   0.126  1.00  0.00    -0.346 N 
HETATM    3  C   UNL     1      39.610 -11.798   0.874  1.00  0.00     0.113 A 
HETATM    4  C   UNL     1      40.414 -12.754   0.315  1.00  0.00     0.014 A 
HETATM    5  C   UNL     1      41.658 -12.913   1.110  1.00  0.00     0.158 A 
HETATM    6  N   UNL     1      41.355 -11.991   2.233  1.00  0.00    -0.325 N 
HETATM    7  C   UNL     1      40.173 -11.265   2.069  1.00  0.00     0.272 A 
HETATM    8  O   UNL     1      39.725 -10.393   2.792  1.00  0.00    -0.266 OA
HETATM    9  C   UNL     1      39.761 -13.257  -0.826  1.00  0.00     0.002 A 
HETATM   10  C   UNL     1      38.543 -12.551  -0.923  1.00  0.00     0.045 A 
HETATM   11  C   UNL     1      40.055 -14.250  -1.777  1.00  0.00     0.014 A 
HETATM   12  C   UNL     1      39.132 -14.522  -2.793  1.00  0.00     0.001 A 
HETATM   13  C   UNL     1      37.935 -13.816  -2.873  1.00  0.00     0.002 A 
HETATM   14  C   UNL     1      37.619 -12.819  -1.944  1.00  0.00     0.030 A 
ENDROOT
BRANCH   6  15
HETATM   15  C   UNL     1      42.337 -11.643   3.252  1.00  0.00     0.229 C 
BRANCH  15  16
HETATM   16  C   UNL     1      42.024 -12.187   4.655  1.00  0.00     0.235 C 
HETATM   17  N   UNL     1      42.696 -13.338   4.982  1.00  0.00    -0.355 N 
HETATM   18  H   UNL     1      43.187 -13.767   4.208  1.00  0.00     0.162 HD
HETATM   19  O   UNL     1      41.287 -11.570   5.416  1.00  0.00    -0.272 OA
BRANCH  17  20
HETATM   20  C   UNL     1      42.584 -14.150   6.187  1.00  0.00     0.084 C 
HETATM   21  C   UNL     1      41.295 -14.975   6.311  1.00  0.00     0.025 C 
HETATM   22  C   UNL     1      41.375 -16.418   5.810  1.00  0.00     0.002 C 
HETATM   23  C   UNL     1      42.658 -17.122   6.232  1.00  0.00     0.000 C 
HETATM   24  C   UNL     1      43.892 -16.321   5.843  1.00  0.00     0.002 C 
HETATM   25  C   UNL     1      43.865 -14.937   6.477  1.00  0.00     0.025 C 
ENDBRANCH  17  20
ENDBRANCH  15  16
ENDBRANCH   6  15
BRANCH   5  26
HETATM   26  C   UNL     1      41.829 -14.355   1.530  1.00  0.00    -0.030 A 
HETATM   27  C   UNL     1      43.129 -14.884   1.577  1.00  0.00     0.012 A 
HETATM   28  C   UNL     1      43.356 -16.196   2.002  1.00  0.00     0.037 A 
HETATM   29  C   UNL     1      42.297 -17.012   2.397  1.00  0.00     0.068 A 
HETATM   30  C   UNL     1      41.001 -16.502   2.363  1.00  0.00     0.037 A 
HETATM   31  C   UNL     1      40.771 -15.186   1.940  1.00  0.00     0.012 A 
BRANCH  29  32
HETATM   32  O   UNL     1      42.659 -18.270   2.790  1.00  0.00    -0.356 OA
HETATM   33  C   UNL     1      44.051 -18.527   2.921  1.00  0.00     0.210 C 
ENDBRANCH  29  32
ENDBRANCH   5  26
TORSDOF 5
ENDMDL
MODEL 2
REMARK VINA RESULT:      -8.4      2.797      6.363
REMARK  5 active torsions:
REMARK  status: ('A' for Active; 'I' for Inactive)
REMARK    1  A    between atoms: C_5  and  C_6 
REMARK    2  A    between atoms: C_9  and  O_10 
REMARK    3  A    between atoms: N_14  and  C_15 
REMARK    4  A    between atoms: C_15  and  C_16 
REMARK       I    between atoms: C_16  and  N_17 
REMARK    5  A    between atoms: N_17  and  C_18 
ROOT
HETATM    1  C   UNL     1      44.954 -16.464   6.485  1.00  0.00     0.156 C 
HETATM    2  N   UNL     1      43.915 -16.351   5.489  1.00  0.00    -0.346 N 
HETATM    3  C   UNL     1      42.981 -15.376   5.426  1.00  0.00     0.113 A 
HETATM    4  C   UNL     1      42.136 -15.609   4.375  1.00  0.00     0.014 A 
HETATM    5  C   UNL     1      41.084 -14.562   4.317  1.00  0.00     0.158 A 
HETATM    6  N   UNL     1      41.552 -13.677   5.413  1.00  0.00    -0.325 N 
HETATM    7  C   UNL     1      42.637 -14.187   6.130  1.00  0.00     0.272 A 
HETATM    8  O   UNL     1      43.171 -13.711   7.115  1.00  0.00    -0.266 OA
HETATM    9  C   UNL     1      42.576 -16.769   3.713  1.00  0.00     0.002 A 
HETATM   10  C   UNL     1      43.710 -17.219   4.422  1.00  0.00     0.045 A 
HETATM   11  C   UNL     1      42.155 -17.479   2.574  1.00  0.00     0.014 A 
HETATM   12  C   UNL     1      42.872 -18.609   2.165  1.00  0.00     0.001 A 
HETATM   13  C   UNL     1      43.989 -19.037   2.876  1.00  0.00     0.002 A 
HETATM   14  C   UNL     1      44.428 -18.354   4.015  1.00  0.00     0.030 A 
ENDROOT
BRANCH   6  15
HETATM   15  C   UNL     1      40.773 -12.544   5.896  1.00  0.00     0.229 C 
BRANCH  15  16
HETATM   16  C   UNL     1      41.561 -11.229   6.012  1.00  0.00     0.235 C 
HETATM   17  N   UNL     1      42.092 -10.992   7.255  1.00  0.00    -0.355 N 
HETATM   18  H   UNL     1      41.769 -11.628   7.973  1.00  0.00     0.162 HD
HETATM   19  O   UNL     1      41.739 -10.516   5.030  1.00  0.00    -0.272 OA
BRANCH  17  20
HETATM   20  C   UNL     1      42.825  -9.824   7.727  1.00  0.00     0.084 C 
HETATM   21  C   UNL     1      42.398  -9.287   9.101  1.00  0.00     0.025 C 
HETATM   22  C   UNL     1      43.202  -9.798  10.297  1.00  0.00     0.002 C 
HETATM   23  C   UNL     1      44.701  -9.830  10.034  1.00  0.00     0.000 C 
HETATM   24  C   UNL     1      45.031 -10.600   8.763  1.00  0.00     0.002 C 
HETATM   25  C   UNL     1      44.339  -9.982   7.557  1.00  0.00     0.025 C 
ENDBRANCH  17  20
ENDBRANCH  15  16
ENDBRANCH   6  15
BRANCH   5  26
HETATM   26  C   UNL     1      41.078 -13.903   2.957  1.00  0.00    -0.030 A 
HETATM   27  C   UNL     1      40.131 -14.334   2.013  1.00  0.00     0.012 A 
HETATM   28  C   UNL     1      40.045 -13.732   0.754  1.00  0.00     0.037 A 
HETATM   29  C   UNL     1      40.894 -12.682   0.406  1.00  0.00     0.068 A 
HETATM   30  C   UNL     1      41.835 -12.237   1.332  1.00  0.00     0.037 A 
HETATM   31  C   UNL     1      41.922 -12.838   2.595  1.00  0.00     0.012 A 
BRANCH  29  32
HETATM   32  O   UNL     1      40.703 -12.185  -0.852  1.00  0.00    -0.356 OA
HETATM   33  C   UNL     1      40.127 -13.064  -1.810  1.00  0.00     0.210 C 
ENDBRANCH  29  32
ENDBRANCH   5  26
TORSDOF 5
ENDMDL
MODEL 3
REMARK VINA RESULT:      -8.2      2.302      4.919
REMARK  5 active torsions:
REMARK  status: ('A' for Active; 'I' for Inactive)
REMARK    1  A    between atoms: C_5  and  C_6 
REMARK    2  A    between atoms: C_9  and  O_10 
REMARK    3  A    between atoms: N_14  and  C_15 
REMARK    4  A    between atoms: C_15  and  C_16 
REMARK       I    between atoms: C_16  and  N_17 
REMARK    5  A    between atoms: N_17  and  C_18 
ROOT
HETATM    1  C   UNL     1      39.687 -14.265  -0.726  1.00  0.00     0.156 C 
HETATM    2  N   UNL     1      39.742 -13.496   0.494  1.00  0.00    -0.346 N 
HETATM    3  C   UNL     1      40.031 -13.979   1.723  1.00  0.00     0.113 A 
HETATM    4  C   UNL     1      39.953 -12.974   2.649  1.00  0.00     0.014 A 
HETATM    5  C   UNL     1      40.235 -13.501   4.008  1.00  0.00     0.158 A 
HETATM    6  N   UNL     1      40.586 -14.902   3.664  1.00  0.00    -0.325 N 
HETATM    7  C   UNL     1      40.397 -15.221   2.317  1.00  0.00     0.272 A 
HETATM    8  O   UNL     1      40.533 -16.305   1.779  1.00  0.00    -0.266 OA
HETATM    9  C   UNL     1      39.635 -11.784   1.971  1.00  0.00     0.002 A 
HETATM   10  C   UNL     1      39.518 -12.128   0.607  1.00  0.00     0.045 A 
HETATM   11  C   UNL     1      39.456 -10.443   2.356  1.00  0.00     0.014 A 
HETATM   12  C   UNL     1      39.174  -9.480   1.381  1.00  0.00     0.001 A 
HETATM   13  C   UNL     1      39.063  -9.838   0.040  1.00  0.00     0.002 A 
HETATM   14  C   UNL     1      39.231 -11.164  -0.371  1.00  0.00     0.030 A 
ENDROOT
BRANCH   6  15
HETATM   15  C   UNL     1      40.805 -15.929   4.675  1.00  0.00     0.229 C 
BRANCH  15  16
HETATM   16  C   UNL     1      42.260 -16.411   4.793  1.00  0.00     0.235 C 
HETATM   17  N   UNL     1      42.588 -17.442   3.948  1.00  0.00    -0.355 N 
HETATM   18  H   UNL     1      41.797 -17.855   3.471  1.00  0.00     0.162 HD
HETATM   19  O   UNL     1      43.050 -15.844   5.539  1.00  0.00    -0.272 OA
BRANCH  17  20
HETATM   20  C   UNL     1      43.842 -18.177   3.848  1.00  0.00     0.084 C 
HETATM   21  C   UNL     1      44.194 -19.051   5.061  1.00  0.00     0.025 C 
HETATM   22  C   UNL     1      43.772 -20.518   4.970  1.00  0.00     0.002 C 
HETATM   23  C   UNL     1      44.050 -21.133   3.605  1.00  0.00     0.000 C 
HETATM   24  C   UNL     1      43.445 -20.302   2.482  1.00  0.00     0.002 C 
HETATM   25  C   UNL     1      43.995 -18.883   2.498  1.00  0.00     0.025 C 
ENDBRANCH  17  20
ENDBRANCH  15  16
ENDBRANCH   6  15
BRANCH   5  26
HETATM   26  C   UNL     1      41.365 -12.726   4.644  1.00  0.00    -0.030 A 
HETATM   27  C   UNL     1      42.605 -12.695   3.985  1.00  0.00     0.012 A 
HETATM   28  C   UNL     1      43.675 -11.956   4.499  1.00  0.00     0.037 A 
HETATM   29  C   UNL     1      43.536 -11.226   5.679  1.00  0.00     0.068 A 
HETATM   30  C   UNL     1      42.312 -11.240   6.343  1.00  0.00     0.037 A 
HETATM   31  C   UNL     1      41.238 -11.977   5.828  1.00  0.00     0.012 A 
BRANCH  29  32
HETATM   32  O   UNL     1      44.658 -10.550   6.068  1.00  0.00    -0.356 OA
HETATM   33  C   UNL     1      45.770 -11.333   6.483  1.00  0.00     0.210 C 
ENDBRANCH  29  32
ENDBRANCH   5  26
TORSDOF 5
ENDMDL
MODEL 4
REMARK VINA RESULT:      -7.9      1.816      2.641
REMARK  5 active torsions:
REMARK  status: ('A' for Active; 'I' for Inactive)
REMARK    1  A    between atoms: C_5  and  C_6 
REMARK    2  A    between atoms: C_9  and  O_10 
REMARK    3  A    between atoms: N_14  and  C_15 
REMARK    4  A    between atoms: C_15  and  C_16 
REMARK       I    between atoms: C_16  and  N_17 
REMARK    5  A    between atoms: N_17  and  C_18 
ROOT
HETATM    1  C   UNL     1      37.442 -10.467  -0.169  1.00  0.00     0.156 C 
HETATM    2  N   UNL     1      38.472 -11.469  -0.308  1.00  0.00    -0.346 N 
HETATM    3  C   UNL     1      39.598 -11.557   0.435  1.00  0.00     0.113 A 
HETATM    4  C   UNL     1      40.362 -12.606  -0.001  1.00  0.00     0.014 A 
HETATM    5  C   UNL     1      41.618 -12.691   0.787  1.00  0.00     0.158 A 
HETATM    6  N   UNL     1      41.365 -11.613   1.776  1.00  0.00    -0.325 N 
HETATM    7  C   UNL     1      40.200 -10.880   1.533  1.00  0.00     0.272 A 
HETATM    8  O   UNL     1      39.793  -9.904   2.136  1.00  0.00    -0.266 OA
HETATM    9  C   UNL     1      39.671 -13.241  -1.048  1.00  0.00     0.002 A 
HETATM   10  C   UNL     1      38.471 -12.518  -1.222  1.00  0.00     0.045 A 
HETATM   11  C   UNL     1      39.916 -14.365  -1.857  1.00  0.00     0.014 A 
HETATM   12  C   UNL     1      38.964 -14.747  -2.809  1.00  0.00     0.001 A 
HETATM   13  C   UNL     1      37.786 -14.022  -2.965  1.00  0.00     0.002 A 
HETATM   14  C   UNL     1      37.518 -12.897  -2.179  1.00  0.00     0.030 A 
ENDROOT
BRANCH   6  15
HETATM   15  C   UNL     1      42.378 -11.158   2.719  1.00  0.00     0.229 C 
BRANCH  15  16
HETATM   16  C   UNL     1      42.216 -11.704   4.147  1.00  0.00     0.235 C 
HETATM   17  N   UNL     1      43.106 -11.190   5.057  1.00  0.00    -0.355 N 
HETATM   18  H   UNL     1      43.851 -10.642   4.646  1.00  0.00     0.162 HD
HETATM   19  O   UNL     1      41.304 -12.475   4.423  1.00  0.00    -0.272 OA
BRANCH  17  20
HETATM   20  C   UNL     1      43.276 -11.536   6.463  1.00  0.00     0.084 C 
HETATM   21  C   UNL     1      44.648 -12.116   6.839  1.00  0.00     0.025 C 
HETATM   22  C   UNL     1      45.679 -11.113   7.357  1.00  0.00     0.002 C 
HETATM   23  C   UNL     1      45.089 -10.111   8.342  1.00  0.00     0.000 C 
HETATM   24  C   UNL     1      43.863  -9.415   7.766  1.00  0.00     0.002 C 
HETATM   25  C   UNL     1      42.786 -10.425   7.396  1.00  0.00     0.025 C 
ENDBRANCH  17  20
ENDBRANCH  15  16
ENDBRANCH   6  15
BRANCH   5  26
HETATM   26  C   UNL     1      41.757 -14.065   1.401  1.00  0.00    -0.030 A 
HETATM   27  C   UNL     1      43.049 -14.588   1.571  1.00  0.00     0.012 A 
HETATM   28  C   UNL     1      43.246 -15.834   2.175  1.00  0.00     0.037 A 
HETATM   29  C   UNL     1      42.164 -16.586   2.629  1.00  0.00     0.068 A 
HETATM   30  C   UNL     1      40.876 -16.079   2.474  1.00  0.00     0.037 A 
HETATM   31  C   UNL     1      40.676 -14.830   1.872  1.00  0.00     0.012 A 
BRANCH  29  32
HETATM   32  O   UNL     1      42.497 -17.782   3.200  1.00  0.00    -0.356 OA
HETATM   33  C   UNL     1      43.688 -17.815   3.975  1.00  0.00     0.210 C 
ENDBRANCH  29  32
ENDBRANCH   5  26
TORSDOF 5
ENDMDL
MODEL 5
REMARK VINA RESULT:      -7.8      2.073      6.864
REMARK  5 active torsions:
REMARK  status: ('A' for Active; 'I' for Inactive)
REMARK    1  A    between atoms: C_5  and  C_6 
REMARK    2  A    between atoms: C_9  and  O_10 
REMARK    3  A    between atoms: N_14  and  C_15 
REMARK    4  A    between atoms: C_15  and  C_16 
REMARK       I    between atoms: C_16  and  N_17 
REMARK    5  A    between atoms: N_17  and  C_18 
ROOT
HETATM    1  C   UNL     1      44.063 -15.458   6.317  1.00  0.00     0.156 C 
HETATM    2  N   UNL     1      43.211 -15.750   5.189  1.00  0.00    -0.346 N 
HETATM    3  C   UNL     1      42.145 -15.019   4.792  1.00  0.00     0.113 A 
HETATM    4  C   UNL     1      41.551 -15.613   3.712  1.00  0.00     0.014 A 
HETATM    5  C   UNL     1      40.358 -14.837   3.287  1.00  0.00     0.158 A 
HETATM    6  N   UNL     1      40.465 -13.687   4.219  1.00  0.00    -0.325 N 
HETATM    7  C   UNL     1      41.481 -13.818   5.170  1.00  0.00     0.272 A 
HETATM    8  O   UNL     1      41.743 -13.067   6.091  1.00  0.00    -0.266 OA
HETATM    9  C   UNL     1      42.297 -16.759   3.381  1.00  0.00     0.002 A 
HETATM   10  C   UNL     1      43.351 -16.824   4.317  1.00  0.00     0.045 A 
HETATM   11  C   UNL     1      42.213 -17.739   2.376  1.00  0.00     0.014 A 
HETATM   12  C   UNL     1      43.177 -18.751   2.321  1.00  0.00     0.001 A 
HETATM   13  C   UNL     1      44.211 -18.799   3.252  1.00  0.00     0.002 A 
HETATM   14  C   UNL     1      44.317 -17.841   4.265  1.00  0.00     0.030 A 
ENDROOT
BRANCH   6  15
HETATM   15  C   UNL     1      39.427 -12.670   4.337  1.00  0.00     0.229 C 
BRANCH  15  16
HETATM   16  C   UNL     1      39.662 -11.413   3.483  1.00  0.00     0.235 C 
HETATM   17  N   UNL     1      38.628 -11.100   2.636  1.00  0.00    -0.355 N 
HETATM   18  H   UNL     1      37.917 -11.817   2.566  1.00  0.00     0.162 HD
HETATM   19  O   UNL     1      40.671 -10.734   3.632  1.00  0.00    -0.272 OA
BRANCH  17  20
HETATM   20  C   UNL     1      38.549 -10.030   1.649  1.00  0.00     0.084 C 
HETATM   21  C   UNL     1      39.151 -10.354   0.274  1.00  0.00     0.025 C 
HETATM   22  C   UNL     1      38.172 -10.876  -0.778  1.00  0.00     0.002 C 
HETATM   23  C   UNL     1      36.855 -10.112  -0.793  1.00  0.00     0.000 C 
HETATM   24  C   UNL     1      36.221 -10.059   0.590  1.00  0.00     0.002 C 
HETATM   25  C   UNL     1      37.156  -9.396   1.592  1.00  0.00     0.025 C 
ENDBRANCH  17  20
ENDBRANCH  15  16
ENDBRANCH   6  15
BRANCH   5  26
HETATM   26  C   UNL     1      40.474 -14.457   1.829  1.00  0.00    -0.030 A 
HETATM   27  C   UNL     1      39.730 -15.189   0.890  1.00  0.00     0.012 A 
HETATM   28  C   UNL     1      39.759 -14.857  -0.468  1.00  0.00     0.037 A 
HETATM   29  C   UNL     1      40.523 -13.784  -0.923  1.00  0.00     0.068 A 
HETATM   30  C   UNL     1      41.263 -13.042  -0.005  1.00  0.00     0.037 A 
HETATM   31  C   UNL     1      41.234 -13.372   1.356  1.00  0.00     0.012 A 
BRANCH  29  32
HETATM   32  O   UNL     1      40.461 -13.568  -2.271  1.00  0.00    -0.356 OA
HETATM   33  C   UNL     1      41.057 -12.374  -2.760  1.00  0.00     0.210 C 
ENDBRANCH  29  32
ENDBRANCH   5  26
TORSDOF 5
ENDMDL
MODEL 6
REMARK VINA RESULT:      -7.5      2.591      6.451
REMARK  5 active torsions:
REMARK  status: ('A' for Active; 'I' for Inactive)
REMARK    1  A    between atoms: C_5  and  C_6 
REMARK    2  A    between atoms: C_9  and  O_10 
REMARK    3  A    between atoms: N_14  and  C_15 
REMARK    4  A    between atoms: C_15  and  C_16 
REMARK       I    between atoms: C_16  and  N_17 
REMARK    5  A    between atoms: N_17  and  C_18 
ROOT
HETATM    1  C   UNL     1      44.348 -16.186   6.531  1.00  0.00     0.156 C 
HETATM    2  N   UNL     1      43.454 -16.308   5.404  1.00  0.00    -0.346 N 
HETATM    3  C   UNL     1      42.387 -15.518   5.150  1.00  0.00     0.113 A 
HETATM    4  C   UNL     1      41.748 -15.949   4.019  1.00  0.00     0.014 A 
HETATM    5  C   UNL     1      40.554 -15.108   3.749  1.00  0.00     0.158 A 
HETATM    6  N   UNL     1      40.709 -14.101   4.828  1.00  0.00    -0.325 N 
HETATM    7  C   UNL     1      41.754 -14.374   5.715  1.00  0.00     0.272 A 
HETATM    8  O   UNL     1      42.058 -13.763   6.722  1.00  0.00    -0.266 OA
HETATM    9  C   UNL     1      42.465 -17.044   3.505  1.00  0.00     0.002 A 
HETATM   10  C   UNL     1      43.549 -17.251   4.386  1.00  0.00     0.045 A 
HETATM   11  C   UNL     1      42.333 -17.873   2.377  1.00  0.00     0.014 A 
HETATM   12  C   UNL     1      43.279 -18.878   2.148  1.00  0.00     0.001 A 
HETATM   13  C   UNL     1      44.342 -19.066   3.026  1.00  0.00     0.002 A 
HETATM   14  C   UNL     1      44.496 -18.261   4.159  1.00  0.00     0.030 A 
ENDROOT
BRANCH   6  15
HETATM   15  C   UNL     1      39.692 -13.100   5.122  1.00  0.00     0.229 C 
BRANCH  15  16
HETATM   16  C   UNL     1      40.245 -11.719   5.512  1.00  0.00     0.235 C 
HETATM   17  N   UNL     1      39.935 -11.323   6.789  1.00  0.00    -0.355 N 
HETATM   18  H   UNL     1      39.256 -11.912   7.254  1.00  0.00     0.162 HD
HETATM   19  O   UNL     1      40.962 -11.091   4.741  1.00  0.00    -0.272 OA
BRANCH  17  20
HETATM   20  C   UNL     1      40.235 -10.059   7.450  1.00  0.00     0.084 C 
HETATM   21  C   UNL     1      41.726  -9.699   7.542  1.00  0.00     0.025 C 
HETATM   22  C   UNL     1      42.266  -8.803   6.427  1.00  0.00     0.002 C 
HETATM   23  C   UNL     1      41.326  -7.656   6.080  1.00  0.00     0.000 C 
HETATM   24  C   UNL     1      39.921  -8.156   5.771  1.00  0.00     0.002 C 
HETATM   25  C   UNL     1      39.342  -8.918   6.954  1.00  0.00     0.025 C 
ENDBRANCH  17  20
ENDBRANCH  15  16
ENDBRANCH   6  15
BRANCH   5  26
HETATM   26  C   UNL     1      40.628 -14.529   2.355  1.00  0.00    -0.030 A 
HETATM   27  C   UNL     1      40.003 -15.229   1.310  1.00  0.00     0.012 A 
HETATM   28  C   UNL     1      39.996 -14.722   0.007  1.00  0.00     0.037 A 
HETATM   29  C   UNL     1      40.605 -13.503  -0.287  1.00  0.00     0.068 A 
HETATM   30  C   UNL     1      41.224 -12.791   0.738  1.00  0.00     0.037 A 
HETATM   31  C   UNL     1      41.230 -13.296   2.045  1.00  0.00     0.012 A 
BRANCH  29  32
HETATM   32  O   UNL     1      40.524 -13.124  -1.597  1.00  0.00    -0.356 OA
HETATM   33  C   UNL     1      39.961 -14.063  -2.504  1.00  0.00     0.210 C 
ENDBRANCH  29  32
ENDBRANCH   5  26
TORSDOF 5
ENDMDL
MODEL 7
REMARK VINA RESULT:      -7.5      2.267      7.681
REMARK  5 active torsions:
REMARK  status: ('A' for Active; 'I' for Inactive)
REMARK    1  A    between atoms: C_5  and  C_6 
REMARK    2  A    between atoms: C_9  and  O_10 
REMARK    3  A    between atoms: N_14  and  C_15 
REMARK    4  A    between atoms: C_15  and  C_16 
REMARK       I    between atoms: C_16  and  N_17 
REMARK    5  A    between atoms: N_17  and  C_18 
ROOT
HETATM    1  C   UNL     1      42.547 -16.861   2.747  1.00  0.00     0.156 C 
HETATM    2  N   UNL     1      42.641 -15.824   3.747  1.00  0.00    -0.346 N 
HETATM    3  C   UNL     1      42.522 -14.496   3.525  1.00  0.00     0.113 A 
HETATM    4  C   UNL     1      42.706 -13.810   4.695  1.00  0.00     0.014 A 
HETATM    5  C   UNL     1      42.610 -12.347   4.456  1.00  0.00     0.158 A 
HETATM    6  N   UNL     1      42.238 -12.353   3.019  1.00  0.00    -0.325 N 
HETATM    7  C   UNL     1      42.254 -13.622   2.433  1.00  0.00     0.272 A 
HETATM    8  O   UNL     1      42.064 -13.907   1.265  1.00  0.00    -0.266 OA
HETATM    9  C   UNL     1      42.915 -14.750   5.720  1.00  0.00     0.002 A 
HETATM   10  C   UNL     1      42.858 -16.019   5.107  1.00  0.00     0.045 A 
HETATM   11  C   UNL     1      43.123 -14.669   7.109  1.00  0.00     0.014 A 
HETATM   12  C   UNL     1      43.262 -15.847   7.852  1.00  0.00     0.001 A 
HETATM   13  C   UNL     1      43.202 -17.090   7.230  1.00  0.00     0.002 A 
HETATM   14  C   UNL     1      43.001 -17.201   5.850  1.00  0.00     0.030 A 
ENDROOT
BRANCH   6  15
HETATM   15  C   UNL     1      42.168 -11.137   2.220  1.00  0.00     0.229 C 
BRANCH  15  16
HETATM   16  C   UNL     1      40.895 -11.003   1.367  1.00  0.00     0.235 C 
HETATM   17  N   UNL     1      40.983 -11.572   0.121  1.00  0.00    -0.355 N 
HETATM   18  H   UNL     1      41.917 -11.865  -0.136  1.00  0.00     0.162 HD
HETATM   19  O   UNL     1      39.882 -10.490   1.829  1.00  0.00    -0.272 OA
BRANCH  17  20
HETATM   20  C   UNL     1      40.001 -11.568  -0.956  1.00  0.00     0.084 C 
HETATM   21  C   UNL     1      40.581 -11.561  -2.378  1.00  0.00     0.025 C 
HETATM   22  C   UNL     1      40.735 -12.930  -3.042  1.00  0.00     0.002 C 
HETATM   23  C   UNL     1      39.533 -13.838  -2.819  1.00  0.00     0.000 C 
HETATM   24  C   UNL     1      39.192 -13.963  -1.341  1.00  0.00     0.002 C 
HETATM   25  C   UNL     1      38.892 -12.600  -0.733  1.00  0.00     0.025 C 
ENDBRANCH  17  20
ENDBRANCH  15  16
ENDBRANCH   6  15
BRANCH   5  26
HETATM   26  C   UNL     1      41.562 -11.738   5.358  1.00  0.00    -0.030 A 
HETATM   27  C   UNL     1      41.923 -10.632   6.144  1.00  0.00     0.012 A 
HETATM   28  C   UNL     1      40.986  -9.995   6.964  1.00  0.00     0.037 A 
HETATM   29  C   UNL     1      39.666 -10.440   7.016  1.00  0.00     0.068 A 
HETATM   30  C   UNL     1      39.288 -11.532   6.238  1.00  0.00     0.037 A 
HETATM   31  C   UNL     1      40.225 -12.170   5.414  1.00  0.00     0.012 A 
BRANCH  29  32
HETATM   32  O   UNL     1      38.856  -9.728   7.856  1.00  0.00    -0.356 OA
HETATM   33  C   UNL     1      39.058  -9.910   9.251  1.00  0.00     0.210 C 
ENDBRANCH  29  32
ENDBRANCH   5  26
TORSDOF 5
ENDMDL
MODEL 8
REMARK VINA RESULT:      -7.2     15.803     18.863
REMARK  5 active torsions:
REMARK  status: ('A' for Active; 'I' for Inactive)
REMARK    1  A    between atoms: C_5  and  C_6 
REMARK    2  A    between atoms: C_9  and  O_10 
REMARK    3  A    between atoms: N_14  and  C_15 
REMARK    4  A    between atoms: C_15  and  C_16 
REMARK       I    between atoms: C_16  and  N_17 
REMARK    5  A    between atoms: N_17  and  C_18 
ROOT
HETATM    1  C   UNL     1      51.541 -31.757   0.061  1.00  0.00     0.156 C 
HETATM    2  N   UNL     1      50.504 -31.197   0.894  1.00  0.00    -0.346 N 
HETATM    3  C   UNL     1      49.544 -30.334   0.491  1.00  0.00     0.113 A 
HETATM    4  C   UNL     1      48.757 -29.984   1.554  1.00  0.00     0.014 A 
HETATM    5  C   UNL     1      47.720 -29.010   1.130  1.00  0.00     0.158 A 
HETATM    6  N   UNL     1      47.992 -28.975  -0.329  1.00  0.00    -0.325 N 
HETATM    7  C   UNL     1      49.122 -29.702  -0.713  1.00  0.00     0.272 A 
HETATM    8  O   UNL     1      49.615 -29.785  -1.823  1.00  0.00    -0.266 OA
HETATM    9  C   UNL     1      49.214 -30.689   2.683  1.00  0.00     0.002 A 
HETATM   10  C   UNL     1      50.311 -31.461   2.245  1.00  0.00     0.045 A 
HETATM   11  C   UNL     1      48.807 -30.778   4.026  1.00  0.00     0.014 A 
HETATM   12  C   UNL     1      49.491 -31.634   4.896  1.00  0.00     0.001 A 
HETATM   13  C   UNL     1      50.570 -32.390   4.446  1.00  0.00     0.002 A 
HETATM   14  C   UNL     1      51.001 -32.317   3.118  1.00  0.00     0.030 A 
ENDROOT
BRANCH   6  15
HETATM   15  C   UNL     1      47.339 -28.033  -1.228  1.00  0.00     0.229 C 
BRANCH  15  16
HETATM   16  C   UNL     1      45.860 -28.341  -1.515  1.00  0.00     0.235 C 
HETATM   17  N   UNL     1      45.646 -29.508  -2.205  1.00  0.00    -0.355 N 
HETATM   18  H   UNL     1      46.487 -29.934  -2.572  1.00  0.00     0.162 HD
HETATM   19  O   UNL     1      44.974 -27.615  -1.079  1.00  0.00    -0.272 OA
BRANCH  17  20
HETATM   20  C   UNL     1      44.390 -30.060  -2.697  1.00  0.00     0.084 C 
HETATM   21  C   UNL     1      43.930 -29.538  -4.066  1.00  0.00     0.025 C 
HETATM   22  C   UNL     1      44.332 -30.386  -5.273  1.00  0.00     0.002 C 
HETATM   23  C   UNL     1      44.150 -31.879  -5.037  1.00  0.00     0.000 C 
HETATM   24  C   UNL     1      44.854 -32.336  -3.767  1.00  0.00     0.002 C 
HETATM   25  C   UNL     1      44.330 -31.583  -2.552  1.00  0.00     0.025 C 
ENDBRANCH  17  20
ENDBRANCH  15  16
ENDBRANCH   6  15
BRANCH   5  26
HETATM   26  C   UNL     1      46.344 -29.524   1.485  1.00  0.00    -0.030 A 
HETATM   27  C   UNL     1      45.970 -30.797   1.023  1.00  0.00     0.012 A 
HETATM   28  C   UNL     1      44.729 -31.347   1.356  1.00  0.00     0.037 A 
HETATM   29  C   UNL     1      43.832 -30.647   2.162  1.00  0.00     0.068 A 
HETATM   30  C   UNL     1      44.188 -29.386   2.634  1.00  0.00     0.037 A 
HETATM   31  C   UNL     1      45.432 -28.834   2.303  1.00  0.00     0.012 A 
BRANCH  29  32
HETATM   32  O   UNL     1      42.657 -31.300   2.411  1.00  0.00    -0.356 OA
HETATM   33  C   UNL     1      41.476 -30.730   1.863  1.00  0.00     0.210 C 
ENDBRANCH  29  32
ENDBRANCH   5  26
TORSDOF 5
ENDMDL
MODEL 9
REMARK VINA RESULT:      -7.2      3.006      4.632
REMARK  5 active torsions:
REMARK  status: ('A' for Active; 'I' for Inactive)
REMARK    1  A    between atoms: C_5  and  C_6 
REMARK    2  A    between atoms: C_9  and  O_10 
REMARK    3  A    between atoms: N_14  and  C_15 
REMARK    4  A    between atoms: C_15  and  C_16 
REMARK       I    between atoms: C_16  and  N_17 
REMARK    5  A    between atoms: N_17  and  C_18 
ROOT
HETATM    1  C   UNL     1      39.492  -6.375   1.647  1.00  0.00     0.156 C 
HETATM    2  N   UNL     1      40.077  -7.577   1.102  1.00  0.00    -0.346 N 
HETATM    3  C   UNL     1      39.950  -8.822   1.614  1.00  0.00     0.113 A 
HETATM    4  C   UNL     1      40.669  -9.709   0.860  1.00  0.00     0.014 A 
HETATM    5  C   UNL     1      40.565 -11.076   1.433  1.00  0.00     0.158 A 
HETATM    6  N   UNL     1      39.600 -10.813   2.530  1.00  0.00    -0.325 N 
HETATM    7  C   UNL     1      39.283  -9.462   2.696  1.00  0.00     0.272 A 
HETATM    8  O   UNL     1      38.583  -8.960   3.556  1.00  0.00    -0.266 OA
HETATM    9  C   UNL     1      41.251  -9.002  -0.207  1.00  0.00     0.002 A 
HETATM   10  C   UNL     1      40.856  -7.657  -0.047  1.00  0.00     0.045 A 
HETATM   11  C   UNL     1      42.053  -9.354  -1.308  1.00  0.00     0.014 A 
HETATM   12  C   UNL     1      42.434  -8.366  -2.223  1.00  0.00     0.001 A 
HETATM   13  C   UNL     1      42.034  -7.044  -2.050  1.00  0.00     0.002 A 
HETATM   14  C   UNL     1      41.242  -6.665  -0.962  1.00  0.00     0.030 A 
ENDROOT
BRANCH   6  15
HETATM   15  C   UNL     1      39.258 -11.813   3.533  1.00  0.00     0.229 C 
BRANCH  15  16
HETATM   16  C   UNL     1      40.461 -12.570   4.120  1.00  0.00     0.235 C 
HETATM   17  N   UNL     1      40.680 -13.806   3.565  1.00  0.00    -0.355 N 
HETATM   18  H   UNL     1      39.938 -14.126   2.958  1.00  0.00     0.162 HD
HETATM   19  O   UNL     1      41.182 -12.044   4.960  1.00  0.00    -0.272 OA
BRANCH  17  20
HETATM   20  C   UNL     1      41.677 -14.805   3.929  1.00  0.00     0.084 C 
HETATM   21  C   UNL     1      41.250 -16.267   3.730  1.00  0.00     0.025 C 
HETATM   22  C   UNL     1      41.654 -16.906   2.400  1.00  0.00     0.002 C 
HETATM   23  C   UNL     1      43.081 -16.569   1.989  1.00  0.00     0.000 C 
HETATM   24  C   UNL     1      43.326 -15.066   1.990  1.00  0.00     0.002 C 
HETATM   25  C   UNL     1      43.063 -14.473   3.367  1.00  0.00     0.025 C 
ENDBRANCH  17  20
ENDBRANCH  15  16
ENDBRANCH   6  15
BRANCH   5  26
HETATM   26  C   UNL     1      40.057 -12.043   0.389  1.00  0.00    -0.030 A 
HETATM   27  C   UNL     1      40.762 -13.241   0.193  1.00  0.00     0.012 A 
HETATM   28  C   UNL     1      40.316 -14.197  -0.725  1.00  0.00     0.037 A 
HETATM   29  C   UNL     1      39.154 -13.986  -1.466  1.00  0.00     0.068 A 
HETATM   30  C   UNL     1      38.438 -12.806  -1.280  1.00  0.00     0.037 A 
HETATM   31  C   UNL     1      38.882 -11.848  -0.359  1.00  0.00     0.012 A 
BRANCH  29  32
HETATM   32  O   UNL     1      38.832 -14.999  -2.325  1.00  0.00    -0.356 OA
HETATM   33  C   UNL     1      38.267 -14.627  -3.575  1.00  0.00     0.210 C 
ENDBRANCH  29  32
ENDBRANCH   5  26
TORSDOF 5
ENDMDL
MODEL 10
REMARK VINA RESULT:      -7.2      2.912      6.250
REMARK  5 active torsions:
REMARK  status: ('A' for Active; 'I' for Inactive)
REMARK    1  A    between atoms: C_5  and  C_6 
REMARK    2  A    between atoms: C_9  and  O_10 
REMARK    3  A    between atoms: N_14  and  C_15 
REMARK    4  A    between atoms: C_15  and  C_16 
REMARK       I    between atoms: C_16  and  N_17 
REMARK    5  A    between atoms: N_17  and  C_18 
ROOT
HETATM    1  C   UNL     1      43.919 -15.168   6.462  1.00  0.00     0.156 C 
HETATM    2  N   UNL     1      43.053 -15.391   5.329  1.00  0.00    -0.346 N 
HETATM    3  C   UNL     1      42.009 -14.614   4.964  1.00  0.00     0.113 A 
HETATM    4  C   UNL     1      41.392 -15.150   3.866  1.00  0.00     0.014 A 
HETATM    5  C   UNL     1      40.223 -14.322   3.476  1.00  0.00     0.158 A 
HETATM    6  N   UNL     1      40.369 -13.210   4.449  1.00  0.00    -0.325 N 
HETATM    7  C   UNL     1      41.384 -13.408   5.389  1.00  0.00     0.272 A 
HETATM    8  O   UNL     1      41.673 -12.700   6.336  1.00  0.00    -0.266 OA
HETATM    9  C   UNL     1      42.101 -16.305   3.490  1.00  0.00     0.002 A 
HETATM   10  C   UNL     1      43.157 -16.436   4.417  1.00  0.00     0.045 A 
HETATM   11  C   UNL     1      41.982 -17.245   2.450  1.00  0.00     0.014 A 
HETATM   12  C   UNL     1      42.915 -18.283   2.353  1.00  0.00     0.001 A 
HETATM   13  C   UNL     1      43.950 -18.396   3.276  1.00  0.00     0.002 A 
HETATM   14  C   UNL     1      44.090 -17.480   4.323  1.00  0.00     0.030 A 
ENDROOT
BRANCH   6  15
HETATM   15  C   UNL     1      39.363 -12.168   4.609  1.00  0.00     0.229 C 
BRANCH  15  16
HETATM   16  C   UNL     1      39.933 -10.751   4.793  1.00  0.00     0.235 C 
HETATM   17  N   UNL     1      39.870 -10.276   6.080  1.00  0.00    -0.355 N 
HETATM   18  H   UNL     1      39.320 -10.848   6.707  1.00  0.00     0.162 HD
HETATM   19  O   UNL     1      40.458 -10.161   3.856  1.00  0.00    -0.272 OA
BRANCH  17  20
HETATM   20  C   UNL     1      40.251  -8.965   6.588  1.00  0.00     0.084 C 
HETATM   21  C   UNL     1      39.251  -8.316   7.556  1.00  0.00     0.025 C 
HETATM   22  C   UNL     1      39.519  -8.545   9.045  1.00  0.00     0.002 C 
HETATM   23  C   UNL     1      40.989  -8.400   9.413  1.00  0.00     0.000 C 
HETATM   24  C   UNL     1      41.875  -9.277   8.538  1.00  0.00     0.002 C 
HETATM   25  C   UNL     1      41.705  -8.927   7.067  1.00  0.00     0.025 C 
ENDBRANCH  17  20
ENDBRANCH  15  16
ENDBRANCH   6  15
BRANCH   5  26
HETATM   26  C   UNL     1      40.344 -13.892   2.032  1.00  0.00    -0.030 A 
HETATM   27  C   UNL     1      41.027 -12.698   1.749  1.00  0.00     0.012 A 
HETATM   28  C   UNL     1      41.213 -12.272   0.430  1.00  0.00     0.037 A 
HETATM   29  C   UNL     1      40.729 -13.025  -0.638  1.00  0.00     0.068 A 
HETATM   30  C   UNL     1      40.055 -14.216  -0.376  1.00  0.00     0.037 A 
HETATM   31  C   UNL     1      39.870 -14.646   0.944  1.00  0.00     0.012 A 
BRANCH  29  32
HETATM   32  O   UNL     1      40.981 -12.495  -1.872  1.00  0.00    -0.356 OA
HETATM   33  C   UNL     1      40.482 -13.212  -2.994  1.00  0.00     0.210 C 
ENDBRANCH  29  32
ENDBRANCH   5  26
TORSDOF 5
ENDMDL
