MODEL 1
REMARK VINA RESULT:      -9.2      0.000      0.000
REMARK  5 active torsions:
REMARK  status: ('A' for Active; 'I' for Inactive)
REMARK    1  A    between atoms: C_5  and  C_6 
REMARK    2  A    between atoms: C_11  and  C_12 
REMARK       I    between atoms: C_12  and  N_13 
REMARK    3  A    between atoms: N_13  and  C_14 
REMARK    4  A    between atoms: C_16  and  O_17 
REMARK    5  A    between atoms: C_23  and  C_24 
ROOT
HETATM    1  C   UNL     1      42.276 -15.775   3.132  1.00  0.00     0.118 C 
HETATM    2  N   UNL     1      43.161 -14.649   3.451  1.00  0.00    -0.366 N 
HETATM    3  C   UNL     1      42.731 -13.570   4.136  1.00  0.00     0.123 A 
HETATM    4  N   UNL     1      41.398 -13.308   4.270  1.00  0.00    -0.240 N 
HETATM    5  N   UNL     1      41.119 -12.293   5.108  1.00  0.00    -0.165 NA
HETATM    6  C   UNL     1      42.346 -11.825   5.444  1.00  0.00     0.148 A 
HETATM    7  C   UNL     1      43.379 -12.578   4.819  1.00  0.00     0.089 A 
HETATM    8  C   UNL     1      40.372 -14.167   3.716  1.00  0.00     0.221 C 
HETATM    9  C   UNL     1      40.874 -15.616   3.761  1.00  0.00     0.066 C 
HETATM   10  H   UNL     1      44.157 -14.854   3.369  1.00  0.00     0.161 HD
ENDROOT
BRANCH   6  11
HETATM   11  C   UNL     1      42.521 -10.708   6.392  1.00  0.00     0.276 C 
HETATM   12  N   UNL     1      43.060 -11.135   7.588  1.00  0.00    -0.322 N 
HETATM   13  H   UNL     1      43.207 -12.142   7.627  1.00  0.00     0.169 HD
HETATM   14  O   UNL     1      42.229  -9.556   6.087  1.00  0.00    -0.266 OA
BRANCH  12  15
HETATM   15  C   UNL     1      43.454 -10.366   8.696  1.00  0.00     0.037 A 
HETATM   16  C   UNL     1      42.581  -9.563   9.433  1.00  0.00     0.066 A 
HETATM   17  C   UNL     1      43.065  -8.818  10.507  1.00  0.00     0.067 A 
HETATM   18  C   UNL     1      44.407  -8.859  10.863  1.00  0.00     0.036 A 
HETATM   19  C   UNL     1      45.283  -9.658  10.133  1.00  0.00     0.005 A 
HETATM   20  C   UNL     1      44.808 -10.408   9.054  1.00  0.00     0.029 A 
BRANCH  17  21
HETATM   21  O   UNL     1      42.239  -8.020  11.244  1.00  0.00    -0.361 OA
HETATM   22  H   UNL     1      41.618  -8.589  11.730  1.00  0.00     0.217 HD
ENDBRANCH  17  21
ENDBRANCH  12  15
ENDBRANCH   6  11
BRANCH   8  23
HETATM   23  C   UNL     1      40.005 -13.714   2.322  1.00  0.00     0.409 C 
HETATM   24  F   UNL     1      40.963 -12.938   1.767  1.00  0.00    -0.169 F 
HETATM   25  F   UNL     1      39.747 -14.725   1.469  1.00  0.00    -0.169 F 
HETATM   26  F   UNL     1      38.878 -12.955   2.372  1.00  0.00    -0.169 F 
ENDBRANCH   8  23
BRANCH   1  27
HETATM   27  C   UNL     1      42.915 -17.069   3.609  1.00  0.00    -0.035 A 
HETATM   28  C   UNL     1      43.198 -17.278   4.970  1.00  0.00     0.010 A 
HETATM   29  C   UNL     1      43.762 -18.477   5.411  1.00  0.00     0.007 A 
HETATM   30  C   UNL     1      44.062 -19.493   4.499  1.00  0.00    -0.062 A 
HETATM   31  C   UNL     1      44.632 -20.795   4.977  1.00  0.00     0.048 C 
HETATM   32  C   UNL     1      43.767 -19.300   3.145  1.00  0.00     0.007 A 
HETATM   33  C   UNL     1      43.203 -18.099   2.703  1.00  0.00     0.010 A 
ENDBRANCH   1  27
TORSDOF 5
ENDMDL
MODEL 2
REMARK VINA RESULT:      -9.0      1.604      2.042
REMARK  5 active torsions:
REMARK  status: ('A' for Active; 'I' for Inactive)
REMARK    1  A    between atoms: C_5  and  C_6 
REMARK    2  A    between atoms: C_11  and  C_12 
REMARK       I    between atoms: C_12  and  N_13 
REMARK    3  A    between atoms: N_13  and  C_14 
REMARK    4  A    between atoms: C_16  and  O_17 
REMARK    5  A    between atoms: C_23  and  C_24 
ROOT
HETATM    1  C   UNL     1      42.373 -16.260   2.175  1.00  0.00     0.118 C 
HETATM    2  N   UNL     1      43.195 -15.068   2.408  1.00  0.00    -0.366 N 
HETATM    3  C   UNL     1      42.670 -13.912   2.865  1.00  0.00     0.123 A 
HETATM    4  N   UNL     1      41.326 -13.681   2.810  1.00  0.00    -0.240 N 
HETATM    5  N   UNL     1      40.934 -12.561   3.443  1.00  0.00    -0.165 NA
HETATM    6  C   UNL     1      42.106 -12.002   3.833  1.00  0.00     0.148 A 
HETATM    7  C   UNL     1      43.218 -12.805   3.451  1.00  0.00     0.089 A 
HETATM    8  C   UNL     1      40.385 -14.651   2.289  1.00  0.00     0.221 C 
HETATM    9  C   UNL     1      40.906 -16.057   2.614  1.00  0.00     0.066 C 
HETATM   10  H   UNL     1      44.198 -15.246   2.468  1.00  0.00     0.161 HD
ENDROOT
BRANCH   6  11
HETATM   11  C   UNL     1      42.153 -10.747   4.608  1.00  0.00     0.276 C 
HETATM   12  N   UNL     1      42.492 -10.975   5.926  1.00  0.00    -0.322 N 
HETATM   13  H   UNL     1      42.613 -11.962   6.146  1.00  0.00     0.169 HD
HETATM   14  O   UNL     1      41.931  -9.661   4.083  1.00  0.00    -0.266 OA
BRANCH  12  15
HETATM   15  C   UNL     1      42.723 -10.036   6.946  1.00  0.00     0.037 A 
HETATM   16  C   UNL     1      43.977  -9.488   7.226  1.00  0.00     0.066 A 
HETATM   17  C   UNL     1      44.116  -8.577   8.271  1.00  0.00     0.067 A 
HETATM   18  C   UNL     1      43.026  -8.198   9.044  1.00  0.00     0.036 A 
HETATM   19  C   UNL     1      41.773  -8.739   8.770  1.00  0.00     0.005 A 
HETATM   20  C   UNL     1      41.623  -9.655   7.724  1.00  0.00     0.029 A 
BRANCH  17  21
HETATM   21  O   UNL     1      45.328  -8.027   8.575  1.00  0.00    -0.361 OA
HETATM   22  H   UNL     1      45.500  -8.171   9.522  1.00  0.00     0.217 HD
ENDBRANCH  17  21
ENDBRANCH  12  15
ENDBRANCH   6  11
BRANCH   8  23
HETATM   23  C   UNL     1      40.170 -14.431   0.810  1.00  0.00     0.409 C 
HETATM   24  F   UNL     1      39.825 -15.568   0.167  1.00  0.00    -0.169 F 
HETATM   25  F   UNL     1      39.239 -13.498   0.526  1.00  0.00    -0.169 F 
HETATM   26  F   UNL     1      41.329 -14.004   0.240  1.00  0.00    -0.169 F 
ENDBRANCH   8  23
BRANCH   1  27
HETATM   27  C   UNL     1      42.979 -17.442   2.915  1.00  0.00    -0.035 A 
HETATM   28  C   UNL     1      43.412 -17.317   4.247  1.00  0.00     0.010 A 
HETATM   29  C   UNL     1      43.945 -18.409   4.934  1.00  0.00     0.007 A 
HETATM   30  C   UNL     1      44.062 -19.650   4.304  1.00  0.00    -0.062 A 
HETATM   31  C   UNL     1      44.599 -20.833   5.054  1.00  0.00     0.048 C 
HETATM   32  C   UNL     1      43.616 -19.788   2.985  1.00  0.00     0.007 A 
HETATM   33  C   UNL     1      43.083 -18.694   2.295  1.00  0.00     0.010 A 
ENDBRANCH   1  27
TORSDOF 5
ENDMDL
MODEL 3
REMARK VINA RESULT:      -9.0      5.385      8.930
REMARK  5 active torsions:
REMARK  status: ('A' for Active; 'I' for Inactive)
REMARK    1  A    between atoms: C_5  and  C_6 
REMARK    2  A    between atoms: C_11  and  C_12 
REMARK       I    between atoms: C_12  and  N_13 
REMARK    3  A    between atoms: N_13  and  C_14 
REMARK    4  A    between atoms: C_16  and  O_17 
REMARK    5  A    between atoms: C_23  and  C_24 
ROOT
HETATM    1  C   UNL     1      39.886 -11.397  -2.178  1.00  0.00     0.118 C 
HETATM    2  N   UNL     1      39.643 -11.571  -0.742  1.00  0.00    -0.366 N 
HETATM    3  C   UNL     1      39.943 -12.717  -0.097  1.00  0.00     0.123 A 
HETATM    4  N   UNL     1      40.162 -13.874  -0.786  1.00  0.00    -0.240 N 
HETATM    5  N   UNL     1      40.604 -14.892  -0.026  1.00  0.00    -0.165 NA
HETATM    6  C   UNL     1      40.567 -14.379   1.228  1.00  0.00     0.148 A 
HETATM    7  C   UNL     1      40.118 -13.028   1.224  1.00  0.00     0.089 A 
HETATM    8  C   UNL     1      40.112 -13.946  -2.232  1.00  0.00     0.221 C 
HETATM    9  C   UNL     1      40.608 -12.612  -2.803  1.00  0.00     0.066 C 
HETATM   10  H   UNL     1      39.499 -10.703  -0.225  1.00  0.00     0.161 HD
ENDROOT
BRANCH   6  11
HETATM   11  C   UNL     1      41.008 -15.155   2.403  1.00  0.00     0.276 C 
HETATM   12  N   UNL     1      42.105 -15.940   2.111  1.00  0.00    -0.322 N 
HETATM   13  H   UNL     1      42.395 -15.881   1.137  1.00  0.00     0.169 HD
HETATM   14  O   UNL     1      40.444 -15.053   3.487  1.00  0.00    -0.266 OA
BRANCH  12  15
HETATM   15  C   UNL     1      42.861 -16.745   2.980  1.00  0.00     0.037 A 
HETATM   16  C   UNL     1      43.374 -16.300   4.201  1.00  0.00     0.066 A 
HETATM   17  C   UNL     1      44.131 -17.164   4.990  1.00  0.00     0.067 A 
HETATM   18  C   UNL     1      44.387 -18.469   4.585  1.00  0.00     0.036 A 
HETATM   19  C   UNL     1      43.877 -18.919   3.370  1.00  0.00     0.005 A 
HETATM   20  C   UNL     1      43.117 -18.060   2.572  1.00  0.00     0.029 A 
BRANCH  17  21
HETATM   21  O   UNL     1      44.652 -16.759   6.184  1.00  0.00    -0.361 OA
HETATM   22  H   UNL     1      45.475 -17.254   6.343  1.00  0.00     0.217 HD
ENDBRANCH  17  21
ENDBRANCH  12  15
ENDBRANCH   6  11
BRANCH   8  23
HETATM   23  C   UNL     1      38.717 -14.301  -2.691  1.00  0.00     0.409 C 
HETATM   24  F   UNL     1      37.765 -13.774  -1.890  1.00  0.00    -0.169 F 
HETATM   25  F   UNL     1      38.446 -13.924  -3.957  1.00  0.00    -0.169 F 
HETATM   26  F   UNL     1      38.552 -15.650  -2.647  1.00  0.00    -0.169 F 
ENDBRANCH   8  23
BRANCH   1  27
HETATM   27  C   UNL     1      40.703 -10.135  -2.401  1.00  0.00    -0.035 A 
HETATM   28  C   UNL     1      41.626  -9.691  -1.437  1.00  0.00     0.010 A 
HETATM   29  C   UNL     1      42.394  -8.545  -1.653  1.00  0.00     0.007 A 
HETATM   30  C   UNL     1      42.255  -7.814  -2.836  1.00  0.00    -0.062 A 
HETATM   31  C   UNL     1      43.108  -6.606  -3.085  1.00  0.00     0.048 C 
HETATM   32  C   UNL     1      41.353  -8.261  -3.808  1.00  0.00     0.007 A 
HETATM   33  C   UNL     1      40.581  -9.407  -3.592  1.00  0.00     0.010 A 
ENDBRANCH   1  27
TORSDOF 5
ENDMDL
MODEL 4
REMARK VINA RESULT:      -8.9      1.449      1.865
REMARK  5 active torsions:
REMARK  status: ('A' for Active; 'I' for Inactive)
REMARK    1  A    between atoms: C_5  and  C_6 
REMARK    2  A    between atoms: C_11  and  C_12 
REMARK       I    between atoms: C_12  and  N_13 
REMARK    3  A    between atoms: N_13  and  C_14 
REMARK    4  A    between atoms: C_16  and  O_17 
REMARK    5  A    between atoms: C_23  and  C_24 
ROOT
HETATM    1  C   UNL     1      41.921 -14.509   3.388  1.00  0.00     0.118 C 
HETATM    2  N   UNL     1      42.980 -13.539   3.687  1.00  0.00    -0.366 N 
HETATM    3  C   UNL     1      42.875 -12.650   4.696  1.00  0.00     0.123 A 
HETATM    4  N   UNL     1      41.665 -12.374   5.265  1.00  0.00    -0.240 N 
HETATM    5  N   UNL     1      41.737 -11.592   6.358  1.00  0.00    -0.165 NA
HETATM    6  C   UNL     1      43.054 -11.276   6.423  1.00  0.00     0.148 A 
HETATM    7  C   UNL     1      43.790 -11.891   5.371  1.00  0.00     0.089 A 
HETATM    8  C   UNL     1      40.438 -13.020   4.849  1.00  0.00     0.221 C 
HETATM    9  C   UNL     1      40.767 -14.454   4.413  1.00  0.00     0.066 C 
HETATM   10  H   UNL     1      43.888 -13.758   3.276  1.00  0.00     0.161 HD
ENDROOT
BRANCH   6  11
HETATM   11  C   UNL     1      43.603 -10.443   7.510  1.00  0.00     0.276 C 
HETATM   12  N   UNL     1      42.631 -10.095   8.426  1.00  0.00    -0.322 N 
HETATM   13  H   UNL     1      41.704 -10.436   8.178  1.00  0.00     0.169 HD
HETATM   14  O   UNL     1      44.793 -10.149   7.554  1.00  0.00    -0.266 OA
BRANCH  12  15
HETATM   15  C   UNL     1      42.776  -9.392   9.634  1.00  0.00     0.037 A 
HETATM   16  C   UNL     1      42.545  -8.021   9.766  1.00  0.00     0.066 A 
HETATM   17  C   UNL     1      42.734  -7.403  11.001  1.00  0.00     0.067 A 
HETATM   18  C   UNL     1      43.148  -8.127  12.111  1.00  0.00     0.036 A 
HETATM   19  C   UNL     1      43.379  -9.495  11.987  1.00  0.00     0.005 A 
HETATM   20  C   UNL     1      43.193 -10.124  10.753  1.00  0.00     0.029 A 
BRANCH  17  21
HETATM   21  O   UNL     1      42.523  -6.064  11.162  1.00  0.00    -0.361 OA
HETATM   22  H   UNL     1      43.216  -5.585  10.675  1.00  0.00     0.217 HD
ENDBRANCH  17  21
ENDBRANCH  12  15
ENDBRANCH   6  11
BRANCH   8  23
HETATM   23  C   UNL     1      39.763 -12.215   3.764  1.00  0.00     0.409 C 
HETATM   24  F   UNL     1      38.915 -11.289   4.264  1.00  0.00    -0.169 F 
HETATM   25  F   UNL     1      40.621 -11.584   2.938  1.00  0.00    -0.169 F 
HETATM   26  F   UNL     1      39.014 -13.040   2.984  1.00  0.00    -0.169 F 
ENDBRANCH   8  23
BRANCH   1  27
HETATM   27  C   UNL     1      42.516 -15.908   3.349  1.00  0.00    -0.035 A 
HETATM   28  C   UNL     1      43.272 -16.403   4.425  1.00  0.00     0.010 A 
HETATM   29  C   UNL     1      43.797 -17.696   4.400  1.00  0.00     0.007 A 
HETATM   30  C   UNL     1      43.582 -18.523   3.295  1.00  0.00    -0.062 A 
HETATM   31  C   UNL     1      44.112 -19.927   3.284  1.00  0.00     0.048 C 
HETATM   32  C   UNL     1      42.814 -18.045   2.228  1.00  0.00     0.007 A 
HETATM   33  C   UNL     1      42.289 -16.749   2.251  1.00  0.00     0.010 A 
ENDBRANCH   1  27
TORSDOF 5
ENDMDL
MODEL 5
REMARK VINA RESULT:      -8.9      3.727      9.211
REMARK  5 active torsions:
REMARK  status: ('A' for Active; 'I' for Inactive)
REMARK    1  A    between atoms: C_5  and  C_6 
REMARK    2  A    between atoms: C_11  and  C_12 
REMARK       I    between atoms: C_12  and  N_13 
REMARK    3  A    between atoms: N_13  and  C_14 
REMARK    4  A    between atoms: C_16  and  O_17 
REMARK    5  A    between atoms: C_23  and  C_24 
ROOT
HETATM    1  C   UNL     1      42.998 -10.118   7.714  1.00  0.00     0.118 C 
HETATM    2  N   UNL     1      42.229 -10.871   6.718  1.00  0.00    -0.366 N 
HETATM    3  C   UNL     1      42.550 -12.133   6.366  1.00  0.00     0.123 A 
HETATM    4  N   UNL     1      43.782 -12.648   6.650  1.00  0.00    -0.240 N 
HETATM    5  N   UNL     1      43.904 -13.961   6.382  1.00  0.00    -0.165 NA
HETATM    6  C   UNL     1      42.717 -14.269   5.805  1.00  0.00     0.148 A 
HETATM    7  C   UNL     1      41.859 -13.135   5.743  1.00  0.00     0.089 A 
HETATM    8  C   UNL     1      44.802 -11.899   7.354  1.00  0.00     0.221 C 
HETATM    9  C   UNL     1      44.112 -10.969   8.362  1.00  0.00     0.066 C 
HETATM   10  H   UNL     1      41.300 -10.496   6.523  1.00  0.00     0.161 HD
ENDROOT
BRANCH   6  11
HETATM   11  C   UNL     1      42.392 -15.642   5.373  1.00  0.00     0.276 C 
HETATM   12  N   UNL     1      43.441 -16.222   4.689  1.00  0.00    -0.322 N 
HETATM   13  H   UNL     1      44.236 -15.597   4.567  1.00  0.00     0.169 HD
HETATM   14  O   UNL     1      41.313 -16.160   5.641  1.00  0.00    -0.266 OA
BRANCH  12  15
HETATM   15  C   UNL     1      43.550 -17.535   4.201  1.00  0.00     0.037 A 
HETATM   16  C   UNL     1      44.054 -18.601   4.950  1.00  0.00     0.066 A 
HETATM   17  C   UNL     1      44.143 -19.869   4.376  1.00  0.00     0.067 A 
HETATM   18  C   UNL     1      43.736 -20.095   3.067  1.00  0.00     0.036 A 
HETATM   19  C   UNL     1      43.232 -19.037   2.316  1.00  0.00     0.005 A 
HETATM   20  C   UNL     1      43.139 -17.762   2.882  1.00  0.00     0.029 A 
BRANCH  17  21
HETATM   21  O   UNL     1      44.635 -20.930   5.078  1.00  0.00    -0.361 OA
HETATM   22  H   UNL     1      44.184 -20.963   5.940  1.00  0.00     0.217 HD
ENDBRANCH  17  21
ENDBRANCH  12  15
ENDBRANCH   6  11
BRANCH   8  23
HETATM   23  C   UNL     1      45.679 -11.156   6.374  1.00  0.00     0.409 C 
HETATM   24  F   UNL     1      46.902 -11.719   6.252  1.00  0.00    -0.169 F 
HETATM   25  F   UNL     1      45.149 -11.050   5.138  1.00  0.00    -0.169 F 
HETATM   26  F   UNL     1      45.882  -9.887   6.815  1.00  0.00    -0.169 F 
ENDBRANCH   8  23
BRANCH   1  27
HETATM   27  C   UNL     1      42.057  -9.591   8.785  1.00  0.00    -0.035 A 
HETATM   28  C   UNL     1      40.741  -9.209   8.468  1.00  0.00     0.010 A 
HETATM   29  C   UNL     1      39.869  -8.749   9.456  1.00  0.00     0.007 A 
HETATM   30  C   UNL     1      40.293  -8.655  10.784  1.00  0.00    -0.062 A 
HETATM   31  C   UNL     1      39.345  -8.197  11.852  1.00  0.00     0.048 C 
HETATM   32  C   UNL     1      41.595  -9.051  11.111  1.00  0.00     0.007 A 
HETATM   33  C   UNL     1      42.470  -9.511  10.122  1.00  0.00     0.010 A 
ENDBRANCH   1  27
TORSDOF 5
ENDMDL
MODEL 6
REMARK VINA RESULT:      -8.7      2.381      2.969
REMARK  5 active torsions:
REMARK  status: ('A' for Active; 'I' for Inactive)
REMARK    1  A    between atoms: C_5  and  C_6 
REMARK    2  A    between atoms: C_11  and  C_12 
REMARK       I    between atoms: C_12  and  N_13 
REMARK    3  A    between atoms: N_13  and  C_14 
REMARK    4  A    between atoms: C_16  and  O_17 
REMARK    5  A    between atoms: C_23  and  C_24 
ROOT
HETATM    1  C   UNL     1      42.467 -15.848   2.625  1.00  0.00     0.118 C 
HETATM    2  N   UNL     1      42.731 -14.710   3.511  1.00  0.00    -0.366 N 
HETATM    3  C   UNL     1      41.752 -13.880   3.926  1.00  0.00     0.123 A 
HETATM    4  N   UNL     1      40.547 -13.842   3.286  1.00  0.00    -0.240 N 
HETATM    5  N   UNL     1      39.620 -13.088   3.903  1.00  0.00    -0.165 NA
HETATM    6  C   UNL     1      40.307 -12.540   4.936  1.00  0.00     0.148 A 
HETATM    7  C   UNL     1      41.659 -12.985   4.955  1.00  0.00     0.089 A 
HETATM    8  C   UNL     1      40.234 -14.690   2.154  1.00  0.00     0.221 C 
HETATM    9  C   UNL     1      40.961 -16.029   2.333  1.00  0.00     0.066 C 
HETATM   10  H   UNL     1      43.624 -14.750   4.004  1.00  0.00     0.161 HD
ENDROOT
BRANCH   6  11
HETATM   11  C   UNL     1      39.660 -11.649   5.918  1.00  0.00     0.276 C 
HETATM   12  N   UNL     1      40.364 -10.473   6.080  1.00  0.00    -0.322 N 
HETATM   13  H   UNL     1      41.221 -10.438   5.531  1.00  0.00     0.169 HD
HETATM   14  O   UNL     1      38.610 -11.959   6.471  1.00  0.00    -0.266 OA
BRANCH  12  15
HETATM   15  C   UNL     1      40.025  -9.348   6.851  1.00  0.00     0.037 A 
HETATM   16  C   UNL     1      40.471  -9.141   8.159  1.00  0.00     0.066 A 
HETATM   17  C   UNL     1      40.068  -8.003   8.855  1.00  0.00     0.067 A 
HETATM   18  C   UNL     1      39.228  -7.064   8.271  1.00  0.00     0.036 A 
HETATM   19  C   UNL     1      38.781  -7.263   6.968  1.00  0.00     0.005 A 
HETATM   20  C   UNL     1      39.179  -8.401   6.261  1.00  0.00     0.029 A 
BRANCH  17  21
HETATM   21  O   UNL     1      40.480  -7.774  10.136  1.00  0.00    -0.361 OA
HETATM   22  H   UNL     1      41.292  -8.288  10.292  1.00  0.00     0.217 HD
ENDBRANCH  17  21
ENDBRANCH  12  15
ENDBRANCH   6  11
BRANCH   8  23
HETATM   23  C   UNL     1      40.593 -13.993   0.862  1.00  0.00     0.409 C 
HETATM   24  F   UNL     1      39.544 -13.326   0.332  1.00  0.00    -0.169 F 
HETATM   25  F   UNL     1      41.619 -13.126   0.976  1.00  0.00    -0.169 F 
HETATM   26  F   UNL     1      40.969 -14.916  -0.063  1.00  0.00    -0.169 F 
ENDBRANCH   8  23
BRANCH   1  27
HETATM   27  C   UNL     1      43.032 -17.114   3.249  1.00  0.00    -0.035 A 
HETATM   28  C   UNL     1      43.325 -17.175   4.623  1.00  0.00     0.010 A 
HETATM   29  C   UNL     1      43.820 -18.346   5.200  1.00  0.00     0.007 A 
HETATM   30  C   UNL     1      44.038 -19.482   4.416  1.00  0.00    -0.062 A 
HETATM   31  C   UNL     1      44.533 -20.752   5.043  1.00  0.00     0.048 C 
HETATM   32  C   UNL     1      43.731 -19.435   3.052  1.00  0.00     0.007 A 
HETATM   33  C   UNL     1      43.237 -18.262   2.472  1.00  0.00     0.010 A 
ENDBRANCH   1  27
TORSDOF 5
ENDMDL
MODEL 7
REMARK VINA RESULT:      -8.6      2.598      4.818
REMARK  5 active torsions:
REMARK  status: ('A' for Active; 'I' for Inactive)
REMARK    1  A    between atoms: C_5  and  C_6 
REMARK    2  A    between atoms: C_11  and  C_12 
REMARK       I    between atoms: C_12  and  N_13 
REMARK    3  A    between atoms: N_13  and  C_14 
REMARK    4  A    between atoms: C_16  and  O_17 
REMARK    5  A    between atoms: C_23  and  C_24 
ROOT
HETATM    1  C   UNL     1      41.094 -14.907   1.831  1.00  0.00     0.118 C 
HETATM    2  N   UNL     1      40.458 -14.218   2.958  1.00  0.00    -0.366 N 
HETATM    3  C   UNL     1      41.174 -13.661   3.956  1.00  0.00     0.123 A 
HETATM    4  N   UNL     1      42.482 -13.997   4.153  1.00  0.00    -0.240 N 
HETATM    5  N   UNL     1      43.108 -13.249   5.080  1.00  0.00    -0.165 NA
HETATM    6  C   UNL     1      42.115 -12.465   5.565  1.00  0.00     0.148 A 
HETATM    7  C   UNL     1      40.879 -12.726   4.909  1.00  0.00     0.089 A 
HETATM    8  C   UNL     1      43.185 -14.939   3.307  1.00  0.00     0.221 C 
HETATM    9  C   UNL     1      42.636 -14.815   1.880  1.00  0.00     0.066 C 
HETATM   10  H   UNL     1      39.486 -13.950   2.800  1.00  0.00     0.161 HD
ENDROOT
BRANCH   6  11
HETATM   11  C   UNL     1      42.362 -11.444   6.601  1.00  0.00     0.276 C 
HETATM   12  N   UNL     1      43.534 -11.689   7.288  1.00  0.00    -0.322 N 
HETATM   13  H   UNL     1      44.002 -12.543   6.992  1.00  0.00     0.169 HD
HETATM   14  O   UNL     1      41.596 -10.501   6.767  1.00  0.00    -0.266 OA
BRANCH  12  15
HETATM   15  C   UNL     1      44.151 -10.903   8.276  1.00  0.00     0.037 A 
HETATM   16  C   UNL     1      43.613 -10.693   9.548  1.00  0.00     0.066 A 
HETATM   17  C   UNL     1      44.287  -9.881  10.459  1.00  0.00     0.067 A 
HETATM   18  C   UNL     1      45.491  -9.274  10.126  1.00  0.00     0.036 A 
HETATM   19  C   UNL     1      46.033  -9.480   8.860  1.00  0.00     0.005 A 
HETATM   20  C   UNL     1      45.365 -10.291   7.940  1.00  0.00     0.029 A 
BRANCH  17  21
HETATM   21  O   UNL     1      43.786  -9.651  11.707  1.00  0.00    -0.361 OA
HETATM   22  H   UNL     1      42.959  -9.147  11.616  1.00  0.00     0.217 HD
ENDBRANCH  17  21
ENDBRANCH  12  15
ENDBRANCH   6  11
BRANCH   8  23
HETATM   23  C   UNL     1      43.063 -16.338   3.865  1.00  0.00     0.409 C 
HETATM   24  F   UNL     1      44.077 -16.644   4.705  1.00  0.00    -0.169 F 
HETATM   25  F   UNL     1      41.905 -16.568   4.515  1.00  0.00    -0.169 F 
HETATM   26  F   UNL     1      43.120 -17.240   2.849  1.00  0.00    -0.169 F 
ENDBRANCH   8  23
BRANCH   1  27
HETATM   27  C   UNL     1      40.580 -14.322   0.526  1.00  0.00    -0.035 A 
HETATM   28  C   UNL     1      39.744 -15.069  -0.323  1.00  0.00     0.010 A 
HETATM   29  C   UNL     1      39.251 -14.522  -1.509  1.00  0.00     0.007 A 
HETATM   30  C   UNL     1      39.587 -13.217  -1.877  1.00  0.00    -0.062 A 
HETATM   31  C   UNL     1      39.026 -12.615  -3.132  1.00  0.00     0.048 C 
HETATM   32  C   UNL     1      40.402 -12.460  -1.029  1.00  0.00     0.007 A 
HETATM   33  C   UNL     1      40.898 -13.007   0.159  1.00  0.00     0.010 A 
ENDBRANCH   1  27
TORSDOF 5
ENDMDL
MODEL 8
REMARK VINA RESULT:      -8.5      5.065      8.343
REMARK  5 active torsions:
REMARK  status: ('A' for Active; 'I' for Inactive)
REMARK    1  A    between atoms: C_5  and  C_6 
REMARK    2  A    between atoms: C_11  and  C_12 
REMARK       I    between atoms: C_12  and  N_13 
REMARK    3  A    between atoms: N_13  and  C_14 
REMARK    4  A    between atoms: C_16  and  O_17 
REMARK    5  A    between atoms: C_23  and  C_24 
ROOT
HETATM    1  C   UNL     1      42.489 -15.693   3.517  1.00  0.00     0.118 C 
HETATM    2  N   UNL     1      41.133 -15.647   2.963  1.00  0.00    -0.366 N 
HETATM    3  C   UNL     1      40.806 -14.845   1.928  1.00  0.00     0.123 A 
HETATM    4  N   UNL     1      41.608 -13.801   1.570  1.00  0.00    -0.240 N 
HETATM    5  N   UNL     1      41.239 -13.190   0.430  1.00  0.00    -0.165 NA
HETATM    6  C   UNL     1      40.083 -13.819   0.103  1.00  0.00     0.148 A 
HETATM    7  C   UNL     1      39.762 -14.837   1.046  1.00  0.00     0.089 A 
HETATM    8  C   UNL     1      42.853 -13.500   2.247  1.00  0.00     0.221 C 
HETATM    9  C   UNL     1      43.481 -14.819   2.717  1.00  0.00     0.066 C 
HETATM   10  H   UNL     1      40.541 -16.439   3.216  1.00  0.00     0.161 HD
ENDROOT
BRANCH   6  11
HETATM   11  C   UNL     1      39.332 -13.486  -1.122  1.00  0.00     0.276 C 
HETATM   12  N   UNL     1      38.257 -12.663  -0.852  1.00  0.00    -0.322 N 
HETATM   13  H   UNL     1      38.144 -12.461   0.139  1.00  0.00     0.169 HD
HETATM   14  O   UNL     1      39.684 -13.899  -2.222  1.00  0.00    -0.266 OA
BRANCH  12  15
HETATM   15  C   UNL     1      37.365 -12.063  -1.756  1.00  0.00     0.037 A 
HETATM   16  C   UNL     1      36.678 -12.765  -2.750  1.00  0.00     0.066 A 
HETATM   17  C   UNL     1      35.826 -12.081  -3.616  1.00  0.00     0.067 A 
HETATM   18  C   UNL     1      35.643 -10.709  -3.510  1.00  0.00     0.036 A 
HETATM   19  C   UNL     1      36.323 -10.003  -2.521  1.00  0.00     0.005 A 
HETATM   20  C   UNL     1      37.180 -10.679  -1.648  1.00  0.00     0.029 A 
BRANCH  17  21
HETATM   21  O   UNL     1      35.145 -12.736  -4.602  1.00  0.00    -0.361 OA
HETATM   22  H   UNL     1      34.231 -12.403  -4.614  1.00  0.00     0.217 HD
ENDBRANCH  17  21
ENDBRANCH  12  15
ENDBRANCH   6  11
BRANCH   8  23
HETATM   23  C   UNL     1      42.614 -12.526   3.376  1.00  0.00     0.409 C 
HETATM   24  F   UNL     1      42.925 -11.257   3.033  1.00  0.00    -0.169 F 
HETATM   25  F   UNL     1      41.349 -12.529   3.842  1.00  0.00    -0.169 F 
HETATM   26  F   UNL     1      43.413 -12.846   4.430  1.00  0.00    -0.169 F 
ENDBRANCH   8  23
BRANCH   1  27
HETATM   27  C   UNL     1      42.973 -17.133   3.547  1.00  0.00    -0.035 A 
HETATM   28  C   UNL     1      43.501 -17.695   4.724  1.00  0.00     0.010 A 
HETATM   29  C   UNL     1      43.922 -19.025   4.758  1.00  0.00     0.007 A 
HETATM   30  C   UNL     1      43.830 -19.825   3.616  1.00  0.00    -0.062 A 
HETATM   31  C   UNL     1      44.247 -21.265   3.663  1.00  0.00     0.048 C 
HETATM   32  C   UNL     1      43.289 -19.279   2.447  1.00  0.00     0.007 A 
HETATM   33  C   UNL     1      42.868 -17.946   2.410  1.00  0.00     0.010 A 
ENDBRANCH   1  27
TORSDOF 5
ENDMDL
MODEL 9
REMARK VINA RESULT:      -8.5      3.722      9.562
REMARK  5 active torsions:
REMARK  status: ('A' for Active; 'I' for Inactive)
REMARK    1  A    between atoms: C_5  and  C_6 
REMARK    2  A    between atoms: C_11  and  C_12 
REMARK       I    between atoms: C_12  and  N_13 
REMARK    3  A    between atoms: N_13  and  C_14 
REMARK    4  A    between atoms: C_16  and  O_17 
REMARK    5  A    between atoms: C_23  and  C_24 
ROOT
HETATM    1  C   UNL     1      44.036  -9.059  10.091  1.00  0.00     0.118 C 
HETATM    2  N   UNL     1      43.075  -9.088   8.983  1.00  0.00    -0.366 N 
HETATM    3  C   UNL     1      43.087 -10.060   8.048  1.00  0.00     0.123 A 
HETATM    4  N   UNL     1      44.181 -10.861   7.882  1.00  0.00    -0.240 N 
HETATM    5  N   UNL     1      43.990 -11.881   7.026  1.00  0.00    -0.165 NA
HETATM    6  C   UNL     1      42.741 -11.654   6.550  1.00  0.00     0.148 A 
HETATM    7  C   UNL     1      42.161 -10.496   7.141  1.00  0.00     0.089 A 
HETATM    8  C   UNL     1      45.371 -10.740   8.697  1.00  0.00     0.221 C 
HETATM    9  C   UNL     1      44.953 -10.302  10.107  1.00  0.00     0.066 C 
HETATM   10  H   UNL     1      42.250  -8.504   9.118  1.00  0.00     0.161 HD
ENDROOT
BRANCH   6  11
HETATM   11  C   UNL     1      42.095 -12.566   5.586  1.00  0.00     0.276 C 
HETATM   12  N   UNL     1      43.025 -13.228   4.811  1.00  0.00    -0.322 N 
HETATM   13  H   UNL     1      43.984 -12.949   5.006  1.00  0.00     0.169 HD
HETATM   14  O   UNL     1      40.877 -12.697   5.545  1.00  0.00    -0.266 OA
BRANCH  12  15
HETATM   15  C   UNL     1      42.810 -14.234   3.853  1.00  0.00     0.037 A 
HETATM   16  C   UNL     1      42.352 -13.985   2.557  1.00  0.00     0.066 A 
HETATM   17  C   UNL     1      42.149 -15.049   1.679  1.00  0.00     0.067 A 
HETATM   18  C   UNL     1      42.397 -16.359   2.068  1.00  0.00     0.036 A 
HETATM   19  C   UNL     1      42.855 -16.614   3.357  1.00  0.00     0.005 A 
HETATM   20  C   UNL     1      43.061 -15.554   4.246  1.00  0.00     0.029 A 
BRANCH  17  21
HETATM   21  O   UNL     1      41.696 -14.841   0.408  1.00  0.00    -0.361 OA
HETATM   22  H   UNL     1      42.032 -13.981   0.101  1.00  0.00     0.217 HD
ENDBRANCH  17  21
ENDBRANCH  12  15
ENDBRANCH   6  11
BRANCH   8  23
HETATM   23  C   UNL     1      46.354  -9.790   8.053  1.00  0.00     0.409 C 
HETATM   24  F   UNL     1      46.760  -8.820   8.902  1.00  0.00    -0.169 F 
HETATM   25  F   UNL     1      47.454 -10.394   7.559  1.00  0.00    -0.169 F 
HETATM   26  F   UNL     1      45.758  -9.160   7.006  1.00  0.00    -0.169 F 
ENDBRANCH   8  23
BRANCH   1  27
HETATM   27  C   UNL     1      43.283  -8.951  11.407  1.00  0.00    -0.035 A 
HETATM   28  C   UNL     1      43.635  -7.983  12.364  1.00  0.00     0.010 A 
HETATM   29  C   UNL     1      42.928  -7.867  13.563  1.00  0.00     0.007 A 
HETATM   30  C   UNL     1      41.855  -8.721  13.834  1.00  0.00    -0.062 A 
HETATM   31  C   UNL     1      41.071  -8.572  15.104  1.00  0.00     0.048 C 
HETATM   32  C   UNL     1      41.487  -9.674  12.879  1.00  0.00     0.007 A 
HETATM   33  C   UNL     1      42.196  -9.792  11.679  1.00  0.00     0.010 A 
ENDBRANCH   1  27
TORSDOF 5
ENDMDL
MODEL 10
REMARK VINA RESULT:      -8.4      3.727      9.698
REMARK  5 active torsions:
REMARK  status: ('A' for Active; 'I' for Inactive)
REMARK    1  A    between atoms: C_5  and  C_6 
REMARK    2  A    between atoms: C_11  and  C_12 
REMARK       I    between atoms: C_12  and  N_13 
REMARK    3  A    between atoms: N_13  and  C_14 
REMARK    4  A    between atoms: C_16  and  O_17 
REMARK    5  A    between atoms: C_23  and  C_24 
ROOT
HETATM    1  C   UNL     1      44.199  -8.844   9.152  1.00  0.00     0.118 C 
HETATM    2  N   UNL     1      43.258  -9.231   8.096  1.00  0.00    -0.366 N 
HETATM    3  C   UNL     1      43.275 -10.456   7.533  1.00  0.00     0.123 A 
HETATM    4  N   UNL     1      44.361 -11.273   7.661  1.00  0.00    -0.240 N 
HETATM    5  N   UNL     1      44.173 -12.517   7.184  1.00  0.00    -0.165 NA
HETATM    6  C   UNL     1      42.935 -12.452   6.635  1.00  0.00     0.148 A 
HETATM    7  C   UNL     1      42.360 -11.160   6.800  1.00  0.00     0.089 A 
HETATM    8  C   UNL     1      45.539 -10.897   8.416  1.00  0.00     0.221 C 
HETATM    9  C   UNL     1      45.101 -10.018   9.594  1.00  0.00     0.066 C 
HETATM   10  H   UNL     1      42.437  -8.630   8.015  1.00  0.00     0.161 HD
ENDROOT
BRANCH   6  11
HETATM   11  C   UNL     1      42.296 -13.626   6.011  1.00  0.00     0.276 C 
HETATM   12  N   UNL     1      43.045 -14.115   4.960  1.00  0.00    -0.322 N 
HETATM   13  H   UNL     1      43.880 -13.565   4.770  1.00  0.00     0.169 HD
HETATM   14  O   UNL     1      41.241 -14.082   6.437  1.00  0.00    -0.266 OA
BRANCH  12  15
HETATM   15  C   UNL     1      42.817 -15.263   4.181  1.00  0.00     0.037 A 
HETATM   16  C   UNL     1      43.520 -16.459   4.340  1.00  0.00     0.066 A 
HETATM   17  C   UNL     1      43.239 -17.542   3.508  1.00  0.00     0.067 A 
HETATM   18  C   UNL     1      42.267 -17.455   2.519  1.00  0.00     0.036 A 
HETATM   19  C   UNL     1      41.562 -16.266   2.356  1.00  0.00     0.005 A 
HETATM   20  C   UNL     1      41.837 -15.174   3.185  1.00  0.00     0.029 A 
BRANCH  17  21
HETATM   21  O   UNL     1      43.911 -18.723   3.633  1.00  0.00    -0.361 OA
HETATM   22  H   UNL     1      44.323 -18.749   4.514  1.00  0.00     0.217 HD
ENDBRANCH  17  21
ENDBRANCH  12  15
ENDBRANCH   6  11
BRANCH   8  23
HETATM   23  C   UNL     1      46.544 -10.218   7.516  1.00  0.00     0.409 C 
HETATM   24  F   UNL     1      46.177 -10.258   6.216  1.00  0.00    -0.169 F 
HETATM   25  F   UNL     1      46.783  -8.930   7.838  1.00  0.00    -0.169 F 
HETATM   26  F   UNL     1      47.738 -10.863   7.599  1.00  0.00    -0.169 F 
ENDBRANCH   8  23
BRANCH   1  27
HETATM   27  C   UNL     1      43.425  -8.305  10.344  1.00  0.00    -0.035 A 
HETATM   28  C   UNL     1      43.711  -8.742  11.650  1.00  0.00     0.010 A 
HETATM   29  C   UNL     1      43.017  -8.229  12.747  1.00  0.00     0.007 A 
HETATM   30  C   UNL     1      42.017  -7.270  12.564  1.00  0.00    -0.062 A 
HETATM   31  C   UNL     1      41.298  -6.689  13.746  1.00  0.00     0.048 C 
HETATM   32  C   UNL     1      41.740  -6.816  11.270  1.00  0.00     0.007 A 
HETATM   33  C   UNL     1      42.433  -7.331  10.170  1.00  0.00     0.010 A 
ENDBRANCH   1  27
TORSDOF 5
ENDMDL
