MODEL 1
REMARK VINA RESULT:      -8.7      0.000      0.000
REMARK  8 active torsions:
REMARK  status: ('A' for Active; 'I' for Inactive)
REMARK    1  A    between atoms: N_2  and  C_4 
REMARK    2  A    between atoms: N_2  and  C_10 
REMARK    3  A    between atoms: C_10  and  C_11 
REMARK    4  A    between atoms: C_12  and  N_13 
REMARK    5  A    between atoms: N_13  and  C_14 
REMARK    6  A    between atoms: C_14  and  C_15 
REMARK       I    between atoms: C_15  and  N_16 
REMARK    7  A    between atoms: N_16  and  N_17 
REMARK       I    between atoms: N_17  and  C_18 
REMARK    8  A    between atoms: C_18  and  C_19 
ROOT
HETATM    1  N   UNL     1      42.813 -11.723   7.146  1.00  0.00    -0.284 NA
HETATM    2  H   UNL     1      41.927 -11.204   7.226  1.00  0.00     0.128 HD
ENDROOT
BRANCH   1   3
HETATM    3  C   UNL     1      43.853 -10.870   7.576  1.00  0.00     0.016 A 
HETATM    4  C   UNL     1      43.507  -9.650   8.206  1.00  0.00    -0.011 A 
HETATM    5  C   UNL     1      44.515  -8.736   8.565  1.00  0.00     0.011 A 
HETATM    6  C   UNL     1      45.853  -9.017   8.307  1.00  0.00     0.001 A 
HETATM    7  C   UNL     1      46.197 -10.206   7.676  1.00  0.00     0.002 A 
HETATM    8  C   UNL     1      45.206 -11.117   7.302  1.00  0.00     0.024 A 
BRANCH   4   9
HETATM    9  C   UNL     1      42.068  -9.277   8.487  1.00  0.00     0.275 C 
BRANCH   9  10
HETATM   10  N   UNL     1      41.870  -8.157   9.500  1.00  0.00    -0.067 N 
HETATM   11  C   UNL     1      41.149  -6.991   8.863  1.00  0.00     0.270 C 
HETATM   12  H   UNL     1      42.843  -7.838   9.667  1.00  0.00     0.280 HD
BRANCH  10  13
HETATM   13  C   UNL     1      41.216  -8.606  10.811  1.00  0.00     0.188 C 
HETATM   14  C   UNL     1      42.012  -9.709  11.529  1.00  0.00     0.033 C 
HETATM   15  C   UNL     1      43.360  -9.225  12.057  1.00  0.00     0.002 C 
HETATM   16  C   UNL     1      43.202  -8.010  12.967  1.00  0.00     0.000 C 
HETATM   17  C   UNL     1      42.383  -6.899  12.313  1.00  0.00     0.002 C 
HETATM   18  C   UNL     1      41.048  -7.424  11.786  1.00  0.00     0.033 C 
ENDBRANCH  10  13
ENDBRANCH   9  10
ENDBRANCH   4   9
ENDBRANCH   1   3
BRANCH   1  19
HETATM   19  C   UNL     1      42.872 -12.211   5.741  1.00  0.00     0.197 C 
BRANCH  19  20
HETATM   20  C   UNL     1      43.257 -13.692   5.745  1.00  0.00     0.249 C 
HETATM   21  N   UNL     1      42.865 -14.394   4.629  1.00  0.00    -0.266 N 
HETATM   22  H   UNL     1      42.145 -14.069   3.979  1.00  0.00     0.190 HD
HETATM   23  O   UNL     1      43.902 -14.202   6.664  1.00  0.00    -0.270 OA
BRANCH  21  24
HETATM   24  N   UNL     1      43.106 -15.776   4.597  1.00  0.00    -0.263 N 
HETATM   25  C   UNL     1      43.396 -16.333   3.365  1.00  0.00     0.270 C 
HETATM   26  O   UNL     1      43.525 -15.640   2.359  1.00  0.00    -0.266 OA
HETATM   27  H   UNL     1      42.721 -16.325   5.365  1.00  0.00     0.190 HD
BRANCH  25  28
HETATM   28  C   UNL     1      43.508 -17.816   3.314  1.00  0.00     0.033 A 
HETATM   29  C   UNL     1      44.016 -18.484   4.433  1.00  0.00     0.017 A 
HETATM   30  C   UNL     1      44.135 -19.876   4.425  1.00  0.00     0.001 A 
HETATM   31  C   UNL     1      43.738 -20.603   3.305  1.00  0.00     0.000 A 
HETATM   32  C   UNL     1      43.215 -19.944   2.193  1.00  0.00     0.001 A 
HETATM   33  C   UNL     1      43.095 -18.553   2.194  1.00  0.00     0.017 A 
ENDBRANCH  25  28
ENDBRANCH  21  24
ENDBRANCH  19  20
ENDBRANCH   1  19
TORSDOF 8
ENDMDL
MODEL 2
REMARK VINA RESULT:      -8.6      2.702      9.812
REMARK  8 active torsions:
REMARK  status: ('A' for Active; 'I' for Inactive)
REMARK    1  A    between atoms: N_2  and  C_4 
REMARK    2  A    between atoms: N_2  and  C_10 
REMARK    3  A    between atoms: C_10  and  C_11 
REMARK    4  A    between atoms: C_12  and  N_13 
REMARK    5  A    between atoms: N_13  and  C_14 
REMARK    6  A    between atoms: C_14  and  C_15 
REMARK       I    between atoms: C_15  and  N_16 
REMARK    7  A    between atoms: N_16  and  N_17 
REMARK       I    between atoms: N_17  and  C_18 
REMARK    8  A    between atoms: C_18  and  C_19 
ROOT
HETATM    1  N   UNL     1      43.926 -12.495   6.833  1.00  0.00    -0.284 NA
HETATM    2  H   UNL     1      44.259 -13.470   6.862  1.00  0.00     0.128 HD
ENDROOT
BRANCH   1   3
HETATM    3  C   UNL     1      43.270 -12.300   5.597  1.00  0.00     0.016 A 
HETATM    4  C   UNL     1      42.177 -13.140   5.275  1.00  0.00    -0.011 A 
HETATM    5  C   UNL     1      41.560 -13.035   4.015  1.00  0.00     0.011 A 
HETATM    6  C   UNL     1      42.011 -12.110   3.078  1.00  0.00     0.001 A 
HETATM    7  C   UNL     1      43.093 -11.294   3.384  1.00  0.00     0.002 A 
HETATM    8  C   UNL     1      43.725 -11.397   4.625  1.00  0.00     0.024 A 
BRANCH   4   9
HETATM    9  C   UNL     1      41.659 -14.183   6.242  1.00  0.00     0.275 C 
BRANCH   9  10
HETATM   10  N   UNL     1      42.564 -15.391   6.447  1.00  0.00    -0.067 N 
HETATM   11  C   UNL     1      42.964 -15.509   7.899  1.00  0.00     0.270 C 
HETATM   12  H   UNL     1      43.421 -15.112   5.933  1.00  0.00     0.280 HD
BRANCH  10  13
HETATM   13  C   UNL     1      41.999 -16.699   5.885  1.00  0.00     0.188 C 
HETATM   14  C   UNL     1      41.602 -16.592   4.403  1.00  0.00     0.033 C 
HETATM   15  C   UNL     1      42.799 -16.401   3.476  1.00  0.00     0.002 C 
HETATM   16  C   UNL     1      43.837 -17.504   3.666  1.00  0.00     0.000 C 
HETATM   17  C   UNL     1      44.236 -17.678   5.130  1.00  0.00     0.002 C 
HETATM   18  C   UNL     1      43.012 -17.853   6.026  1.00  0.00     0.033 C 
ENDBRANCH  10  13
ENDBRANCH   9  10
ENDBRANCH   4   9
ENDBRANCH   1   3
BRANCH   1  19
HETATM   19  C   UNL     1      45.120 -11.650   7.109  1.00  0.00     0.197 C 
BRANCH  19  20
HETATM   20  C   UNL     1      44.779 -10.657   8.222  1.00  0.00     0.249 C 
HETATM   21  N   UNL     1      43.644 -10.960   8.939  1.00  0.00    -0.266 N 
HETATM   22  H   UNL     1      42.923 -11.607   8.611  1.00  0.00     0.190 HD
HETATM   23  O   UNL     1      45.491  -9.684   8.478  1.00  0.00    -0.270 OA
BRANCH  21  24
HETATM   24  N   UNL     1      43.219 -10.052   9.921  1.00  0.00    -0.263 N 
HETATM   25  C   UNL     1      43.498 -10.375  11.236  1.00  0.00     0.270 C 
HETATM   26  O   UNL     1      44.164 -11.365  11.529  1.00  0.00    -0.266 OA
HETATM   27  H   UNL     1      42.456  -9.427   9.665  1.00  0.00     0.190 HD
BRANCH  25  28
HETATM   28  C   UNL     1      42.920  -9.485  12.278  1.00  0.00     0.033 A 
HETATM   29  C   UNL     1      41.777  -9.916  12.963  1.00  0.00     0.017 A 
HETATM   30  C   UNL     1      41.205  -9.111  13.949  1.00  0.00     0.001 A 
HETATM   31  C   UNL     1      41.777  -7.879  14.262  1.00  0.00     0.000 A 
HETATM   32  C   UNL     1      42.925  -7.451  13.596  1.00  0.00     0.001 A 
HETATM   33  C   UNL     1      43.501  -8.251  12.607  1.00  0.00     0.017 A 
ENDBRANCH  25  28
ENDBRANCH  21  24
ENDBRANCH  19  20
ENDBRANCH   1  19
TORSDOF 8
ENDMDL
MODEL 3
REMARK VINA RESULT:      -8.5      2.558      9.100
REMARK  8 active torsions:
REMARK  status: ('A' for Active; 'I' for Inactive)
REMARK    1  A    between atoms: N_2  and  C_4 
REMARK    2  A    between atoms: N_2  and  C_10 
REMARK    3  A    between atoms: C_10  and  C_11 
REMARK    4  A    between atoms: C_12  and  N_13 
REMARK    5  A    between atoms: N_13  and  C_14 
REMARK    6  A    between atoms: C_14  and  C_15 
REMARK       I    between atoms: C_15  and  N_16 
REMARK    7  A    between atoms: N_16  and  N_17 
REMARK       I    between atoms: N_17  and  C_18 
REMARK    8  A    between atoms: C_18  and  C_19 
ROOT
HETATM    1  N   UNL     1      42.716 -16.185   5.247  1.00  0.00    -0.284 NA
HETATM    2  H   UNL     1      41.793 -15.900   4.889  1.00  0.00     0.128 HD
ENDROOT
BRANCH   1   3
HETATM    3  C   UNL     1      43.185 -17.243   4.437  1.00  0.00     0.016 A 
HETATM    4  C   UNL     1      42.611 -17.415   3.155  1.00  0.00    -0.011 A 
HETATM    5  C   UNL     1      42.989 -18.513   2.360  1.00  0.00     0.011 A 
HETATM    6  C   UNL     1      43.925 -19.434   2.820  1.00  0.00     0.001 A 
HETATM    7  C   UNL     1      44.481 -19.277   4.083  1.00  0.00     0.002 A 
HETATM    8  C   UNL     1      44.105 -18.200   4.890  1.00  0.00     0.024 A 
BRANCH   4   9
HETATM    9  C   UNL     1      41.568 -16.463   2.612  1.00  0.00     0.275 C 
BRANCH   9  10
HETATM   10  N   UNL     1      42.037 -15.028   2.408  1.00  0.00    -0.067 N 
HETATM   11  C   UNL     1      43.361 -15.005   1.680  1.00  0.00     0.270 C 
HETATM   12  H   UNL     1      42.237 -14.723   3.379  1.00  0.00     0.280 HD
BRANCH  10  13
HETATM   13  C   UNL     1      40.994 -14.114   1.758  1.00  0.00     0.188 C 
HETATM   14  C   UNL     1      39.731 -13.940   2.620  1.00  0.00     0.033 C 
HETATM   15  C   UNL     1      39.991 -13.169   3.912  1.00  0.00     0.002 C 
HETATM   16  C   UNL     1      40.634 -11.812   3.635  1.00  0.00     0.000 C 
HETATM   17  C   UNL     1      41.872 -11.927   2.749  1.00  0.00     0.002 C 
HETATM   18  C   UNL     1      41.575 -12.715   1.473  1.00  0.00     0.033 C 
ENDBRANCH  10  13
ENDBRANCH   9  10
ENDBRANCH   4   9
ENDBRANCH   1   3
BRANCH   1  19
HETATM   19  C   UNL     1      42.521 -16.471   6.694  1.00  0.00     0.197 C 
BRANCH  19  20
HETATM   20  C   UNL     1      42.904 -15.230   7.503  1.00  0.00     0.249 C 
HETATM   21  N   UNL     1      42.781 -14.039   6.826  1.00  0.00    -0.266 N 
HETATM   22  H   UNL     1      42.720 -13.970   5.807  1.00  0.00     0.190 HD
HETATM   23  O   UNL     1      43.259 -15.296   8.682  1.00  0.00    -0.270 OA
BRANCH  21  24
HETATM   24  N   UNL     1      43.195 -12.864   7.472  1.00  0.00    -0.263 N 
HETATM   25  C   UNL     1      43.834 -11.914   6.697  1.00  0.00     0.270 C 
HETATM   26  O   UNL     1      43.957 -12.050   5.482  1.00  0.00    -0.266 OA
HETATM   27  H   UNL     1      43.326 -12.919   8.481  1.00  0.00     0.190 HD
BRANCH  25  28
HETATM   28  C   UNL     1      44.398 -10.738   7.413  1.00  0.00     0.033 A 
HETATM   29  C   UNL     1      45.785 -10.547   7.390  1.00  0.00     0.017 A 
HETATM   30  C   UNL     1      46.353  -9.455   8.048  1.00  0.00     0.001 A 
HETATM   31  C   UNL     1      45.539  -8.546   8.722  1.00  0.00     0.000 A 
HETATM   32  C   UNL     1      44.156  -8.722   8.735  1.00  0.00     0.001 A 
HETATM   33  C   UNL     1      43.582  -9.813   8.080  1.00  0.00     0.017 A 
ENDBRANCH  25  28
ENDBRANCH  21  24
ENDBRANCH  19  20
ENDBRANCH   1  19
TORSDOF 8
ENDMDL
MODEL 4
REMARK VINA RESULT:      -8.3      0.965      1.321
REMARK  8 active torsions:
REMARK  status: ('A' for Active; 'I' for Inactive)
REMARK    1  A    between atoms: N_2  and  C_4 
REMARK    2  A    between atoms: N_2  and  C_10 
REMARK    3  A    between atoms: C_10  and  C_11 
REMARK    4  A    between atoms: C_12  and  N_13 
REMARK    5  A    between atoms: N_13  and  C_14 
REMARK    6  A    between atoms: C_14  and  C_15 
REMARK       I    between atoms: C_15  and  N_16 
REMARK    7  A    between atoms: N_16  and  N_17 
REMARK       I    between atoms: N_17  and  C_18 
REMARK    8  A    between atoms: C_18  and  C_19 
ROOT
HETATM    1  N   UNL     1      42.742 -11.550   6.733  1.00  0.00    -0.284 NA
HETATM    2  H   UNL     1      41.890 -11.303   7.256  1.00  0.00     0.128 HD
ENDROOT
BRANCH   1   3
HETATM    3  C   UNL     1      43.830 -10.882   7.339  1.00  0.00     0.016 A 
HETATM    4  C   UNL     1      43.559  -9.759   8.157  1.00  0.00    -0.011 A 
HETATM    5  C   UNL     1      44.623  -9.016   8.701  1.00  0.00     0.011 A 
HETATM    6  C   UNL     1      45.944  -9.374   8.444  1.00  0.00     0.001 A 
HETATM    7  C   UNL     1      46.214 -10.466   7.631  1.00  0.00     0.002 A 
HETATM    8  C   UNL     1      45.168 -11.205   7.072  1.00  0.00     0.024 A 
BRANCH   4   9
HETATM    9  C   UNL     1      42.145  -9.305   8.449  1.00  0.00     0.275 C 
BRANCH   9  10
HETATM   10  N   UNL     1      42.020  -8.159   9.444  1.00  0.00    -0.067 N 
HETATM   11  C   UNL     1      41.459  -6.931   8.765  1.00  0.00     0.270 C 
HETATM   12  H   UNL     1      43.013  -7.943   9.655  1.00  0.00     0.280 HD
BRANCH  10  13
HETATM   13  C   UNL     1      41.261  -8.520  10.724  1.00  0.00     0.188 C 
HETATM   14  C   UNL     1      41.914  -9.678  11.500  1.00  0.00     0.033 C 
HETATM   15  C   UNL     1      43.272  -9.310  12.091  1.00  0.00     0.002 C 
HETATM   16  C   UNL     1      43.181  -8.067  12.974  1.00  0.00     0.000 C 
HETATM   17  C   UNL     1      42.503  -6.899  12.262  1.00  0.00     0.002 C 
HETATM   18  C   UNL     1      41.154  -7.310  11.672  1.00  0.00     0.033 C 
ENDBRANCH  10  13
ENDBRANCH   9  10
ENDBRANCH   4   9
ENDBRANCH   1   3
BRANCH   1  19
HETATM   19  C   UNL     1      42.453 -11.225   5.310  1.00  0.00     0.197 C 
BRANCH  19  20
HETATM   20  C   UNL     1      42.409 -12.524   4.502  1.00  0.00     0.249 C 
HETATM   21  N   UNL     1      42.372 -13.673   5.258  1.00  0.00    -0.266 N 
HETATM   22  H   UNL     1      42.634 -13.710   6.246  1.00  0.00     0.190 HD
HETATM   23  O   UNL     1      42.371 -12.533   3.270  1.00  0.00    -0.270 OA
BRANCH  21  24
HETATM   24  N   UNL     1      42.416 -14.906   4.591  1.00  0.00    -0.263 N 
HETATM   25  C   UNL     1      43.301 -15.851   5.078  1.00  0.00     0.270 C 
HETATM   26  O   UNL     1      43.954 -15.656   6.100  1.00  0.00    -0.266 OA
HETATM   27  H   UNL     1      42.088 -14.916   3.626  1.00  0.00     0.190 HD
BRANCH  25  28
HETATM   28  C   UNL     1      43.449 -17.099   4.282  1.00  0.00     0.033 A 
HETATM   29  C   UNL     1      44.135 -18.177   4.855  1.00  0.00     0.017 A 
HETATM   30  C   UNL     1      44.294 -19.366   4.141  1.00  0.00     0.001 A 
HETATM   31  C   UNL     1      43.760 -19.487   2.859  1.00  0.00     0.000 A 
HETATM   32  C   UNL     1      43.061 -18.424   2.290  1.00  0.00     0.001 A 
HETATM   33  C   UNL     1      42.900 -17.231   2.997  1.00  0.00     0.017 A 
ENDBRANCH  25  28
ENDBRANCH  21  24
ENDBRANCH  19  20
ENDBRANCH   1  19
TORSDOF 8
ENDMDL
MODEL 5
REMARK VINA RESULT:      -8.0      5.065      8.926
REMARK  8 active torsions:
REMARK  status: ('A' for Active; 'I' for Inactive)
REMARK    1  A    between atoms: N_2  and  C_4 
REMARK    2  A    between atoms: N_2  and  C_10 
REMARK    3  A    between atoms: C_10  and  C_11 
REMARK    4  A    between atoms: C_12  and  N_13 
REMARK    5  A    between atoms: N_13  and  C_14 
REMARK    6  A    between atoms: C_14  and  C_15 
REMARK       I    between atoms: C_15  and  N_16 
REMARK    7  A    between atoms: N_16  and  N_17 
REMARK       I    between atoms: N_17  and  C_18 
REMARK    8  A    between atoms: C_18  and  C_19 
ROOT
HETATM    1  N   UNL     1      42.567 -16.091   2.450  1.00  0.00    -0.284 NA
HETATM    2  H   UNL     1      43.126 -15.907   1.605  1.00  0.00     0.128 HD
ENDROOT
BRANCH   1   3
HETATM    3  C   UNL     1      43.041 -17.291   3.027  1.00  0.00     0.016 A 
HETATM    4  C   UNL     1      43.499 -17.259   4.365  1.00  0.00    -0.011 A 
HETATM    5  C   UNL     1      44.062 -18.414   4.940  1.00  0.00     0.011 A 
HETATM    6  C   UNL     1      44.173 -19.591   4.206  1.00  0.00     0.001 A 
HETATM    7  C   UNL     1      43.738 -19.623   2.888  1.00  0.00     0.002 A 
HETATM    8  C   UNL     1      43.190 -18.480   2.299  1.00  0.00     0.024 A 
BRANCH   4   9
HETATM    9  C   UNL     1      43.430 -16.002   5.204  1.00  0.00     0.275 C 
BRANCH   9  10
HETATM   10  N   UNL     1      42.048 -15.373   5.326  1.00  0.00    -0.067 N 
HETATM   11  C   UNL     1      41.073 -16.357   5.932  1.00  0.00     0.270 C 
HETATM   12  H   UNL     1      41.768 -15.265   4.333  1.00  0.00     0.280 HD
BRANCH  10  13
HETATM   13  C   UNL     1      42.036 -14.019   6.041  1.00  0.00     0.188 C 
HETATM   14  C   UNL     1      43.078 -13.037   5.478  1.00  0.00     0.033 C 
HETATM   15  C   UNL     1      42.766 -12.586   4.054  1.00  0.00     0.002 C 
HETATM   16  C   UNL     1      41.365 -11.989   3.948  1.00  0.00     0.000 C 
HETATM   17  C   UNL     1      40.297 -12.911   4.531  1.00  0.00     0.002 C 
HETATM   18  C   UNL     1      40.651 -13.350   5.951  1.00  0.00     0.033 C 
ENDBRANCH  10  13
ENDBRANCH   9  10
ENDBRANCH   4   9
ENDBRANCH   1   3
BRANCH   1  19
HETATM   19  C   UNL     1      41.145 -16.063   2.012  1.00  0.00     0.197 C 
BRANCH  19  20
HETATM   20  C   UNL     1      40.878 -14.748   1.276  1.00  0.00     0.249 C 
HETATM   21  N   UNL     1      39.561 -14.531   0.941  1.00  0.00    -0.266 N 
HETATM   22  H   UNL     1      38.855 -15.270   0.911  1.00  0.00     0.190 HD
HETATM   23  O   UNL     1      41.772 -13.932   1.040  1.00  0.00    -0.270 OA
BRANCH  21  24
HETATM   24  N   UNL     1      39.250 -13.387   0.190  1.00  0.00    -0.263 N 
HETATM   25  C   UNL     1      39.103 -13.555  -1.175  1.00  0.00     0.270 C 
HETATM   26  O   UNL     1      39.154 -14.666  -1.697  1.00  0.00    -0.266 OA
HETATM   27  H   UNL     1      39.493 -12.488   0.604  1.00  0.00     0.190 HD
BRANCH  25  28
HETATM   28  C   UNL     1      38.916 -12.319  -1.982  1.00  0.00     0.033 A 
HETATM   29  C   UNL     1      40.048 -11.709  -2.535  1.00  0.00     0.017 A 
HETATM   30  C   UNL     1      39.915 -10.548  -3.301  1.00  0.00     0.001 A 
HETATM   31  C   UNL     1      38.653 -10.001  -3.524  1.00  0.00     0.000 A 
HETATM   32  C   UNL     1      37.520 -10.613  -2.989  1.00  0.00     0.001 A 
HETATM   33  C   UNL     1      37.647 -11.773  -2.222  1.00  0.00     0.017 A 
ENDBRANCH  25  28
ENDBRANCH  21  24
ENDBRANCH  19  20
ENDBRANCH   1  19
TORSDOF 8
ENDMDL
MODEL 6
REMARK VINA RESULT:      -7.9      2.245      3.938
REMARK  8 active torsions:
REMARK  status: ('A' for Active; 'I' for Inactive)
REMARK    1  A    between atoms: N_2  and  C_4 
REMARK    2  A    between atoms: N_2  and  C_10 
REMARK    3  A    between atoms: C_10  and  C_11 
REMARK    4  A    between atoms: C_12  and  N_13 
REMARK    5  A    between atoms: N_13  and  C_14 
REMARK    6  A    between atoms: C_14  and  C_15 
REMARK       I    between atoms: C_15  and  N_16 
REMARK    7  A    between atoms: N_16  and  N_17 
REMARK       I    between atoms: N_17  and  C_18 
REMARK    8  A    between atoms: C_18  and  C_19 
ROOT
HETATM    1  N   UNL     1      40.531 -11.429   6.552  1.00  0.00    -0.284 NA
HETATM    2  H   UNL     1      40.195 -11.184   7.494  1.00  0.00     0.128 HD
ENDROOT
BRANCH   1   3
HETATM    3  C   UNL     1      40.836 -10.227   5.875  1.00  0.00     0.016 A 
HETATM    4  C   UNL     1      41.413  -9.167   6.614  1.00  0.00    -0.011 A 
HETATM    5  C   UNL     1      41.645  -7.925   5.993  1.00  0.00     0.011 A 
HETATM    6  C   UNL     1      41.312  -7.727   4.656  1.00  0.00     0.001 A 
HETATM    7  C   UNL     1      40.731  -8.759   3.932  1.00  0.00     0.002 A 
HETATM    8  C   UNL     1      40.483  -9.994   4.538  1.00  0.00     0.024 A 
BRANCH   4   9
HETATM    9  C   UNL     1      41.771  -9.314   8.077  1.00  0.00     0.275 C 
BRANCH   9  10
HETATM   10  N   UNL     1      43.236  -9.078   8.417  1.00  0.00    -0.067 N 
HETATM   11  C   UNL     1      43.377  -7.894   9.348  1.00  0.00     0.270 C 
HETATM   12  H   UNL     1      43.628  -8.775   7.505  1.00  0.00     0.280 HD
BRANCH  10  13
HETATM   13  C   UNL     1      43.969 -10.320   8.933  1.00  0.00     0.188 C 
HETATM   14  C   UNL     1      43.917 -11.498   7.945  1.00  0.00     0.033 C 
HETATM   15  C   UNL     1      44.707 -11.238   6.664  1.00  0.00     0.002 C 
HETATM   16  C   UNL     1      46.156 -10.863   6.965  1.00  0.00     0.000 C 
HETATM   17  C   UNL     1      46.261  -9.722   7.974  1.00  0.00     0.002 C 
HETATM   18  C   UNL     1      45.449 -10.013   9.235  1.00  0.00     0.033 C 
ENDBRANCH  10  13
ENDBRANCH   9  10
ENDBRANCH   4   9
ENDBRANCH   1   3
BRANCH   1  19
HETATM   19  C   UNL     1      39.477 -12.296   5.957  1.00  0.00     0.197 C 
BRANCH  19  20
HETATM   20  C   UNL     1      40.040 -13.707   5.773  1.00  0.00     0.249 C 
HETATM   21  N   UNL     1      40.707 -13.913   4.588  1.00  0.00    -0.266 N 
HETATM   22  H   UNL     1      40.612 -13.305   3.771  1.00  0.00     0.190 HD
HETATM   23  O   UNL     1      39.932 -14.577   6.641  1.00  0.00    -0.270 OA
BRANCH  21  24
HETATM   24  N   UNL     1      41.177 -15.206   4.309  1.00  0.00    -0.263 N 
HETATM   25  C   UNL     1      42.544 -15.404   4.379  1.00  0.00     0.270 C 
HETATM   26  O   UNL     1      43.306 -14.516   4.753  1.00  0.00    -0.266 OA
HETATM   27  H   UNL     1      40.570 -15.802   3.748  1.00  0.00     0.190 HD
BRANCH  25  28
HETATM   28  C   UNL     1      43.048 -16.734   3.942  1.00  0.00     0.033 A 
HETATM   29  C   UNL     1      42.579 -17.258   2.732  1.00  0.00     0.017 A 
HETATM   30  C   UNL     1      43.030 -18.503   2.286  1.00  0.00     0.001 A 
HETATM   31  C   UNL     1      43.955 -19.221   3.041  1.00  0.00     0.000 A 
HETATM   32  C   UNL     1      44.438 -18.697   4.239  1.00  0.00     0.001 A 
HETATM   33  C   UNL     1      43.991 -17.454   4.691  1.00  0.00     0.017 A 
ENDBRANCH  25  28
ENDBRANCH  21  24
ENDBRANCH  19  20
ENDBRANCH   1  19
TORSDOF 8
ENDMDL
MODEL 7
REMARK VINA RESULT:      -7.9      2.528      8.967
REMARK  8 active torsions:
REMARK  status: ('A' for Active; 'I' for Inactive)
REMARK    1  A    between atoms: N_2  and  C_4 
REMARK    2  A    between atoms: N_2  and  C_10 
REMARK    3  A    between atoms: C_10  and  C_11 
REMARK    4  A    between atoms: C_12  and  N_13 
REMARK    5  A    between atoms: N_13  and  C_14 
REMARK    6  A    between atoms: C_14  and  C_15 
REMARK       I    between atoms: C_15  and  N_16 
REMARK    7  A    between atoms: N_16  and  N_17 
REMARK       I    between atoms: N_17  and  C_18 
REMARK    8  A    between atoms: C_18  and  C_19 
ROOT
HETATM    1  N   UNL     1      44.308 -16.863   5.685  1.00  0.00    -0.284 NA
HETATM    2  H   UNL     1      44.335 -15.866   5.428  1.00  0.00     0.128 HD
ENDROOT
BRANCH   1   3
HETATM    3  C   UNL     1      44.007 -17.600   4.518  1.00  0.00     0.016 A 
HETATM    4  C   UNL     1      43.406 -16.924   3.430  1.00  0.00    -0.011 A 
HETATM    5  C   UNL     1      43.010 -17.646   2.289  1.00  0.00     0.011 A 
HETATM    6  C   UNL     1      43.203 -19.022   2.217  1.00  0.00     0.001 A 
HETATM    7  C   UNL     1      43.778 -19.692   3.288  1.00  0.00     0.002 A 
HETATM    8  C   UNL     1      44.164 -18.991   4.433  1.00  0.00     0.024 A 
BRANCH   4   9
HETATM    9  C   UNL     1      43.146 -15.433   3.462  1.00  0.00     0.275 C 
BRANCH   9  10
HETATM   10  N   UNL     1      41.678 -15.028   3.501  1.00  0.00    -0.067 N 
HETATM   11  C   UNL     1      40.832 -16.162   4.033  1.00  0.00     0.270 C 
HETATM   12  H   UNL     1      41.447 -14.944   2.493  1.00  0.00     0.280 HD
BRANCH  10  13
HETATM   13  C   UNL     1      41.412 -13.706   4.229  1.00  0.00     0.188 C 
HETATM   14  C   UNL     1      42.351 -12.575   3.776  1.00  0.00     0.033 C 
HETATM   15  C   UNL     1      42.107 -12.137   2.334  1.00  0.00     0.002 C 
HETATM   16  C   UNL     1      40.651 -11.738   2.108  1.00  0.00     0.000 C 
HETATM   17  C   UNL     1      39.675 -12.814   2.579  1.00  0.00     0.002 C 
HETATM   18  C   UNL     1      39.960 -13.235   4.020  1.00  0.00     0.033 C 
ENDBRANCH  10  13
ENDBRANCH   9  10
ENDBRANCH   4   9
ENDBRANCH   1   3
BRANCH   1  19
HETATM   19  C   UNL     1      43.350 -16.964   6.819  1.00  0.00     0.197 C 
BRANCH  19  20
HETATM   20  C   UNL     1      42.775 -15.576   7.109  1.00  0.00     0.249 C 
HETATM   21  N   UNL     1      43.677 -14.543   7.004  1.00  0.00    -0.266 N 
HETATM   22  H   UNL     1      44.691 -14.673   7.015  1.00  0.00     0.190 HD
HETATM   23  O   UNL     1      41.584 -15.400   7.379  1.00  0.00    -0.270 OA
BRANCH  21  24
HETATM   24  N   UNL     1      43.245 -13.250   7.337  1.00  0.00    -0.263 N 
HETATM   25  C   UNL     1      44.123 -12.212   7.085  1.00  0.00     0.270 C 
HETATM   26  O   UNL     1      45.195 -12.399   6.515  1.00  0.00    -0.266 OA
HETATM   27  H   UNL     1      42.509 -13.181   8.039  1.00  0.00     0.190 HD
BRANCH  25  28
HETATM   28  C   UNL     1      43.721 -10.865   7.573  1.00  0.00     0.033 A 
HETATM   29  C   UNL     1      42.551 -10.293   7.059  1.00  0.00     0.017 A 
HETATM   30  C   UNL     1      42.139  -9.032   7.492  1.00  0.00     0.001 A 
HETATM   31  C   UNL     1      42.886  -8.343   8.446  1.00  0.00     0.000 A 
HETATM   32  C   UNL     1      44.043  -8.914   8.974  1.00  0.00     0.001 A 
HETATM   33  C   UNL     1      44.462 -10.175   8.543  1.00  0.00     0.017 A 
ENDBRANCH  25  28
ENDBRANCH  21  24
ENDBRANCH  19  20
ENDBRANCH   1  19
TORSDOF 8
ENDMDL
MODEL 8
REMARK VINA RESULT:      -7.7      1.992      3.400
REMARK  8 active torsions:
REMARK  status: ('A' for Active; 'I' for Inactive)
REMARK    1  A    between atoms: N_2  and  C_4 
REMARK    2  A    between atoms: N_2  and  C_10 
REMARK    3  A    between atoms: C_10  and  C_11 
REMARK    4  A    between atoms: C_12  and  N_13 
REMARK    5  A    between atoms: N_13  and  C_14 
REMARK    6  A    between atoms: C_14  and  C_15 
REMARK       I    between atoms: C_15  and  N_16 
REMARK    7  A    between atoms: N_16  and  N_17 
REMARK       I    between atoms: N_17  and  C_18 
REMARK    8  A    between atoms: C_18  and  C_19 
ROOT
HETATM    1  N   UNL     1      42.836 -10.382   8.918  1.00  0.00    -0.284 NA
HETATM    2  H   UNL     1      42.310 -10.877   8.183  1.00  0.00     0.128 HD
ENDROOT
BRANCH   1   3
HETATM    3  C   UNL     1      42.455  -9.022   8.878  1.00  0.00     0.016 A 
HETATM    4  C   UNL     1      41.399  -8.594   9.718  1.00  0.00    -0.011 A 
HETATM    5  C   UNL     1      40.934  -7.267   9.637  1.00  0.00     0.011 A 
HETATM    6  C   UNL     1      41.503  -6.369   8.739  1.00  0.00     0.001 A 
HETATM    7  C   UNL     1      42.529  -6.789   7.903  1.00  0.00     0.002 A 
HETATM    8  C   UNL     1      42.992  -8.106   7.962  1.00  0.00     0.024 A 
BRANCH   4   9
HETATM    9  C   UNL     1      40.724  -9.531  10.694  1.00  0.00     0.275 C 
BRANCH   9  10
HETATM   10  N   UNL     1      40.661  -9.040  12.134  1.00  0.00    -0.067 N 
HETATM   11  C   UNL     1      39.283  -9.275  12.711  1.00  0.00     0.270 C 
HETATM   12  H   UNL     1      40.754  -8.013  12.020  1.00  0.00     0.280 HD
BRANCH  10  13
HETATM   13  C   UNL     1      41.774  -9.588  13.032  1.00  0.00     0.188 C 
HETATM   14  C   UNL     1      43.180  -9.190  12.551  1.00  0.00     0.033 C 
HETATM   15  C   UNL     1      43.453  -7.694  12.674  1.00  0.00     0.002 C 
HETATM   16  C   UNL     1      43.222  -7.196  14.098  1.00  0.00     0.000 C 
HETATM   17  C   UNL     1      41.852  -7.600  14.638  1.00  0.00     0.002 C 
HETATM   18  C   UNL     1      41.611  -9.102  14.486  1.00  0.00     0.033 C 
ENDBRANCH  10  13
ENDBRANCH   9  10
ENDBRANCH   4   9
ENDBRANCH   1   3
BRANCH   1  19
HETATM   19  C   UNL     1      44.270 -10.694   8.671  1.00  0.00     0.197 C 
BRANCH  19  20
HETATM   20  C   UNL     1      44.372 -11.654   7.484  1.00  0.00     0.249 C 
HETATM   21  N   UNL     1      43.395 -12.622   7.438  1.00  0.00    -0.266 N 
HETATM   22  H   UNL     1      42.817 -12.883   8.241  1.00  0.00     0.190 HD
HETATM   23  O   UNL     1      45.243 -11.542   6.619  1.00  0.00    -0.270 OA
BRANCH  21  24
HETATM   24  N   UNL     1      43.471 -13.592   6.428  1.00  0.00    -0.263 N 
HETATM   25  C   UNL     1      43.198 -14.898   6.791  1.00  0.00     0.270 C 
HETATM   26  O   UNL     1      42.820 -15.186   7.924  1.00  0.00    -0.266 OA
HETATM   27  H   UNL     1      44.042 -13.363   5.615  1.00  0.00     0.190 HD
BRANCH  25  28
HETATM   28  C   UNL     1      43.421 -15.940   5.752  1.00  0.00     0.033 A 
HETATM   29  C   UNL     1      43.039 -15.659   4.435  1.00  0.00     0.017 A 
HETATM   30  C   UNL     1      43.233 -16.610   3.431  1.00  0.00     0.001 A 
HETATM   31  C   UNL     1      43.817 -17.838   3.737  1.00  0.00     0.000 A 
HETATM   32  C   UNL     1      44.215 -18.117   5.043  1.00  0.00     0.001 A 
HETATM   33  C   UNL     1      44.022 -17.172   6.052  1.00  0.00     0.017 A 
ENDBRANCH  25  28
ENDBRANCH  21  24
ENDBRANCH  19  20
ENDBRANCH   1  19
TORSDOF 8
ENDMDL
MODEL 9
REMARK VINA RESULT:      -7.5      3.169      9.525
REMARK  8 active torsions:
REMARK  status: ('A' for Active; 'I' for Inactive)
REMARK    1  A    between atoms: N_2  and  C_4 
REMARK    2  A    between atoms: N_2  and  C_10 
REMARK    3  A    between atoms: C_10  and  C_11 
REMARK    4  A    between atoms: C_12  and  N_13 
REMARK    5  A    between atoms: N_13  and  C_14 
REMARK    6  A    between atoms: C_14  and  C_15 
REMARK       I    between atoms: C_15  and  N_16 
REMARK    7  A    between atoms: N_16  and  N_17 
REMARK       I    between atoms: N_17  and  C_18 
REMARK    8  A    between atoms: C_18  and  C_19 
ROOT
HETATM    1  N   UNL     1      42.977 -12.945   5.551  1.00  0.00    -0.284 NA
HETATM    2  H   UNL     1      42.077 -12.512   5.802  1.00  0.00     0.128 HD
ENDROOT
BRANCH   1   3
HETATM    3  C   UNL     1      42.931 -14.300   5.948  1.00  0.00     0.016 A 
HETATM    4  C   UNL     1      41.706 -14.997   5.820  1.00  0.00    -0.011 A 
HETATM    5  C   UNL     1      41.600 -16.320   6.291  1.00  0.00     0.011 A 
HETATM    6  C   UNL     1      42.689 -16.952   6.884  1.00  0.00     0.001 A 
HETATM    7  C   UNL     1      43.889 -16.266   7.025  1.00  0.00     0.002 A 
HETATM    8  C   UNL     1      44.005 -14.948   6.575  1.00  0.00     0.024 A 
BRANCH   4   9
HETATM    9  C   UNL     1      40.480 -14.354   5.210  1.00  0.00     0.275 C 
BRANCH   9  10
HETATM   10  N   UNL     1      40.534 -14.146   3.702  1.00  0.00    -0.067 N 
HETATM   11  C   UNL     1      40.390 -15.468   2.982  1.00  0.00     0.270 C 
HETATM   12  H   UNL     1      41.516 -13.844   3.557  1.00  0.00     0.280 HD
BRANCH  10  13
HETATM   13  C   UNL     1      39.560 -13.085   3.180  1.00  0.00     0.188 C 
HETATM   14  C   UNL     1      39.788 -11.701   3.813  1.00  0.00     0.033 C 
HETATM   15  C   UNL     1      41.115 -11.068   3.403  1.00  0.00     0.002 C 
HETATM   16  C   UNL     1      41.250 -10.984   1.884  1.00  0.00     0.000 C 
HETATM   17  C   UNL     1      40.993 -12.326   1.204  1.00  0.00     0.002 C 
HETATM   18  C   UNL     1      39.664 -12.934   1.650  1.00  0.00     0.033 C 
ENDBRANCH  10  13
ENDBRANCH   9  10
ENDBRANCH   4   9
ENDBRANCH   1   3
BRANCH   1  19
HETATM   19  C   UNL     1      44.026 -12.090   6.171  1.00  0.00     0.197 C 
BRANCH  19  20
HETATM   20  C   UNL     1      43.368 -11.159   7.192  1.00  0.00     0.249 C 
HETATM   21  N   UNL     1      43.888 -11.237   8.463  1.00  0.00    -0.266 N 
HETATM   22  H   UNL     1      44.454 -12.021   8.797  1.00  0.00     0.190 HD
HETATM   23  O   UNL     1      42.468 -10.375   6.884  1.00  0.00    -0.270 OA
BRANCH  21  24
HETATM   24  N   UNL     1      43.281 -10.476   9.474  1.00  0.00    -0.263 N 
HETATM   25  C   UNL     1      43.966 -10.364  10.670  1.00  0.00     0.270 C 
HETATM   26  O   UNL     1      45.092 -10.832  10.814  1.00  0.00    -0.266 OA
HETATM   27  H   UNL     1      42.270 -10.359   9.414  1.00  0.00     0.190 HD
BRANCH  25  28
HETATM   28  C   UNL     1      43.254  -9.681  11.784  1.00  0.00     0.033 A 
HETATM   29  C   UNL     1      43.676  -8.399  12.156  1.00  0.00     0.017 A 
HETATM   30  C   UNL     1      43.034  -7.723  13.195  1.00  0.00     0.001 A 
HETATM   31  C   UNL     1      41.963  -8.320  13.859  1.00  0.00     0.000 A 
HETATM   32  C   UNL     1      41.528  -9.590  13.482  1.00  0.00     0.001 A 
HETATM   33  C   UNL     1      42.167 -10.272  12.445  1.00  0.00     0.017 A 
ENDBRANCH  25  28
ENDBRANCH  21  24
ENDBRANCH  19  20
ENDBRANCH   1  19
TORSDOF 8
ENDMDL
MODEL 10
REMARK VINA RESULT:      -7.5      2.382      9.692
REMARK  8 active torsions:
REMARK  status: ('A' for Active; 'I' for Inactive)
REMARK    1  A    between atoms: N_2  and  C_4 
REMARK    2  A    between atoms: N_2  and  C_10 
REMARK    3  A    between atoms: C_10  and  C_11 
REMARK    4  A    between atoms: C_12  and  N_13 
REMARK    5  A    between atoms: N_13  and  C_14 
REMARK    6  A    between atoms: C_14  and  C_15 
REMARK       I    between atoms: C_15  and  N_16 
REMARK    7  A    between atoms: N_16  and  N_17 
REMARK       I    between atoms: N_17  and  C_18 
REMARK    8  A    between atoms: C_18  and  C_19 
ROOT
HETATM    1  N   UNL     1      43.804 -12.233   5.160  1.00  0.00    -0.284 NA
HETATM    2  H   UNL     1      44.279 -12.421   4.265  1.00  0.00     0.128 HD
ENDROOT
BRANCH   1   3
HETATM    3  C   UNL     1      42.549 -11.654   4.869  1.00  0.00     0.016 A 
HETATM    4  C   UNL     1      41.383 -12.424   5.096  1.00  0.00    -0.011 A 
HETATM    5  C   UNL     1      40.123 -11.913   4.731  1.00  0.00     0.011 A 
HETATM    6  C   UNL     1      40.010 -10.654   4.148  1.00  0.00     0.001 A 
HETATM    7  C   UNL     1      41.152  -9.901   3.910  1.00  0.00     0.002 A 
HETATM    8  C   UNL     1      42.411 -10.401   4.254  1.00  0.00     0.024 A 
BRANCH   4   9
HETATM    9  C   UNL     1      41.446 -13.810   5.700  1.00  0.00     0.275 C 
BRANCH   9  10
HETATM   10  N   UNL     1      42.124 -14.868   4.840  1.00  0.00    -0.067 N 
HETATM   11  C   UNL     1      42.475 -16.080   5.673  1.00  0.00     0.270 C 
HETATM   12  H   UNL     1      43.025 -14.412   4.601  1.00  0.00     0.280 HD
BRANCH  10  13
HETATM   13  C   UNL     1      41.351 -15.233   3.569  1.00  0.00     0.188 C 
HETATM   14  C   UNL     1      41.675 -14.307   2.385  1.00  0.00     0.033 C 
HETATM   15  C   UNL     1      43.106 -14.465   1.878  1.00  0.00     0.002 C 
HETATM   16  C   UNL     1      43.416 -15.916   1.516  1.00  0.00     0.000 C 
HETATM   17  C   UNL     1      43.073 -16.881   2.647  1.00  0.00     0.002 C 
HETATM   18  C   UNL     1      41.639 -16.684   3.136  1.00  0.00     0.033 C 
ENDBRANCH  10  13
ENDBRANCH   9  10
ENDBRANCH   4   9
ENDBRANCH   1   3
BRANCH   1  19
HETATM   19  C   UNL     1      44.757 -11.421   5.963  1.00  0.00     0.197 C 
BRANCH  19  20
HETATM   20  C   UNL     1      44.296 -11.411   7.422  1.00  0.00     0.249 C 
HETATM   21  N   UNL     1      44.342 -10.180   8.034  1.00  0.00    -0.266 N 
HETATM   22  H   UNL     1      44.889  -9.391   7.680  1.00  0.00     0.190 HD
HETATM   23  O   UNL     1      43.879 -12.424   7.988  1.00  0.00    -0.270 OA
BRANCH  21  24
HETATM   24  N   UNL     1      44.016 -10.105   9.397  1.00  0.00    -0.263 N 
HETATM   25  C   UNL     1      42.902  -9.359   9.734  1.00  0.00     0.270 C 
HETATM   26  O   UNL     1      42.179  -8.856   8.877  1.00  0.00    -0.266 OA
HETATM   27  H   UNL     1      44.770 -10.284  10.058  1.00  0.00     0.190 HD
BRANCH  25  28
HETATM   28  C   UNL     1      42.645  -9.164  11.187  1.00  0.00     0.033 A 
HETATM   29  C   UNL     1      43.443  -8.252  11.887  1.00  0.00     0.017 A 
HETATM   30  C   UNL     1      43.233  -8.039  13.251  1.00  0.00     0.001 A 
HETATM   31  C   UNL     1      42.219  -8.727  13.916  1.00  0.00     0.000 A 
HETATM   32  C   UNL     1      41.410  -9.624  13.221  1.00  0.00     0.001 A 
HETATM   33  C   UNL     1      41.617  -9.843  11.857  1.00  0.00     0.017 A 
ENDBRANCH  25  28
ENDBRANCH  21  24
ENDBRANCH  19  20
ENDBRANCH   1  19
TORSDOF 8
ENDMDL
