MODEL 1
REMARK VINA RESULT:      -9.0      0.000      0.000
REMARK  3 active torsions:
REMARK  status: ('A' for Active; 'I' for Inactive)
REMARK    1  A    between atoms: C_4  and  C_5 
REMARK    2  A    between atoms: C_5  and  N_6 
REMARK    3  A    between atoms: C_16  and  C_17 
ROOT
HETATM    1  N   UNL     1      42.403 -16.073   7.221  1.00  0.00    -0.065 N 
HETATM    2  H   UNL     1      41.893 -16.162   8.120  1.00  0.00     0.280 HD
HETATM    3  C   UNL     1      41.437 -16.417   6.127  1.00  0.00     0.238 C 
HETATM    4  C   UNL     1      40.603 -15.194   5.793  1.00  0.00     0.077 C 
HETATM    5  C   UNL     1      41.471 -14.037   5.210  1.00  0.00     0.218 C 
HETATM    6  N   UNL     1      40.858 -12.743   5.633  1.00  0.00     0.102 N 
HETATM    7  C   UNL     1      39.530 -12.534   5.002  1.00  0.00     0.291 C 
HETATM    8  C   UNL     1      39.435 -12.709   3.459  1.00  0.00     0.160 C 
HETATM    9  N   UNL     1      40.488 -13.580   2.885  1.00  0.00    -0.331 N 
HETATM   10  C   UNL     1      41.468 -14.096   3.655  1.00  0.00     0.123 A 
HETATM   11  C   UNL     1      40.723 -13.874   1.519  1.00  0.00     0.061 A 
HETATM   12  C   UNL     1      41.966 -14.480   1.527  1.00  0.00     0.120 A 
HETATM   13  N   UNL     1      42.384 -14.604   2.831  1.00  0.00    -0.351 N 
HETATM   14  H   UNL     1      43.287 -14.994   3.087  1.00  0.00     0.166 HD
HETATM   15  C   UNL     1      42.903 -14.097   5.804  1.00  0.00     0.077 C 
HETATM   16  C   UNL     1      42.913 -14.648   7.225  1.00  0.00     0.238 C 
HETATM   17  H   UNL     1      41.455 -11.957   5.353  1.00  0.00     0.317 HD
ENDROOT
BRANCH   1  18
HETATM   18  C   UNL     1      43.491 -17.128   7.397  1.00  0.00     0.299 C 
BRANCH  18  19
HETATM   19  C   UNL     1      43.843 -17.794   6.121  1.00  0.00     0.079 A 
HETATM   20  O   UNL     1      43.661 -19.148   6.079  1.00  0.00    -0.318 OA
HETATM   21  C   UNL     1      44.013 -19.555   4.826  1.00  0.00     0.049 A 
HETATM   22  C   UNL     1      43.891 -20.999   4.528  1.00  0.00     0.076 C 
HETATM   23  C   UNL     1      44.413 -18.474   4.072  1.00  0.00     0.035 A 
HETATM   24  C   UNL     1      44.304 -17.337   4.907  1.00  0.00     0.037 A 
ENDBRANCH  18  19
ENDBRANCH   1  18
BRANCH  11  25
HETATM   25  C   UNL     1      39.895 -13.636   0.279  1.00  0.00    -0.008 A 
HETATM   26  C   UNL     1      39.210 -12.439   0.065  1.00  0.00     0.014 A 
HETATM   27  C   UNL     1      38.404 -12.273  -1.069  1.00  0.00     0.001 A 
HETATM   28  C   UNL     1      38.276 -13.298  -1.998  1.00  0.00     0.000 A 
HETATM   29  C   UNL     1      38.957 -14.494  -1.801  1.00  0.00     0.001 A 
HETATM   30  C   UNL     1      39.761 -14.665  -0.670  1.00  0.00     0.014 A 
ENDBRANCH  11  25
TORSDOF 3
ENDMDL
MODEL 2
REMARK VINA RESULT:      -8.8      5.152      8.768
REMARK  3 active torsions:
REMARK  status: ('A' for Active; 'I' for Inactive)
REMARK    1  A    between atoms: C_4  and  C_5 
REMARK    2  A    between atoms: C_5  and  N_6 
REMARK    3  A    between atoms: C_16  and  C_17 
ROOT
HETATM    1  N   UNL     1      43.297 -13.123   5.003  1.00  0.00    -0.065 N 
HETATM    2  H   UNL     1      44.025 -13.816   4.747  1.00  0.00     0.280 HD
HETATM    3  C   UNL     1      43.028 -13.283   6.469  1.00  0.00     0.238 C 
HETATM    4  C   UNL     1      44.066 -12.503   7.255  1.00  0.00     0.077 C 
HETATM    5  C   UNL     1      43.965 -10.969   6.995  1.00  0.00     0.218 C 
HETATM    6  N   UNL     1      45.339 -10.394   7.094  1.00  0.00     0.102 N 
HETATM    7  C   UNL     1      45.870 -10.478   8.478  1.00  0.00     0.291 C 
HETATM    8  C   UNL     1      44.966  -9.942   9.626  1.00  0.00     0.160 C 
HETATM    9  N   UNL     1      43.520  -9.935   9.300  1.00  0.00    -0.331 N 
HETATM   10  C   UNL     1      43.074 -10.299   8.080  1.00  0.00     0.123 A 
HETATM   11  C   UNL     1      42.454  -9.441  10.092  1.00  0.00     0.061 A 
HETATM   12  C   UNL     1      41.384  -9.416   9.215  1.00  0.00     0.120 A 
HETATM   13  N   UNL     1      41.790  -9.946   8.014  1.00  0.00    -0.351 N 
HETATM   14  H   UNL     1      41.181 -10.005   7.203  1.00  0.00     0.166 HD
HETATM   15  C   UNL     1      43.447 -10.709   5.556  1.00  0.00     0.077 C 
HETATM   16  C   UNL     1      43.886 -11.794   4.582  1.00  0.00     0.238 C 
HETATM   17  H   UNL     1      45.330  -9.402   6.831  1.00  0.00     0.317 HD
ENDROOT
BRANCH   1  18
HETATM   18  C   UNL     1      42.130 -13.594   4.138  1.00  0.00     0.299 C 
BRANCH  18  19
HETATM   19  C   UNL     1      42.536 -14.628   3.158  1.00  0.00     0.079 A 
HETATM   20  O   UNL     1      42.773 -15.876   3.662  1.00  0.00    -0.318 OA
HETATM   21  C   UNL     1      43.102 -16.673   2.606  1.00  0.00     0.049 A 
HETATM   22  C   UNL     1      43.397 -18.092   2.899  1.00  0.00     0.076 C 
HETATM   23  C   UNL     1      43.072 -15.945   1.436  1.00  0.00     0.035 A 
HETATM   24  C   UNL     1      42.707 -14.625   1.792  1.00  0.00     0.037 A 
ENDBRANCH  18  19
ENDBRANCH   1  18
BRANCH  11  25
HETATM   25  C   UNL     1      42.385  -9.017  11.539  1.00  0.00    -0.008 A 
HETATM   26  C   UNL     1      43.233  -8.042  12.067  1.00  0.00     0.014 A 
HETATM   27  C   UNL     1      43.181  -7.714  13.428  1.00  0.00     0.001 A 
HETATM   28  C   UNL     1      42.282  -8.355  14.273  1.00  0.00     0.000 A 
HETATM   29  C   UNL     1      41.427  -9.324  13.761  1.00  0.00     0.001 A 
HETATM   30  C   UNL     1      41.477  -9.655  12.403  1.00  0.00     0.014 A 
ENDBRANCH  11  25
TORSDOF 3
ENDMDL
MODEL 3
REMARK VINA RESULT:      -8.7      3.075      6.390
REMARK  3 active torsions:
REMARK  status: ('A' for Active; 'I' for Inactive)
REMARK    1  A    between atoms: C_4  and  C_5 
REMARK    2  A    between atoms: C_5  and  N_6 
REMARK    3  A    between atoms: C_16  and  C_17 
ROOT
HETATM    1  N   UNL     1      42.068 -16.036   1.866  1.00  0.00    -0.065 N 
HETATM    2  H   UNL     1      42.028 -15.973   0.831  1.00  0.00     0.280 HD
HETATM    3  C   UNL     1      43.283 -15.278   2.309  1.00  0.00     0.238 C 
HETATM    4  C   UNL     1      42.946 -13.801   2.397  1.00  0.00     0.077 C 
HETATM    5  C   UNL     1      41.873 -13.510   3.490  1.00  0.00     0.218 C 
HETATM    6  N   UNL     1      41.055 -12.348   3.034  1.00  0.00     0.102 N 
HETATM    7  C   UNL     1      41.855 -11.098   2.991  1.00  0.00     0.291 C 
HETATM    8  C   UNL     1      42.675 -10.728   4.261  1.00  0.00     0.160 C 
HETATM    9  N   UNL     1      43.011 -11.889   5.120  1.00  0.00    -0.331 N 
HETATM   10  C   UNL     1      42.563 -13.128   4.831  1.00  0.00     0.123 A 
HETATM   11  C   UNL     1      43.674 -11.879   6.372  1.00  0.00     0.061 A 
HETATM   12  C   UNL     1      43.471 -13.159   6.855  1.00  0.00     0.120 A 
HETATM   13  N   UNL     1      42.804 -13.888   5.900  1.00  0.00    -0.351 N 
HETATM   14  H   UNL     1      42.518 -14.852   6.041  1.00  0.00     0.166 HD
HETATM   15  C   UNL     1      40.923 -14.728   3.637  1.00  0.00     0.077 C 
HETATM   16  C   UNL     1      40.738 -15.475   2.322  1.00  0.00     0.238 C 
HETATM   17  H   UNL     1      40.273 -12.187   3.680  1.00  0.00     0.317 HD
ENDROOT
BRANCH   1  18
HETATM   18  C   UNL     1      42.212 -17.543   2.061  1.00  0.00     0.299 C 
BRANCH  18  19
HETATM   19  C   UNL     1      43.119 -17.883   3.181  1.00  0.00     0.079 A 
HETATM   20  O   UNL     1      42.760 -17.408   4.412  1.00  0.00    -0.318 OA
HETATM   21  C   UNL     1      43.699 -17.849   5.296  1.00  0.00     0.049 A 
HETATM   22  C   UNL     1      43.522 -17.469   6.714  1.00  0.00     0.076 C 
HETATM   23  C   UNL     1      44.649 -18.603   4.640  1.00  0.00     0.035 A 
HETATM   24  C   UNL     1      44.276 -18.624   3.275  1.00  0.00     0.037 A 
ENDBRANCH  18  19
ENDBRANCH   1  18
BRANCH  11  25
HETATM   25  C   UNL     1      44.444 -10.802   7.097  1.00  0.00    -0.008 A 
HETATM   26  C   UNL     1      45.838 -10.812   7.176  1.00  0.00     0.014 A 
HETATM   27  C   UNL     1      46.517  -9.829   7.905  1.00  0.00     0.001 A 
HETATM   28  C   UNL     1      45.812  -8.826   8.562  1.00  0.00     0.000 A 
HETATM   29  C   UNL     1      44.425  -8.800   8.489  1.00  0.00     0.001 A 
HETATM   30  C   UNL     1      43.742  -9.781   7.763  1.00  0.00     0.014 A 
ENDBRANCH  11  25
TORSDOF 3
ENDMDL
MODEL 4
REMARK VINA RESULT:      -8.3      3.395      4.968
REMARK  3 active torsions:
REMARK  status: ('A' for Active; 'I' for Inactive)
REMARK    1  A    between atoms: C_4  and  C_5 
REMARK    2  A    between atoms: C_5  and  N_6 
REMARK    3  A    between atoms: C_16  and  C_17 
ROOT
HETATM    1  N   UNL     1      41.256 -15.806   2.400  1.00  0.00    -0.065 N 
HETATM    2  H   UNL     1      41.170 -16.783   2.063  1.00  0.00     0.280 HD
HETATM    3  C   UNL     1      42.135 -15.077   1.428  1.00  0.00     0.238 C 
HETATM    4  C   UNL     1      41.299 -14.612   0.250  1.00  0.00     0.077 C 
HETATM    5  C   UNL     1      40.221 -13.568   0.675  1.00  0.00     0.218 C 
HETATM    6  N   UNL     1      39.032 -13.748  -0.210  1.00  0.00     0.102 N 
HETATM    7  C   UNL     1      39.335 -13.382  -1.616  1.00  0.00     0.291 C 
HETATM    8  C   UNL     1      40.003 -12.000  -1.869  1.00  0.00     0.160 C 
HETATM    9  N   UNL     1      40.752 -11.471  -0.703  1.00  0.00    -0.331 N 
HETATM   10  C   UNL     1      40.765 -12.124   0.476  1.00  0.00     0.123 A 
HETATM   11  C   UNL     1      41.400 -10.217  -0.585  1.00  0.00     0.061 A 
HETATM   12  C   UNL     1      41.678 -10.122   0.767  1.00  0.00     0.120 A 
HETATM   13  N   UNL     1      41.288 -11.291   1.377  1.00  0.00    -0.351 N 
HETATM   14  H   UNL     1      41.366 -11.444   2.378  1.00  0.00     0.166 HD
HETATM   15  C   UNL     1      39.768 -13.837   2.134  1.00  0.00     0.077 C 
HETATM   16  C   UNL     1      39.827 -15.317   2.490  1.00  0.00     0.238 C 
HETATM   17  H   UNL     1      38.261 -13.146   0.103  1.00  0.00     0.317 HD
ENDROOT
BRANCH   1  18
HETATM   18  C   UNL     1      41.931 -16.023   3.752  1.00  0.00     0.299 C 
BRANCH  18  19
HETATM   19  C   UNL     1      42.853 -17.182   3.743  1.00  0.00     0.079 A 
HETATM   20  O   UNL     1      42.640 -18.113   2.765  1.00  0.00    -0.318 OA
HETATM   21  C   UNL     1      43.600 -19.069   2.914  1.00  0.00     0.049 A 
HETATM   22  C   UNL     1      43.585 -20.194   1.954  1.00  0.00     0.076 C 
HETATM   23  C   UNL     1      44.423 -18.754   3.974  1.00  0.00     0.035 A 
HETATM   24  C   UNL     1      43.941 -17.536   4.509  1.00  0.00     0.037 A 
ENDBRANCH  18  19
ENDBRANCH   1  18
BRANCH  11  25
HETATM   25  C   UNL     1      41.756  -9.165  -1.607  1.00  0.00    -0.008 A 
HETATM   26  C   UNL     1      41.152  -9.120  -2.865  1.00  0.00     0.014 A 
HETATM   27  C   UNL     1      41.547  -8.165  -3.811  1.00  0.00     0.001 A 
HETATM   28  C   UNL     1      42.547  -7.248  -3.510  1.00  0.00     0.000 A 
HETATM   29  C   UNL     1      43.154  -7.277  -2.260  1.00  0.00     0.001 A 
HETATM   30  C   UNL     1      42.764  -8.229  -1.314  1.00  0.00     0.014 A 
ENDBRANCH  11  25
TORSDOF 3
ENDMDL
MODEL 5
REMARK VINA RESULT:      -8.2      2.832      7.483
REMARK  3 active torsions:
REMARK  status: ('A' for Active; 'I' for Inactive)
REMARK    1  A    between atoms: C_4  and  C_5 
REMARK    2  A    between atoms: C_5  and  N_6 
REMARK    3  A    between atoms: C_16  and  C_17 
ROOT
HETATM    1  N   UNL     1      39.651 -10.370   0.835  1.00  0.00    -0.065 N 
HETATM    2  H   UNL     1      39.870  -9.390   1.095  1.00  0.00     0.280 HD
HETATM    3  C   UNL     1      40.931 -11.146   0.915  1.00  0.00     0.238 C 
HETATM    4  C   UNL     1      41.171 -11.567   2.353  1.00  0.00     0.077 C 
HETATM    5  C   UNL     1      40.075 -12.551   2.865  1.00  0.00     0.218 C 
HETATM    6  N   UNL     1      39.884 -12.308   4.326  1.00  0.00     0.102 N 
HETATM    7  C   UNL     1      41.087 -12.691   5.106  1.00  0.00     0.291 C 
HETATM    8  C   UNL     1      41.681 -14.108   4.858  1.00  0.00     0.160 C 
HETATM    9  N   UNL     1      41.349 -14.675   3.529  1.00  0.00    -0.331 N 
HETATM   10  C   UNL     1      40.540 -14.022   2.670  1.00  0.00     0.123 A 
HETATM   11  C   UNL     1      41.668 -15.962   3.030  1.00  0.00     0.061 A 
HETATM   12  C   UNL     1      40.892 -16.070   1.891  1.00  0.00     0.120 A 
HETATM   13  N   UNL     1      40.229 -14.881   1.699  1.00  0.00    -0.351 N 
HETATM   14  H   UNL     1      39.574 -14.731   0.937  1.00  0.00     0.166 HD
HETATM   15  C   UNL     1      38.726 -12.255   2.158  1.00  0.00     0.077 C 
HETATM   16  C   UNL     1      38.569 -10.780   1.811  1.00  0.00     0.238 C 
HETATM   17  H   UNL     1      39.100 -12.866   4.681  1.00  0.00     0.317 HD
ENDROOT
BRANCH   1  18
HETATM   18  C   UNL     1      39.164 -10.188  -0.600  1.00  0.00     0.299 C 
BRANCH  18  19
HETATM   19  C   UNL     1      39.667 -11.246  -1.506  1.00  0.00     0.079 A 
HETATM   20  O   UNL     1      39.004 -12.441  -1.463  1.00  0.00    -0.318 OA
HETATM   21  C   UNL     1      39.599 -13.256  -2.379  1.00  0.00     0.049 A 
HETATM   22  C   UNL     1      39.046 -14.620  -2.527  1.00  0.00     0.076 C 
HETATM   23  C   UNL     1      40.631 -12.591  -3.006  1.00  0.00     0.035 A 
HETATM   24  C   UNL     1      40.675 -11.293  -2.443  1.00  0.00     0.037 A 
ENDBRANCH  18  19
ENDBRANCH   1  18
BRANCH  11  25
HETATM   25  C   UNL     1      42.607 -17.034   3.531  1.00  0.00    -0.008 A 
HETATM   26  C   UNL     1      42.934 -17.160   4.882  1.00  0.00     0.014 A 
HETATM   27  C   UNL     1      43.853 -18.129   5.305  1.00  0.00     0.001 A 
HETATM   28  C   UNL     1      44.453 -18.980   4.384  1.00  0.00     0.000 A 
HETATM   29  C   UNL     1      44.134 -18.869   3.036  1.00  0.00     0.001 A 
HETATM   30  C   UNL     1      43.218 -17.903   2.609  1.00  0.00     0.014 A 
ENDBRANCH  11  25
TORSDOF 3
ENDMDL
MODEL 6
REMARK VINA RESULT:      -8.2      4.358      7.650
REMARK  3 active torsions:
REMARK  status: ('A' for Active; 'I' for Inactive)
REMARK    1  A    between atoms: C_4  and  C_5 
REMARK    2  A    between atoms: C_5  and  N_6 
REMARK    3  A    between atoms: C_16  and  C_17 
ROOT
HETATM    1  N   UNL     1      40.512  -9.681   7.099  1.00  0.00    -0.065 N 
HETATM    2  H   UNL     1      40.023  -8.908   6.611  1.00  0.00     0.280 HD
HETATM    3  C   UNL     1      40.063 -10.962   6.461  1.00  0.00     0.238 C 
HETATM    4  C   UNL     1      40.885 -11.212   5.210  1.00  0.00     0.077 C 
HETATM    5  C   UNL     1      42.394 -11.436   5.537  1.00  0.00     0.218 C 
HETATM    6  N   UNL     1      43.196 -10.902   4.397  1.00  0.00     0.102 N 
HETATM    7  C   UNL     1      42.987 -11.697   3.160  1.00  0.00     0.291 C 
HETATM    8  C   UNL     1      43.143 -13.241   3.267  1.00  0.00     0.160 C 
HETATM    9  N   UNL     1      42.927 -13.776   4.633  1.00  0.00    -0.331 N 
HETATM   10  C   UNL     1      42.692 -12.956   5.678  1.00  0.00     0.123 A 
HETATM   11  C   UNL     1      43.070 -15.114   5.074  1.00  0.00     0.061 A 
HETATM   12  C   UNL     1      43.035 -15.007   6.452  1.00  0.00     0.120 A 
HETATM   13  N   UNL     1      42.800 -13.694   6.783  1.00  0.00    -0.351 N 
HETATM   14  H   UNL     1      42.761 -13.365   7.743  1.00  0.00     0.166 HD
HETATM   15  C   UNL     1      42.786 -10.633   6.806  1.00  0.00     0.077 C 
HETATM   16  C   UNL     1      41.981  -9.347   6.944  1.00  0.00     0.238 C 
HETATM   17  H   UNL     1      44.198 -10.940   4.618  1.00  0.00     0.317 HD
ENDROOT
BRANCH   1  18
HETATM   18  C   UNL     1      39.977  -9.514   8.519  1.00  0.00     0.299 C 
BRANCH  18  19
HETATM   19  C   UNL     1      40.850  -8.657   9.354  1.00  0.00     0.079 A 
HETATM   20  O   UNL     1      41.717  -9.309  10.185  1.00  0.00    -0.318 OA
HETATM   21  C   UNL     1      42.437  -8.352  10.835  1.00  0.00     0.049 A 
HETATM   22  C   UNL     1      43.462  -8.815  11.795  1.00  0.00     0.076 C 
HETATM   23  C   UNL     1      42.039  -7.098  10.423  1.00  0.00     0.035 A 
HETATM   24  C   UNL     1      41.015  -7.295   9.467  1.00  0.00     0.037 A 
ENDBRANCH  18  19
ENDBRANCH   1  18
BRANCH  11  25
HETATM   25  C   UNL     1      43.227 -16.414   4.320  1.00  0.00    -0.008 A 
HETATM   26  C   UNL     1      44.097 -17.418   4.749  1.00  0.00     0.014 A 
HETATM   27  C   UNL     1      44.261 -18.587   3.995  1.00  0.00     0.001 A 
HETATM   28  C   UNL     1      43.558 -18.764   2.808  1.00  0.00     0.000 A 
HETATM   29  C   UNL     1      42.685 -17.775   2.372  1.00  0.00     0.001 A 
HETATM   30  C   UNL     1      42.519 -16.606   3.121  1.00  0.00     0.014 A 
ENDBRANCH  11  25
TORSDOF 3
ENDMDL
MODEL 7
REMARK VINA RESULT:      -8.1      2.865      7.142
REMARK  3 active torsions:
REMARK  status: ('A' for Active; 'I' for Inactive)
REMARK    1  A    between atoms: C_4  and  C_5 
REMARK    2  A    between atoms: C_5  and  N_6 
REMARK    3  A    between atoms: C_16  and  C_17 
ROOT
HETATM    1  N   UNL     1      41.907 -10.434   3.609  1.00  0.00    -0.065 N 
HETATM    2  H   UNL     1      42.488  -9.669   4.001  1.00  0.00     0.280 HD
HETATM    3  C   UNL     1      42.846 -11.479   3.084  1.00  0.00     0.238 C 
HETATM    4  C   UNL     1      43.285 -12.376   4.227  1.00  0.00     0.077 C 
HETATM    5  C   UNL     1      42.092 -13.179   4.831  1.00  0.00     0.218 C 
HETATM    6  N   UNL     1      42.356 -13.370   6.288  1.00  0.00     0.102 N 
HETATM    7  C   UNL     1      43.525 -14.256   6.520  1.00  0.00     0.291 C 
HETATM    8  C   UNL     1      43.549 -15.621   5.773  1.00  0.00     0.160 C 
HETATM    9  N   UNL     1      42.735 -15.644   4.534  1.00  0.00    -0.331 N 
HETATM   10  C   UNL     1      41.995 -14.579   4.162  1.00  0.00     0.123 A 
HETATM   11  C   UNL     1      42.489 -16.745   3.678  1.00  0.00     0.061 A 
HETATM   12  C   UNL     1      41.463 -16.299   2.864  1.00  0.00     0.120 A 
HETATM   13  N   UNL     1      41.194 -14.988   3.177  1.00  0.00    -0.351 N 
HETATM   14  H   UNL     1      40.455 -14.454   2.729  1.00  0.00     0.166 HD
HETATM   15  C   UNL     1      40.780 -12.362   4.693  1.00  0.00     0.077 C 
HETATM   16  C   UNL     1      41.027 -10.860   4.765  1.00  0.00     0.238 C 
HETATM   17  H   UNL     1      41.547 -13.808   6.742  1.00  0.00     0.317 HD
ENDROOT
BRANCH   1  18
HETATM   18  C   UNL     1      41.167  -9.698   2.496  1.00  0.00     0.299 C 
BRANCH  18  19
HETATM   19  C   UNL     1      40.683 -10.615   1.438  1.00  0.00     0.079 A 
HETATM   20  O   UNL     1      41.329 -10.540   0.235  1.00  0.00    -0.318 OA
HETATM   21  C   UNL     1      40.757 -11.472  -0.579  1.00  0.00     0.049 A 
HETATM   22  C   UNL     1      41.299 -11.592  -1.950  1.00  0.00     0.076 C 
HETATM   23  C   UNL     1      39.757 -12.140   0.095  1.00  0.00     0.035 A 
HETATM   24  C   UNL     1      39.709 -11.587   1.396  1.00  0.00     0.037 A 
ENDBRANCH  18  19
ENDBRANCH   1  18
BRANCH  11  25
HETATM   25  C   UNL     1      43.125 -18.111   3.583  1.00  0.00    -0.008 A 
HETATM   26  C   UNL     1      43.135 -18.842   2.393  1.00  0.00     0.014 A 
HETATM   27  C   UNL     1      43.683 -20.130   2.354  1.00  0.00     0.001 A 
HETATM   28  C   UNL     1      44.224 -20.700   3.501  1.00  0.00     0.000 A 
HETATM   29  C   UNL     1      44.226 -19.983   4.691  1.00  0.00     0.001 A 
HETATM   30  C   UNL     1      43.679 -18.697   4.734  1.00  0.00     0.014 A 
ENDBRANCH  11  25
TORSDOF 3
ENDMDL
MODEL 8
REMARK VINA RESULT:      -8.1      3.271      7.312
REMARK  3 active torsions:
REMARK  status: ('A' for Active; 'I' for Inactive)
REMARK    1  A    between atoms: C_4  and  C_5 
REMARK    2  A    between atoms: C_5  and  N_6 
REMARK    3  A    between atoms: C_16  and  C_17 
ROOT
HETATM    1  N   UNL     1      40.251 -11.273   5.234  1.00  0.00    -0.065 N 
HETATM    2  H   UNL     1      39.517 -10.764   4.707  1.00  0.00     0.280 HD
HETATM    3  C   UNL     1      39.936 -12.735   5.133  1.00  0.00     0.238 C 
HETATM    4  C   UNL     1      40.483 -13.274   3.824  1.00  0.00     0.077 C 
HETATM    5  C   UNL     1      42.039 -13.196   3.764  1.00  0.00     0.218 C 
HETATM    6  N   UNL     1      42.434 -12.966   2.342  1.00  0.00     0.102 N 
HETATM    7  C   UNL     1      42.112 -14.137   1.488  1.00  0.00     0.291 C 
HETATM    8  C   UNL     1      42.596 -15.533   1.974  1.00  0.00     0.160 C 
HETATM    9  N   UNL     1      42.812 -15.619   3.439  1.00  0.00    -0.331 N 
HETATM   10  C   UNL     1      42.663 -14.540   4.234  1.00  0.00     0.123 A 
HETATM   11  C   UNL     1      43.320 -16.716   4.178  1.00  0.00     0.061 A 
HETATM   12  C   UNL     1      43.581 -16.174   5.423  1.00  0.00     0.120 A 
HETATM   13  N   UNL     1      43.167 -14.863   5.426  1.00  0.00    -0.351 N 
HETATM   14  H   UNL     1      43.284 -14.248   6.226  1.00  0.00     0.166 HD
HETATM   15  C   UNL     1      42.541 -11.985   4.594  1.00  0.00     0.077 C 
HETATM   16  C   UNL     1      41.546 -10.831   4.587  1.00  0.00     0.238 C 
HETATM   17  H   UNL     1      43.446 -12.808   2.275  1.00  0.00     0.317 HD
ENDROOT
BRANCH   1  18
HETATM   18  C   UNL     1      40.033 -10.722   6.641  1.00  0.00     0.299 C 
BRANCH  18  19
HETATM   19  C   UNL     1      40.901  -9.557   6.932  1.00  0.00     0.079 A 
HETATM   20  O   UNL     1      42.112  -9.836   7.500  1.00  0.00    -0.318 OA
HETATM   21  C   UNL     1      42.758  -8.646   7.658  1.00  0.00     0.049 A 
HETATM   22  C   UNL     1      44.112  -8.688   8.253  1.00  0.00     0.076 C 
HETATM   23  C   UNL     1      41.971  -7.615   7.194  1.00  0.00     0.035 A 
HETATM   24  C   UNL     1      40.771  -8.202   6.725  1.00  0.00     0.037 A 
ENDBRANCH  18  19
ENDBRANCH   1  18
BRANCH  11  25
HETATM   25  C   UNL     1      43.559 -18.159   3.806  1.00  0.00    -0.008 A 
HETATM   26  C   UNL     1      43.364 -18.632   2.506  1.00  0.00     0.014 A 
HETATM   27  C   UNL     1      43.539 -19.989   2.208  1.00  0.00     0.001 A 
HETATM   28  C   UNL     1      43.911 -20.886   3.203  1.00  0.00     0.000 A 
HETATM   29  C   UNL     1      44.115 -20.430   4.500  1.00  0.00     0.001 A 
HETATM   30  C   UNL     1      43.939 -19.076   4.802  1.00  0.00     0.014 A 
ENDBRANCH  11  25
TORSDOF 3
ENDMDL
MODEL 9
REMARK VINA RESULT:      -8.0      4.087      7.874
REMARK  3 active torsions:
REMARK  status: ('A' for Active; 'I' for Inactive)
REMARK    1  A    between atoms: C_4  and  C_5 
REMARK    2  A    between atoms: C_5  and  N_6 
REMARK    3  A    between atoms: C_16  and  C_17 
ROOT
HETATM    1  N   UNL     1      41.244 -10.474   5.322  1.00  0.00    -0.065 N 
HETATM    2  H   UNL     1      41.164 -10.053   6.266  1.00  0.00     0.280 HD
HETATM    3  C   UNL     1      42.352 -11.481   5.377  1.00  0.00     0.238 C 
HETATM    4  C   UNL     1      41.813 -12.788   5.930  1.00  0.00     0.077 C 
HETATM    5  C   UNL     1      40.743 -13.423   4.990  1.00  0.00     0.218 C 
HETATM    6  N   UNL     1      39.755 -14.149   5.842  1.00  0.00     0.102 N 
HETATM    7  C   UNL     1      40.369 -15.323   6.513  1.00  0.00     0.291 C 
HETATM    8  C   UNL     1      41.166 -16.320   5.625  1.00  0.00     0.160 C 
HETATM    9  N   UNL     1      41.689 -15.725   4.371  1.00  0.00    -0.331 N 
HETATM   10  C   UNL     1      41.413 -14.449   4.032  1.00  0.00     0.123 A 
HETATM   11  C   UNL     1      42.382 -16.379   3.323  1.00  0.00     0.061 A 
HETATM   12  C   UNL     1      42.377 -15.447   2.301  1.00  0.00     0.120 A 
HETATM   13  N   UNL     1      41.791 -14.293   2.763  1.00  0.00    -0.351 N 
HETATM   14  H   UNL     1      41.648 -13.474   2.180  1.00  0.00     0.166 HD
HETATM   15  C   UNL     1      39.979 -12.308   4.228  1.00  0.00     0.077 C 
HETATM   16  C   UNL     1      39.862 -11.028   5.046  1.00  0.00     0.238 C 
HETATM   17  H   UNL     1      38.978 -14.498   5.268  1.00  0.00     0.317 HD
ENDROOT
BRANCH   1  18
HETATM   18  C   UNL     1      41.606  -9.249   4.486  1.00  0.00     0.299 C 
BRANCH  18  19
HETATM   19  C   UNL     1      41.691  -8.015   5.301  1.00  0.00     0.079 A 
HETATM   20  O   UNL     1      41.744  -6.838   4.607  1.00  0.00    -0.318 OA
HETATM   21  C   UNL     1      41.791  -5.837   5.531  1.00  0.00     0.049 A 
HETATM   22  C   UNL     1      41.844  -4.450   5.019  1.00  0.00     0.076 C 
HETATM   23  C   UNL     1      41.764  -6.365   6.804  1.00  0.00     0.035 A 
HETATM   24  C   UNL     1      41.700  -7.771   6.656  1.00  0.00     0.037 A 
ENDBRANCH  18  19
ENDBRANCH   1  18
BRANCH  11  25
HETATM   25  C   UNL     1      43.013 -17.748   3.230  1.00  0.00    -0.008 A 
HETATM   26  C   UNL     1      42.779 -18.600   2.149  1.00  0.00     0.014 A 
HETATM   27  C   UNL     1      43.335 -19.885   2.123  1.00  0.00     0.001 A 
HETATM   28  C   UNL     1      44.129 -20.331   3.174  1.00  0.00     0.000 A 
HETATM   29  C   UNL     1      44.375 -19.492   4.254  1.00  0.00     0.001 A 
HETATM   30  C   UNL     1      43.821 -18.208   4.285  1.00  0.00     0.014 A 
ENDBRANCH  11  25
TORSDOF 3
ENDMDL
MODEL 10
REMARK VINA RESULT:      -7.9      4.447      8.245
REMARK  3 active torsions:
REMARK  status: ('A' for Active; 'I' for Inactive)
REMARK    1  A    between atoms: C_4  and  C_5 
REMARK    2  A    between atoms: C_5  and  N_6 
REMARK    3  A    between atoms: C_16  and  C_17 
ROOT
HETATM    1  N   UNL     1      40.052  -9.887   6.812  1.00  0.00    -0.065 N 
HETATM    2  H   UNL     1      39.559  -9.147   6.277  1.00  0.00     0.280 HD
HETATM    3  C   UNL     1      39.713 -11.199   6.171  1.00  0.00     0.238 C 
HETATM    4  C   UNL     1      40.630 -11.426   4.984  1.00  0.00     0.077 C 
HETATM    5  C   UNL     1      42.122 -11.566   5.416  1.00  0.00     0.218 C 
HETATM    6  N   UNL     1      42.973 -11.010   4.322  1.00  0.00     0.102 N 
HETATM    7  C   UNL     1      42.889 -11.835   3.090  1.00  0.00     0.291 C 
HETATM    8  C   UNL     1      43.115 -13.367   3.237  1.00  0.00     0.160 C 
HETATM    9  N   UNL     1      42.834 -13.890   4.596  1.00  0.00    -0.331 N 
HETATM   10  C   UNL     1      42.487 -13.066   5.606  1.00  0.00     0.123 A 
HETATM   11  C   UNL     1      43.014 -15.212   5.072  1.00  0.00     0.061 A 
HETATM   12  C   UNL     1      42.879 -15.084   6.442  1.00  0.00     0.120 A 
HETATM   13  N   UNL     1      42.555 -13.780   6.730  1.00  0.00    -0.351 N 
HETATM   14  H   UNL     1      42.434 -13.438   7.679  1.00  0.00     0.166 HD
HETATM   15  C   UNL     1      42.385 -10.724   6.692  1.00  0.00     0.077 C 
HETATM   16  C   UNL     1      41.508  -9.480   6.751  1.00  0.00     0.238 C 
HETATM   17  H   UNL     1      43.958 -10.993   4.611  1.00  0.00     0.317 HD
ENDROOT
BRANCH   1  18
HETATM   18  C   UNL     1      39.413  -9.725   8.189  1.00  0.00     0.299 C 
BRANCH  18  19
HETATM   19  C   UNL     1      39.292  -8.304   8.591  1.00  0.00     0.079 A 
HETATM   20  O   UNL     1      38.520  -7.514   7.786  1.00  0.00    -0.318 OA
HETATM   21  C   UNL     1      38.517  -6.269   8.341  1.00  0.00     0.049 A 
HETATM   22  C   UNL     1      37.732  -5.224   7.647  1.00  0.00     0.076 C 
HETATM   23  C   UNL     1      39.276  -6.260   9.491  1.00  0.00     0.035 A 
HETATM   24  C   UNL     1      39.776  -7.574   9.654  1.00  0.00     0.037 A 
ENDBRANCH  18  19
ENDBRANCH   1  18
BRANCH  11  25
HETATM   25  C   UNL     1      43.287 -16.513   4.356  1.00  0.00    -0.008 A 
HETATM   26  C   UNL     1      44.188 -17.457   4.853  1.00  0.00     0.014 A 
HETATM   27  C   UNL     1      44.461 -18.628   4.135  1.00  0.00     0.001 A 
HETATM   28  C   UNL     1      43.838 -18.868   2.916  1.00  0.00     0.000 A 
HETATM   29  C   UNL     1      42.934 -17.940   2.411  1.00  0.00     0.001 A 
HETATM   30  C   UNL     1      42.660 -16.769   3.124  1.00  0.00     0.014 A 
ENDBRANCH  11  25
TORSDOF 3
ENDMDL
