MODEL 1
REMARK VINA RESULT:      -8.0      0.000      0.000
REMARK  5 active torsions:
REMARK  status: ('A' for Active; 'I' for Inactive)
REMARK    1  A    between atoms: C_11  and  N_12 
REMARK       I    between atoms: N_12  and  C_13 
REMARK       I    between atoms: C_13  and  N_14 
REMARK    2  A    between atoms: N_14  and  C_15 
REMARK    3  A    between atoms: C_15  and  C_16 
REMARK    4  A    between atoms: C_16  and  N_17 
REMARK    5  A    between atoms: C_16  and  C_21 
ROOT
HETATM    1  N   UNL     1      42.842 -13.360   3.172  1.00  0.00    -0.314 N 
HETATM    2  C   UNL     1      41.850 -12.792   2.444  1.00  0.00     0.298 C 
HETATM    3  N   UNL     1      40.833 -13.576   1.996  1.00  0.00    -0.242 NA
HETATM    4  O   UNL     1      41.867 -11.579   2.247  1.00  0.00    -0.254 OA
HETATM    5  H   UNL     1      43.569 -12.675   3.363  1.00  0.00     0.170 HD
HETATM    6  H   UNL     1      41.195 -14.457   1.649  1.00  0.00     0.132 HD
ENDROOT
BRANCH   1   7
HETATM    7  C   UNL     1      43.023 -14.611   3.798  1.00  0.00     0.038 A 
HETATM    8  C   UNL     1      43.168 -14.822   5.164  1.00  0.00     0.032 A 
HETATM    9  C   UNL     1      43.401 -16.112   5.658  1.00  0.00     0.036 A 
HETATM   10  C   UNL     1      43.513 -17.204   4.812  1.00  0.00     0.086 A 
HETATM   11  N   UNL     1      43.773 -18.417   5.326  1.00  0.00    -0.250 NA
HETATM   12  C   UNL     1      43.369 -17.005   3.426  1.00  0.00     0.088 A 
HETATM   13  C   UNL     1      43.897 -19.448   4.452  1.00  0.00     0.055 A 
HETATM   14  C   UNL     1      44.205 -20.791   5.041  1.00  0.00     0.072 C 
HETATM   15  C   UNL     1      43.759 -19.253   3.077  1.00  0.00     0.055 A 
HETATM   16  N   UNL     1      43.489 -18.026   2.561  1.00  0.00    -0.250 NA
HETATM   17  C   UNL     1      43.911 -20.374   2.095  1.00  0.00     0.072 C 
HETATM   18  C   UNL     1      43.118 -15.722   2.948  1.00  0.00     0.063 A 
ENDBRANCH   1   7
BRANCH   3  19
HETATM   19  C   UNL     1      39.773 -13.006   1.165  1.00  0.00     0.135 C 
BRANCH  19  20
HETATM   20  C   UNL     1      40.125 -12.580  -0.295  1.00  0.00     0.240 C 
BRANCH  20  21
HETATM   21  N   UNL     1      40.005 -11.096  -0.631  1.00  0.00    -0.069 N 
HETATM   22  H   UNL     1      39.440 -11.101  -1.489  1.00  0.00     0.279 HD
HETATM   23  C   UNL     1      39.227 -10.232   0.315  1.00  0.00     0.270 C 
HETATM   24  C   UNL     1      41.309 -10.461  -1.020  1.00  0.00     0.270 C 
ENDBRANCH  20  21
BRANCH  20  25
HETATM   25  C   UNL     1      39.477 -13.446  -1.359  1.00  0.00     0.014 A 
HETATM   26  S   UNL     1      38.691 -12.679  -2.686  1.00  0.00    -0.104 SA
HETATM   27  C   UNL     1      38.245 -14.172  -3.381  1.00  0.00     0.050 A 
HETATM   28  C   UNL     1      38.663 -15.239  -2.620  1.00  0.00     0.008 A 
HETATM   29  C   UNL     1      39.367 -14.821  -1.456  1.00  0.00     0.017 A 
ENDBRANCH  20  25
ENDBRANCH  19  20
ENDBRANCH   3  19
TORSDOF 5
ENDMDL
MODEL 2
REMARK VINA RESULT:      -7.8      7.630     10.571
REMARK  5 active torsions:
REMARK  status: ('A' for Active; 'I' for Inactive)
REMARK    1  A    between atoms: C_11  and  N_12 
REMARK       I    between atoms: N_12  and  C_13 
REMARK       I    between atoms: C_13  and  N_14 
REMARK    2  A    between atoms: N_14  and  C_15 
REMARK    3  A    between atoms: C_15  and  C_16 
REMARK    4  A    between atoms: C_16  and  N_17 
REMARK    5  A    between atoms: C_16  and  C_21 
ROOT
HETATM    1  N   UNL     1      44.425 -10.505   8.266  1.00  0.00    -0.314 N 
HETATM    2  C   UNL     1      44.470 -10.408   9.617  1.00  0.00     0.298 C 
HETATM    3  N   UNL     1      43.476 -10.979  10.349  1.00  0.00    -0.242 NA
HETATM    4  O   UNL     1      45.427  -9.851  10.148  1.00  0.00    -0.254 OA
HETATM    5  H   UNL     1      45.181  -9.963   7.854  1.00  0.00     0.170 HD
HETATM    6  H   UNL     1      42.576 -10.804   9.917  1.00  0.00     0.132 HD
ENDROOT
BRANCH   1   7
HETATM    7  C   UNL     1      43.664 -11.258   7.349  1.00  0.00     0.038 A 
HETATM    8  C   UNL     1      42.536 -10.813   6.670  1.00  0.00     0.032 A 
HETATM    9  C   UNL     1      41.831 -11.681   5.826  1.00  0.00     0.036 A 
HETATM   10  C   UNL     1      42.218 -13.001   5.655  1.00  0.00     0.086 A 
HETATM   11  N   UNL     1      41.492 -13.807   4.865  1.00  0.00    -0.250 NA
HETATM   12  C   UNL     1      43.359 -13.466   6.337  1.00  0.00     0.088 A 
HETATM   13  C   UNL     1      41.900 -15.097   4.752  1.00  0.00     0.055 A 
HETATM   14  C   UNL     1      41.068 -15.988   3.879  1.00  0.00     0.072 C 
HETATM   15  C   UNL     1      43.028 -15.562   5.429  1.00  0.00     0.055 A 
HETATM   16  N   UNL     1      43.764 -14.742   6.223  1.00  0.00    -0.250 NA
HETATM   17  C   UNL     1      43.484 -16.986   5.332  1.00  0.00     0.072 C 
HETATM   18  C   UNL     1      44.062 -12.589   7.157  1.00  0.00     0.063 A 
ENDBRANCH   1   7
BRANCH   3  19
HETATM   19  C   UNL     1      43.466 -10.850  11.806  1.00  0.00     0.135 C 
BRANCH  19  20
HETATM   20  C   UNL     1      42.197 -10.248  12.487  1.00  0.00     0.240 C 
BRANCH  20  21
HETATM   21  N   UNL     1      40.950 -10.103  11.619  1.00  0.00    -0.069 N 
HETATM   22  H   UNL     1      41.095 -10.814  10.890  1.00  0.00     0.279 HD
HETATM   23  C   UNL     1      39.632 -10.470  12.230  1.00  0.00     0.270 C 
HETATM   24  C   UNL     1      40.878  -8.795  10.886  1.00  0.00     0.270 C 
ENDBRANCH  20  21
BRANCH  20  25
HETATM   25  C   UNL     1      42.468  -8.989  13.287  1.00  0.00     0.014 A 
HETATM   26  S   UNL     1      41.515  -8.674  14.687  1.00  0.00    -0.104 SA
HETATM   27  C   UNL     1      42.333  -7.212  15.007  1.00  0.00     0.050 A 
HETATM   28  C   UNL     1      43.301  -6.947  14.065  1.00  0.00     0.008 A 
HETATM   29  C   UNL     1      43.375  -7.966  13.074  1.00  0.00     0.017 A 
ENDBRANCH  20  25
ENDBRANCH  19  20
ENDBRANCH   3  19
TORSDOF 5
ENDMDL
MODEL 3
REMARK VINA RESULT:      -7.6      5.656      8.202
REMARK  5 active torsions:
REMARK  status: ('A' for Active; 'I' for Inactive)
REMARK    1  A    between atoms: C_11  and  N_12 
REMARK       I    between atoms: N_12  and  C_13 
REMARK       I    between atoms: C_13  and  N_14 
REMARK    2  A    between atoms: N_14  and  C_15 
REMARK    3  A    between atoms: C_15  and  C_16 
REMARK    4  A    between atoms: C_16  and  N_17 
REMARK    5  A    between atoms: C_16  and  C_21 
ROOT
HETATM    1  N   UNL     1      42.878 -12.914   5.929  1.00  0.00    -0.314 N 
HETATM    2  C   UNL     1      43.268 -11.813   6.617  1.00  0.00     0.298 C 
HETATM    3  N   UNL     1      43.697 -11.958   7.899  1.00  0.00    -0.242 NA
HETATM    4  O   UNL     1      43.271 -10.722   6.052  1.00  0.00    -0.254 OA
HETATM    5  H   UNL     1      42.506 -12.643   5.022  1.00  0.00     0.170 HD
HETATM    6  H   UNL     1      43.102 -12.609   8.397  1.00  0.00     0.132 HD
ENDROOT
BRANCH   1   7
HETATM    7  C   UNL     1      42.980 -14.305   6.140  1.00  0.00     0.038 A 
HETATM    8  C   UNL     1      42.956 -14.944   7.373  1.00  0.00     0.032 A 
HETATM    9  C   UNL     1      43.125 -16.332   7.452  1.00  0.00     0.036 A 
HETATM   10  C   UNL     1      43.339 -17.103   6.321  1.00  0.00     0.086 A 
HETATM   11  N   UNL     1      43.533 -18.426   6.447  1.00  0.00    -0.250 NA
HETATM   12  C   UNL     1      43.366 -16.469   5.064  1.00  0.00     0.088 A 
HETATM   13  C   UNL     1      43.762 -19.130   5.310  1.00  0.00     0.055 A 
HETATM   14  C   UNL     1      43.994 -20.602   5.470  1.00  0.00     0.072 C 
HETATM   15  C   UNL     1      43.794 -18.504   4.063  1.00  0.00     0.055 A 
HETATM   16  N   UNL     1      43.591 -17.167   3.938  1.00  0.00    -0.250 NA
HETATM   17  C   UNL     1      44.064 -19.261   2.798  1.00  0.00     0.072 C 
HETATM   18  C   UNL     1      43.177 -15.092   4.996  1.00  0.00     0.063 A 
ENDBRANCH   1   7
BRANCH   3  19
HETATM   19  C   UNL     1      44.078 -10.785   8.686  1.00  0.00     0.135 C 
BRANCH  19  20
HETATM   20  C   UNL     1      42.994  -9.696   8.963  1.00  0.00     0.240 C 
BRANCH  20  21
HETATM   21  N   UNL     1      43.135  -8.375   8.211  1.00  0.00    -0.069 N 
HETATM   22  H   UNL     1      43.765  -8.619   7.436  1.00  0.00     0.279 HD
HETATM   23  C   UNL     1      41.915  -7.830   7.532  1.00  0.00     0.270 C 
HETATM   24  C   UNL     1      43.858  -7.315   8.989  1.00  0.00     0.270 C 
ENDBRANCH  20  21
BRANCH  20  25
HETATM   25  C   UNL     1      42.713  -9.471  10.436  1.00  0.00     0.014 A 
HETATM   26  S   UNL     1      41.095  -9.146  10.931  1.00  0.00    -0.104 SA
HETATM   27  C   UNL     1      41.545  -9.011  12.571  1.00  0.00     0.050 A 
HETATM   28  C   UNL     1      42.897  -9.187  12.750  1.00  0.00     0.008 A 
HETATM   29  C   UNL     1      43.569  -9.448  11.522  1.00  0.00     0.017 A 
ENDBRANCH  20  25
ENDBRANCH  19  20
ENDBRANCH   3  19
TORSDOF 5
ENDMDL
MODEL 4
REMARK VINA RESULT:      -7.5      4.238      6.513
REMARK  5 active torsions:
REMARK  status: ('A' for Active; 'I' for Inactive)
REMARK    1  A    between atoms: C_11  and  N_12 
REMARK       I    between atoms: N_12  and  C_13 
REMARK       I    between atoms: C_13  and  N_14 
REMARK    2  A    between atoms: N_14  and  C_15 
REMARK    3  A    between atoms: C_15  and  C_16 
REMARK    4  A    between atoms: C_16  and  N_17 
REMARK    5  A    between atoms: C_16  and  C_21 
ROOT
HETATM    1  N   UNL     1      42.798 -13.274   2.898  1.00  0.00    -0.314 N 
HETATM    2  C   UNL     1      42.697 -11.984   3.304  1.00  0.00     0.298 C 
HETATM    3  N   UNL     1      42.547 -11.723   4.629  1.00  0.00    -0.242 NA
HETATM    4  O   UNL     1      42.792 -11.084   2.472  1.00  0.00    -0.254 OA
HETATM    5  H   UNL     1      42.820 -13.318   1.882  1.00  0.00     0.170 HD
HETATM    6  H   UNL     1      41.891 -12.375   5.044  1.00  0.00     0.132 HD
ENDROOT
BRANCH   1   7
HETATM    7  C   UNL     1      42.991 -14.509   3.552  1.00  0.00     0.038 A 
HETATM    8  C   UNL     1      43.158 -14.686   4.919  1.00  0.00     0.032 A 
HETATM    9  C   UNL     1      43.399 -15.964   5.441  1.00  0.00     0.036 A 
HETATM   10  C   UNL     1      43.499 -17.076   4.621  1.00  0.00     0.086 A 
HETATM   11  N   UNL     1      43.768 -18.275   5.161  1.00  0.00    -0.250 NA
HETATM   12  C   UNL     1      43.332 -16.911   3.233  1.00  0.00     0.088 A 
HETATM   13  C   UNL     1      43.880 -19.328   4.310  1.00  0.00     0.055 A 
HETATM   14  C   UNL     1      44.198 -20.656   4.927  1.00  0.00     0.072 C 
HETATM   15  C   UNL     1      43.719 -19.166   2.933  1.00  0.00     0.055 A 
HETATM   16  N   UNL     1      43.440 -17.953   2.391  1.00  0.00    -0.250 NA
HETATM   17  C   UNL     1      43.856 -20.312   1.976  1.00  0.00     0.072 C 
HETATM   18  C   UNL     1      43.073 -15.640   2.728  1.00  0.00     0.063 A 
ENDBRANCH   1   7
BRANCH   3  19
HETATM   19  C   UNL     1      42.385 -10.346   5.096  1.00  0.00     0.135 C 
BRANCH  19  20
HETATM   20  C   UNL     1      42.072 -10.109   6.607  1.00  0.00     0.240 C 
BRANCH  20  21
HETATM   21  N   UNL     1      40.972  -9.102   6.935  1.00  0.00    -0.069 N 
HETATM   22  H   UNL     1      41.498  -8.311   7.327  1.00  0.00     0.279 HD
HETATM   23  C   UNL     1      40.213  -8.506   5.789  1.00  0.00     0.270 C 
HETATM   24  C   UNL     1      40.056  -9.552   8.036  1.00  0.00     0.270 C 
ENDBRANCH  20  21
BRANCH  20  25
HETATM   25  C   UNL     1      43.305  -9.886   7.461  1.00  0.00     0.014 A 
HETATM   26  S   UNL     1      44.411 -11.189   7.677  1.00  0.00    -0.104 SA
HETATM   27  C   UNL     1      45.434 -10.254   8.671  1.00  0.00     0.050 A 
HETATM   28  C   UNL     1      44.947  -8.981   8.859  1.00  0.00     0.008 A 
HETATM   29  C   UNL     1      43.721  -8.771   8.166  1.00  0.00     0.017 A 
ENDBRANCH  20  25
ENDBRANCH  19  20
ENDBRANCH   3  19
TORSDOF 5
ENDMDL
MODEL 5
REMARK VINA RESULT:      -7.4      1.926      3.022
REMARK  5 active torsions:
REMARK  status: ('A' for Active; 'I' for Inactive)
REMARK    1  A    between atoms: C_11  and  N_12 
REMARK       I    between atoms: N_12  and  C_13 
REMARK       I    between atoms: C_13  and  N_14 
REMARK    2  A    between atoms: N_14  and  C_15 
REMARK    3  A    between atoms: C_15  and  C_16 
REMARK    4  A    between atoms: C_16  and  N_17 
REMARK    5  A    between atoms: C_16  and  C_21 
ROOT
HETATM    1  N   UNL     1      39.066 -13.424   2.639  1.00  0.00    -0.314 N 
HETATM    2  C   UNL     1      38.893 -12.333   1.854  1.00  0.00     0.298 C 
HETATM    3  N   UNL     1      39.890 -11.972   1.003  1.00  0.00    -0.242 NA
HETATM    4  O   UNL     1      37.825 -11.727   1.894  1.00  0.00    -0.254 OA
HETATM    5  H   UNL     1      38.280 -13.521   3.278  1.00  0.00     0.170 HD
HETATM    6  H   UNL     1      40.790 -12.056   1.461  1.00  0.00     0.132 HD
ENDROOT
BRANCH   1   7
HETATM    7  C   UNL     1      40.001 -14.479   2.683  1.00  0.00     0.038 A 
HETATM    8  C   UNL     1      40.038 -15.568   1.822  1.00  0.00     0.032 A 
HETATM    9  C   UNL     1      40.986 -16.583   2.006  1.00  0.00     0.036 A 
HETATM   10  C   UNL     1      41.895 -16.545   3.051  1.00  0.00     0.086 A 
HETATM   11  N   UNL     1      42.763 -17.557   3.212  1.00  0.00    -0.250 NA
HETATM   12  C   UNL     1      41.870 -15.447   3.932  1.00  0.00     0.088 A 
HETATM   13  C   UNL     1      43.615 -17.483   4.266  1.00  0.00     0.055 A 
HETATM   14  C   UNL     1      44.564 -18.629   4.441  1.00  0.00     0.072 C 
HETATM   15  C   UNL     1      43.589 -16.398   5.143  1.00  0.00     0.055 A 
HETATM   16  N   UNL     1      42.715 -15.373   4.974  1.00  0.00    -0.250 NA
HETATM   17  C   UNL     1      44.509 -16.306   6.323  1.00  0.00     0.072 C 
HETATM   18  C   UNL     1      40.936 -14.436   3.727  1.00  0.00     0.063 A 
ENDBRANCH   1   7
BRANCH   3  19
HETATM   19  C   UNL     1      39.757 -10.772   0.177  1.00  0.00     0.135 C 
BRANCH  19  20
HETATM   20  C   UNL     1      39.921 -10.916  -1.369  1.00  0.00     0.240 C 
BRANCH  20  21
HETATM   21  N   UNL     1      39.718  -9.655  -2.205  1.00  0.00    -0.069 N 
HETATM   22  H   UNL     1      38.738  -9.736  -2.506  1.00  0.00     0.279 HD
HETATM   23  C   UNL     1      39.776  -8.336  -1.497  1.00  0.00     0.270 C 
HETATM   24  C   UNL     1      40.521  -9.641  -3.474  1.00  0.00     0.270 C 
ENDBRANCH  20  21
BRANCH  20  25
HETATM   25  C   UNL     1      39.178 -12.100  -1.957  1.00  0.00     0.014 A 
HETATM   26  S   UNL     1      40.089 -13.415  -2.595  1.00  0.00    -0.104 SA
HETATM   27  C   UNL     1      38.681 -14.271  -3.038  1.00  0.00     0.050 A 
HETATM   28  C   UNL     1      37.536 -13.574  -2.730  1.00  0.00     0.008 A 
HETATM   29  C   UNL     1      37.822 -12.324  -2.113  1.00  0.00     0.017 A 
ENDBRANCH  20  25
ENDBRANCH  19  20
ENDBRANCH   3  19
TORSDOF 5
ENDMDL
MODEL 6
REMARK VINA RESULT:      -7.4      7.742     11.134
REMARK  5 active torsions:
REMARK  status: ('A' for Active; 'I' for Inactive)
REMARK    1  A    between atoms: C_11  and  N_12 
REMARK       I    between atoms: N_12  and  C_13 
REMARK       I    between atoms: C_13  and  N_14 
REMARK    2  A    between atoms: N_14  and  C_15 
REMARK    3  A    between atoms: C_15  and  C_16 
REMARK    4  A    between atoms: C_16  and  N_17 
REMARK    5  A    between atoms: C_16  and  C_21 
ROOT
HETATM    1  N   UNL     1      44.456 -10.400   8.416  1.00  0.00    -0.314 N 
HETATM    2  C   UNL     1      44.453 -10.326   9.769  1.00  0.00     0.298 C 
HETATM    3  N   UNL     1      43.498 -11.003  10.461  1.00  0.00    -0.242 NA
HETATM    4  O   UNL     1      45.338  -9.692  10.339  1.00  0.00    -0.254 OA
HETATM    5  H   UNL     1      45.168  -9.781   8.036  1.00  0.00     0.170 HD
HETATM    6  H   UNL     1      42.598 -10.904  10.006  1.00  0.00     0.132 HD
ENDROOT
BRANCH   1   7
HETATM    7  C   UNL     1      43.796 -11.203   7.463  1.00  0.00     0.038 A 
HETATM    8  C   UNL     1      44.228 -12.441   7.004  1.00  0.00     0.032 A 
HETATM    9  C   UNL     1      43.509 -13.116   6.009  1.00  0.00     0.036 A 
HETATM   10  C   UNL     1      42.368 -12.571   5.443  1.00  0.00     0.086 A 
HETATM   11  N   UNL     1      41.730 -13.236   4.466  1.00  0.00    -0.250 NA
HETATM   12  C   UNL     1      41.918 -11.317   5.898  1.00  0.00     0.088 A 
HETATM   13  C   UNL     1      40.632 -12.646   3.928  1.00  0.00     0.055 A 
HETATM   14  C   UNL     1      39.944 -13.394   2.827  1.00  0.00     0.072 C 
HETATM   15  C   UNL     1      40.186 -11.401   4.374  1.00  0.00     0.055 A 
HETATM   16  N   UNL     1      40.830 -10.734   5.367  1.00  0.00    -0.250 NA
HETATM   17  C   UNL     1      38.988 -10.725   3.780  1.00  0.00     0.072 C 
HETATM   18  C   UNL     1      42.630 -10.665   6.900  1.00  0.00     0.063 A 
ENDBRANCH   1   7
BRANCH   3  19
HETATM   19  C   UNL     1      43.435 -10.905  11.919  1.00  0.00     0.135 C 
BRANCH  19  20
HETATM   20  C   UNL     1      42.168 -10.258  12.563  1.00  0.00     0.240 C 
BRANCH  20  21
HETATM   21  N   UNL     1      40.939 -10.108  11.670  1.00  0.00    -0.069 N 
HETATM   22  H   UNL     1      41.090 -10.827  10.952  1.00  0.00     0.279 HD
HETATM   23  C   UNL     1      39.606 -10.453  12.261  1.00  0.00     0.270 C 
HETATM   24  C   UNL     1      40.896  -8.806  10.922  1.00  0.00     0.270 C 
ENDBRANCH  20  21
BRANCH  20  25
HETATM   25  C   UNL     1      42.455  -8.984  13.335  1.00  0.00     0.014 A 
HETATM   26  S   UNL     1      41.500  -8.624  14.723  1.00  0.00    -0.104 SA
HETATM   27  C   UNL     1      42.339  -7.166  15.012  1.00  0.00     0.050 A 
HETATM   28  C   UNL     1      43.314  -6.937  14.070  1.00  0.00     0.008 A 
HETATM   29  C   UNL     1      43.377  -7.980  13.103  1.00  0.00     0.017 A 
ENDBRANCH  20  25
ENDBRANCH  19  20
ENDBRANCH   3  19
TORSDOF 5
ENDMDL
MODEL 7
REMARK VINA RESULT:      -7.4      6.630      9.632
REMARK  5 active torsions:
REMARK  status: ('A' for Active; 'I' for Inactive)
REMARK    1  A    between atoms: C_11  and  N_12 
REMARK       I    between atoms: N_12  and  C_13 
REMARK       I    between atoms: C_13  and  N_14 
REMARK    2  A    between atoms: N_14  and  C_15 
REMARK    3  A    between atoms: C_15  and  C_16 
REMARK    4  A    between atoms: C_16  and  N_17 
REMARK    5  A    between atoms: C_16  and  C_21 
ROOT
HETATM    1  N   UNL     1      44.852 -11.812   6.874  1.00  0.00    -0.314 N 
HETATM    2  C   UNL     1      44.884 -11.172   8.068  1.00  0.00     0.298 C 
HETATM    3  N   UNL     1      43.766 -11.171   8.842  1.00  0.00    -0.242 NA
HETATM    4  O   UNL     1      45.932 -10.652   8.443  1.00  0.00    -0.254 OA
HETATM    5  H   UNL     1      45.724 -11.658   6.373  1.00  0.00     0.170 HD
HETATM    6  H   UNL     1      42.944 -11.013   8.271  1.00  0.00     0.132 HD
ENDROOT
BRANCH   1   7
HETATM    7  C   UNL     1      43.958 -12.707   6.249  1.00  0.00     0.038 A 
HETATM    8  C   UNL     1      43.557 -13.938   6.753  1.00  0.00     0.032 A 
HETATM    9  C   UNL     1      42.705 -14.763   6.007  1.00  0.00     0.036 A 
HETATM   10  C   UNL     1      42.256 -14.393   4.749  1.00  0.00     0.086 A 
HETATM   11  N   UNL     1      41.471 -15.231   4.053  1.00  0.00    -0.250 NA
HETATM   12  C   UNL     1      42.655 -13.149   4.225  1.00  0.00     0.088 A 
HETATM   13  C   UNL     1      41.079 -14.831   2.816  1.00  0.00     0.055 A 
HETATM   14  C   UNL     1      40.218 -15.786   2.046  1.00  0.00     0.072 C 
HETATM   15  C   UNL     1      41.477 -13.600   2.293  1.00  0.00     0.055 A 
HETATM   16  N   UNL     1      42.266 -12.752   3.002  1.00  0.00    -0.250 NA
HETATM   17  C   UNL     1      41.070 -13.149   0.923  1.00  0.00     0.072 C 
HETATM   18  C   UNL     1      43.485 -12.330   4.985  1.00  0.00     0.063 A 
ENDBRANCH   1   7
BRANCH   3  19
HETATM   19  C   UNL     1      43.750 -10.448  10.113  1.00  0.00     0.135 C 
BRANCH  19  20
HETATM   20  C   UNL     1      42.547  -9.497  10.408  1.00  0.00     0.240 C 
BRANCH  20  21
HETATM   21  N   UNL     1      42.335  -8.332   9.444  1.00  0.00    -0.069 N 
HETATM   22  H   UNL     1      41.914  -7.612  10.046  1.00  0.00     0.279 HD
HETATM   23  C   UNL     1      43.554  -7.669   8.879  1.00  0.00     0.270 C 
HETATM   24  C   UNL     1      41.310  -8.609   8.383  1.00  0.00     0.270 C 
ENDBRANCH  20  21
BRANCH  20  25
HETATM   25  C   UNL     1      42.461  -9.047  11.854  1.00  0.00     0.014 A 
HETATM   26  S   UNL     1      41.216  -9.697  12.851  1.00  0.00    -0.104 SA
HETATM   27  C   UNL     1      41.722  -8.788  14.203  1.00  0.00     0.050 A 
HETATM   28  C   UNL     1      42.803  -7.988  13.911  1.00  0.00     0.008 A 
HETATM   29  C   UNL     1      43.224  -8.134  12.559  1.00  0.00     0.017 A 
ENDBRANCH  20  25
ENDBRANCH  19  20
ENDBRANCH   3  19
TORSDOF 5
ENDMDL
MODEL 8
REMARK VINA RESULT:      -7.3      5.431      7.967
REMARK  5 active torsions:
REMARK  status: ('A' for Active; 'I' for Inactive)
REMARK    1  A    between atoms: C_11  and  N_12 
REMARK       I    between atoms: N_12  and  C_13 
REMARK       I    between atoms: C_13  and  N_14 
REMARK    2  A    between atoms: N_14  and  C_15 
REMARK    3  A    between atoms: C_15  and  C_16 
REMARK    4  A    between atoms: C_16  and  N_17 
REMARK    5  A    between atoms: C_16  and  C_21 
ROOT
HETATM    1  N   UNL     1      39.370 -12.139   6.086  1.00  0.00    -0.314 N 
HETATM    2  C   UNL     1      39.724 -10.992   6.717  1.00  0.00     0.298 C 
HETATM    3  N   UNL     1      41.038 -10.648   6.765  1.00  0.00    -0.242 NA
HETATM    4  O   UNL     1      38.848 -10.270   7.187  1.00  0.00    -0.254 OA
HETATM    5  H   UNL     1      38.374 -12.307   6.204  1.00  0.00     0.170 HD
HETATM    6  H   UNL     1      41.607 -11.463   6.964  1.00  0.00     0.132 HD
ENDROOT
BRANCH   1   7
HETATM    7  C   UNL     1      40.031 -13.050   5.237  1.00  0.00     0.038 A 
HETATM    8  C   UNL     1      39.948 -13.076   3.850  1.00  0.00     0.032 A 
HETATM    9  C   UNL     1      40.610 -14.072   3.121  1.00  0.00     0.036 A 
HETATM   10  C   UNL     1      41.346 -15.064   3.750  1.00  0.00     0.086 A 
HETATM   11  N   UNL     1      41.934 -16.020   3.014  1.00  0.00    -0.250 NA
HETATM   12  C   UNL     1      41.439 -15.050   5.155  1.00  0.00     0.088 A 
HETATM   13  C   UNL     1      42.622 -16.982   3.681  1.00  0.00     0.055 A 
HETATM   14  C   UNL     1      43.257 -18.051   2.846  1.00  0.00     0.072 C 
HETATM   15  C   UNL     1      42.713 -16.973   5.074  1.00  0.00     0.055 A 
HETATM   16  N   UNL     1      42.122 -16.001   5.815  1.00  0.00    -0.250 NA
HETATM   17  C   UNL     1      43.451 -18.036   5.830  1.00  0.00     0.072 C 
HETATM   18  C   UNL     1      40.793 -14.044   5.867  1.00  0.00     0.063 A 
ENDBRANCH   1   7
BRANCH   3  19
HETATM   19  C   UNL     1      41.460  -9.445   7.481  1.00  0.00     0.135 C 
BRANCH  19  20
HETATM   20  C   UNL     1      42.385  -9.611   8.728  1.00  0.00     0.240 C 
BRANCH  20  21
HETATM   21  N   UNL     1      42.107  -8.701   9.921  1.00  0.00    -0.069 N 
HETATM   22  H   UNL     1      43.027  -8.282  10.107  1.00  0.00     0.279 HD
HETATM   23  C   UNL     1      41.206  -7.524   9.701  1.00  0.00     0.270 C 
HETATM   24  C   UNL     1      41.752  -9.446  11.175  1.00  0.00     0.270 C 
ENDBRANCH  20  21
BRANCH  20  25
HETATM   25  C   UNL     1      43.863  -9.656   8.393  1.00  0.00     0.014 A 
HETATM   26  S   UNL     1      44.522 -11.108   7.741  1.00  0.00    -0.104 SA
HETATM   27  C   UNL     1      46.090 -10.442   7.647  1.00  0.00     0.050 A 
HETATM   28  C   UNL     1      46.130  -9.149   8.116  1.00  0.00     0.008 A 
HETATM   29  C   UNL     1      44.850  -8.699   8.549  1.00  0.00     0.017 A 
ENDBRANCH  20  25
ENDBRANCH  19  20
ENDBRANCH   3  19
TORSDOF 5
ENDMDL
MODEL 9
REMARK VINA RESULT:      -7.3      7.045     10.120
REMARK  5 active torsions:
REMARK  status: ('A' for Active; 'I' for Inactive)
REMARK    1  A    between atoms: C_11  and  N_12 
REMARK       I    between atoms: N_12  and  C_13 
REMARK       I    between atoms: C_13  and  N_14 
REMARK    2  A    between atoms: N_14  and  C_15 
REMARK    3  A    between atoms: C_15  and  C_16 
REMARK    4  A    between atoms: C_16  and  N_17 
REMARK    5  A    between atoms: C_16  and  C_21 
ROOT
HETATM    1  N   UNL     1      44.551 -10.482   7.944  1.00  0.00    -0.314 N 
HETATM    2  C   UNL     1      44.610 -11.679   7.311  1.00  0.00     0.298 C 
HETATM    3  N   UNL     1      43.648 -12.605   7.565  1.00  0.00    -0.242 NA
HETATM    4  O   UNL     1      45.501 -11.881   6.489  1.00  0.00    -0.254 OA
HETATM    5  H   UNL     1      45.376  -9.931   7.722  1.00  0.00     0.170 HD
HETATM    6  H   UNL     1      43.440 -12.633   8.557  1.00  0.00     0.132 HD
ENDROOT
BRANCH   1   7
HETATM    7  C   UNL     1      43.579  -9.815   8.718  1.00  0.00     0.038 A 
HETATM    8  C   UNL     1      42.308  -9.453   8.290  1.00  0.00     0.032 A 
HETATM    9  C   UNL     1      41.454  -8.739   9.140  1.00  0.00     0.036 A 
HETATM   10  C   UNL     1      41.848  -8.358  10.413  1.00  0.00     0.086 A 
HETATM   11  N   UNL     1      41.010  -7.643  11.180  1.00  0.00    -0.250 NA
HETATM   12  C   UNL     1      43.134  -8.718  10.860  1.00  0.00     0.088 A 
HETATM   13  C   UNL     1      41.455  -7.274  12.409  1.00  0.00     0.055 A 
HETATM   14  C   UNL     1      40.513  -6.462  13.245  1.00  0.00     0.072 C 
HETATM   15  C   UNL     1      42.730  -7.626  12.853  1.00  0.00     0.055 A 
HETATM   16  N   UNL     1      43.573  -8.355  12.077  1.00  0.00    -0.250 NA
HETATM   17  C   UNL     1      43.246  -7.212  14.198  1.00  0.00     0.072 C 
HETATM   18  C   UNL     1      43.966  -9.444  10.014  1.00  0.00     0.063 A 
ENDBRANCH   1   7
BRANCH   3  19
HETATM   19  C   UNL     1      43.709 -13.924   6.937  1.00  0.00     0.135 C 
BRANCH  19  20
HETATM   20  C   UNL     1      42.767 -14.212   5.725  1.00  0.00     0.240 C 
BRANCH  20  21
HETATM   21  N   UNL     1      41.266 -14.074   5.968  1.00  0.00    -0.069 N 
HETATM   22  H   UNL     1      41.223 -13.422   6.761  1.00  0.00     0.279 HD
HETATM   23  C   UNL     1      40.449 -13.411   4.902  1.00  0.00     0.270 C 
HETATM   24  C   UNL     1      40.620 -15.337   6.460  1.00  0.00     0.270 C 
ENDBRANCH  20  21
BRANCH  20  25
HETATM   25  C   UNL     1      43.096 -15.493   4.983  1.00  0.00     0.014 A 
HETATM   26  S   UNL     1      43.996 -16.715   5.798  1.00  0.00    -0.104 SA
HETATM   27  C   UNL     1      43.977 -17.741   4.436  1.00  0.00     0.050 A 
HETATM   28  C   UNL     1      43.320 -17.171   3.370  1.00  0.00     0.008 A 
HETATM   29  C   UNL     1      42.818 -15.876   3.684  1.00  0.00     0.017 A 
ENDBRANCH  20  25
ENDBRANCH  19  20
ENDBRANCH   3  19
TORSDOF 5
ENDMDL
MODEL 10
REMARK VINA RESULT:      -7.3      6.124      8.959
REMARK  5 active torsions:
REMARK  status: ('A' for Active; 'I' for Inactive)
REMARK    1  A    between atoms: C_11  and  N_12 
REMARK       I    between atoms: N_12  and  C_13 
REMARK       I    between atoms: C_13  and  N_14 
REMARK    2  A    between atoms: N_14  and  C_15 
REMARK    3  A    between atoms: C_15  and  C_16 
REMARK    4  A    between atoms: C_16  and  N_17 
REMARK    5  A    between atoms: C_16  and  C_21 
ROOT
HETATM    1  N   UNL     1      44.604 -10.597   6.903  1.00  0.00    -0.314 N 
HETATM    2  C   UNL     1      44.289 -11.711   6.198  1.00  0.00     0.298 C 
HETATM    3  N   UNL     1      43.862 -12.814   6.870  1.00  0.00    -0.242 NA
HETATM    4  O   UNL     1      44.350 -11.684   4.971  1.00  0.00    -0.254 OA
HETATM    5  H   UNL     1      44.985  -9.889   6.280  1.00  0.00     0.170 HD
HETATM    6  H   UNL     1      44.420 -12.954   7.704  1.00  0.00     0.132 HD
ENDROOT
BRANCH   1   7
HETATM    7  C   UNL     1      44.417 -10.179   8.237  1.00  0.00     0.038 A 
HETATM    8  C   UNL     1      45.408 -10.083   9.205  1.00  0.00     0.032 A 
HETATM    9  C   UNL     1      45.082  -9.708  10.515  1.00  0.00     0.036 A 
HETATM   10  C   UNL     1      43.775  -9.442  10.889  1.00  0.00     0.086 A 
HETATM   11  N   UNL     1      43.503  -9.122  12.165  1.00  0.00    -0.250 NA
HETATM   12  C   UNL     1      42.759  -9.536   9.919  1.00  0.00     0.088 A 
HETATM   13  C   UNL     1      42.203  -8.896  12.484  1.00  0.00     0.055 A 
HETATM   14  C   UNL     1      41.915  -8.558  13.915  1.00  0.00     0.072 C 
HETATM   15  C   UNL     1      41.194  -8.992  11.525  1.00  0.00     0.055 A 
HETATM   16  N   UNL     1      41.473  -9.309  10.235  1.00  0.00    -0.250 NA
HETATM   17  C   UNL     1      39.751  -8.764  11.862  1.00  0.00     0.072 C 
HETATM   18  C   UNL     1      43.098  -9.890   8.616  1.00  0.00     0.063 A 
ENDBRANCH   1   7
BRANCH   3  19
HETATM   19  C   UNL     1      43.562 -14.049   6.146  1.00  0.00     0.135 C 
BRANCH  19  20
HETATM   20  C   UNL     1      42.552 -13.983   4.957  1.00  0.00     0.240 C 
BRANCH  20  21
HETATM   21  N   UNL     1      41.067 -13.974   5.312  1.00  0.00    -0.069 N 
HETATM   22  H   UNL     1      40.625 -14.311   4.447  1.00  0.00     0.279 HD
HETATM   23  C   UNL     1      40.600 -14.936   6.362  1.00  0.00     0.270 C 
HETATM   24  C   UNL     1      40.510 -12.597   5.530  1.00  0.00     0.270 C 
ENDBRANCH  20  21
BRANCH  20  25
HETATM   25  C   UNL     1      42.853 -14.965   3.842  1.00  0.00     0.014 A 
HETATM   26  S   UNL     1      43.031 -14.367   2.236  1.00  0.00    -0.104 SA
HETATM   27  C   UNL     1      43.318 -15.927   1.607  1.00  0.00     0.050 A 
HETATM   28  C   UNL     1      43.264 -16.894   2.584  1.00  0.00     0.008 A 
HETATM   29  C   UNL     1      42.992 -16.341   3.868  1.00  0.00     0.017 A 
ENDBRANCH  20  25
ENDBRANCH  19  20
ENDBRANCH   3  19
TORSDOF 5
ENDMDL
