MODEL 1
REMARK VINA RESULT:      -9.6      0.000      0.000
REMARK  7 active torsions:
REMARK  status: ('A' for Active; 'I' for Inactive)
REMARK    1  A    between atoms: C_7  and  C_8 
REMARK    2  A    between atoms: C_8  and  C_9 
REMARK       I    between atoms: C_9  and  N_10 
REMARK    3  A    between atoms: N_10  and  N_11 
REMARK       I    between atoms: N_11  and  C_12 
REMARK    4  A    between atoms: C_12  and  C_13 
REMARK    5  A    between atoms: C_23  and  O_24 
REMARK    6  A    between atoms: O_24  and  C_25 
REMARK    7  A    between atoms: C_25  and  C_26 
ROOT
HETATM    1  C   UNL     1      42.071  -9.746   5.686  1.00  0.00     0.068 C 
HETATM    2  C   UNL     1      42.174 -11.228   5.733  1.00  0.00     0.013 A 
HETATM    3  N   UNL     1      41.176 -12.031   5.241  1.00  0.00    -0.359 N 
HETATM    4  H   UNL     1      40.317 -11.703   4.821  1.00  0.00     0.166 HD
HETATM    5  C   UNL     1      41.507 -13.357   5.387  1.00  0.00     0.043 A 
HETATM    6  C   UNL     1      42.756 -13.403   6.002  1.00  0.00     0.002 A 
HETATM    7  C   UNL     1      43.172 -12.051   6.232  1.00  0.00    -0.015 A 
HETATM    8  C   UNL     1      40.801 -14.508   5.023  1.00  0.00     0.033 A 
HETATM    9  C   UNL     1      41.393 -15.750   5.286  1.00  0.00     0.039 A 
HETATM   10  C   UNL     1      42.645 -15.837   5.891  1.00  0.00     0.070 A 
HETATM   11  C   UNL     1      43.326 -14.668   6.259  1.00  0.00     0.051 A 
ENDROOT
BRANCH   7  12
HETATM   12  C   UNL     1      44.451 -11.614   6.880  1.00  0.00     0.146 C 
BRANCH  12  13
HETATM   13  C   UNL     1      44.259 -10.615   8.006  1.00  0.00     0.240 C 
HETATM   14  N   UNL     1      43.425 -11.010   9.035  1.00  0.00    -0.267 N 
HETATM   15  H   UNL     1      42.713 -11.731   8.894  1.00  0.00     0.190 HD
HETATM   16  O   UNL     1      44.878  -9.548   8.051  1.00  0.00    -0.272 OA
BRANCH  14  17
HETATM   17  N   UNL     1      43.151 -10.063  10.035  1.00  0.00    -0.263 N 
HETATM   18  C   UNL     1      43.373 -10.426  11.349  1.00  0.00     0.270 C 
HETATM   19  O   UNL     1      43.895 -11.491  11.665  1.00  0.00    -0.266 OA
HETATM   20  H   UNL     1      42.483  -9.342   9.768  1.00  0.00     0.190 HD
BRANCH  18  21
HETATM   21  C   UNL     1      42.921  -9.465  12.393  1.00  0.00     0.036 A 
HETATM   22  C   UNL     1      41.871  -9.850  13.230  1.00  0.00     0.036 A 
HETATM   23  C   UNL     1      41.453  -8.963  14.203  1.00  0.00     0.117 A 
HETATM   24  N   UNL     1      42.008  -7.747  14.395  1.00  0.00    -0.273 NA
HETATM   25  C   UNL     1      43.032  -7.406  13.586  1.00  0.00     0.117 A 
HETATM   26  C   UNL     1      43.526  -8.221  12.582  1.00  0.00     0.036 A 
ENDBRANCH  18  21
ENDBRANCH  14  17
ENDBRANCH  12  13
ENDBRANCH   7  12
BRANCH  10  27
HETATM   27  O   UNL     1      43.320 -16.994   6.180  1.00  0.00    -0.347 OA
BRANCH  27  28
HETATM   28  C   UNL     1      44.442 -17.317   5.356  1.00  0.00     0.214 C 
BRANCH  28  29
HETATM   29  C   UNL     1      44.081 -18.376   4.335  1.00  0.00    -0.034 A 
HETATM   30  C   UNL     1      44.236 -19.745   4.596  1.00  0.00     0.009 A 
HETATM   31  C   UNL     1      43.864 -20.697   3.643  1.00  0.00     0.001 A 
HETATM   32  C   UNL     1      43.321 -20.293   2.426  1.00  0.00     0.000 A 
HETATM   33  C   UNL     1      43.147 -18.938   2.159  1.00  0.00     0.001 A 
HETATM   34  C   UNL     1      43.520 -17.984   3.109  1.00  0.00     0.009 A 
ENDBRANCH  28  29
ENDBRANCH  27  28
ENDBRANCH  10  27
TORSDOF 7
ENDMDL
MODEL 2
REMARK VINA RESULT:      -9.5      4.227      8.464
REMARK  7 active torsions:
REMARK  status: ('A' for Active; 'I' for Inactive)
REMARK    1  A    between atoms: C_7  and  C_8 
REMARK    2  A    between atoms: C_8  and  C_9 
REMARK       I    between atoms: C_9  and  N_10 
REMARK    3  A    between atoms: N_10  and  N_11 
REMARK       I    between atoms: N_11  and  C_12 
REMARK    4  A    between atoms: C_12  and  C_13 
REMARK    5  A    between atoms: C_23  and  O_24 
REMARK    6  A    between atoms: O_24  and  C_25 
REMARK    7  A    between atoms: C_25  and  C_26 
ROOT
HETATM    1  C   UNL     1      40.893  -9.686   6.108  1.00  0.00     0.068 C 
HETATM    2  C   UNL     1      41.418 -11.076   6.084  1.00  0.00     0.013 A 
HETATM    3  N   UNL     1      42.703 -11.364   6.470  1.00  0.00    -0.359 N 
HETATM    4  H   UNL     1      43.381 -10.686   6.792  1.00  0.00     0.166 HD
HETATM    5  C   UNL     1      42.948 -12.713   6.371  1.00  0.00     0.043 A 
HETATM    6  C   UNL     1      41.782 -13.307   5.896  1.00  0.00     0.002 A 
HETATM    7  C   UNL     1      40.816 -12.266   5.703  1.00  0.00    -0.015 A 
HETATM    8  C   UNL     1      44.104 -13.443   6.665  1.00  0.00     0.033 A 
HETATM    9  C   UNL     1      44.066 -14.831   6.477  1.00  0.00     0.039 A 
HETATM   10  C   UNL     1      42.915 -15.464   6.012  1.00  0.00     0.070 A 
HETATM   11  C   UNL     1      41.773 -14.706   5.712  1.00  0.00     0.051 A 
ENDROOT
BRANCH   7  12
HETATM   12  C   UNL     1      39.416 -12.436   5.195  1.00  0.00     0.146 C 
BRANCH  12  13
HETATM   13  C   UNL     1      39.289 -12.313   3.687  1.00  0.00     0.240 C 
HETATM   14  N   UNL     1      39.029 -13.484   3.001  1.00  0.00    -0.267 N 
HETATM   15  H   UNL     1      39.263 -14.396   3.398  1.00  0.00     0.190 HD
HETATM   16  O   UNL     1      39.328 -11.222   3.112  1.00  0.00    -0.272 OA
BRANCH  14  17
HETATM   17  N   UNL     1      39.011 -13.411   1.598  1.00  0.00    -0.263 N 
HETATM   18  C   UNL     1      40.117 -13.874   0.912  1.00  0.00     0.270 C 
HETATM   19  O   UNL     1      41.055 -14.438   1.468  1.00  0.00    -0.266 OA
HETATM   20  H   UNL     1      38.379 -12.710   1.215  1.00  0.00     0.190 HD
BRANCH  18  21
HETATM   21  C   UNL     1      40.140 -13.636  -0.558  1.00  0.00     0.036 A 
HETATM   22  C   UNL     1      39.447 -14.529  -1.379  1.00  0.00     0.036 A 
HETATM   23  C   UNL     1      39.462 -14.308  -2.743  1.00  0.00     0.117 A 
HETATM   24  N   UNL     1      40.104 -13.274  -3.326  1.00  0.00    -0.273 NA
HETATM   25  C   UNL     1      40.752 -12.416  -2.510  1.00  0.00     0.117 A 
HETATM   26  C   UNL     1      40.797 -12.547  -1.133  1.00  0.00     0.036 A 
ENDBRANCH  18  21
ENDBRANCH  14  17
ENDBRANCH  12  13
ENDBRANCH   7  12
BRANCH  10  27
HETATM   27  O   UNL     1      42.764 -16.810   5.808  1.00  0.00    -0.347 OA
BRANCH  27  28
HETATM   28  C   UNL     1      43.953 -17.577   5.612  1.00  0.00     0.214 C 
BRANCH  28  29
HETATM   29  C   UNL     1      43.787 -18.553   4.464  1.00  0.00    -0.034 A 
HETATM   30  C   UNL     1      43.439 -18.131   3.173  1.00  0.00     0.009 A 
HETATM   31  C   UNL     1      43.324 -19.054   2.130  1.00  0.00     0.001 A 
HETATM   32  C   UNL     1      43.569 -20.405   2.363  1.00  0.00     0.000 A 
HETATM   33  C   UNL     1      43.931 -20.837   3.636  1.00  0.00     0.001 A 
HETATM   34  C   UNL     1      44.043 -19.916   4.680  1.00  0.00     0.009 A 
ENDBRANCH  28  29
ENDBRANCH  27  28
ENDBRANCH  10  27
TORSDOF 7
ENDMDL
MODEL 3
REMARK VINA RESULT:      -9.5      3.940      6.435
REMARK  7 active torsions:
REMARK  status: ('A' for Active; 'I' for Inactive)
REMARK    1  A    between atoms: C_7  and  C_8 
REMARK    2  A    between atoms: C_8  and  C_9 
REMARK       I    between atoms: C_9  and  N_10 
REMARK    3  A    between atoms: N_10  and  N_11 
REMARK       I    between atoms: N_11  and  C_12 
REMARK    4  A    between atoms: C_12  and  C_13 
REMARK    5  A    between atoms: C_23  and  O_24 
REMARK    6  A    between atoms: O_24  and  C_25 
REMARK    7  A    between atoms: C_25  and  C_26 
ROOT
HETATM    1  C   UNL     1      43.594 -18.985   6.462  1.00  0.00     0.068 C 
HETATM    2  C   UNL     1      43.225 -17.978   5.433  1.00  0.00     0.013 A 
HETATM    3  N   UNL     1      43.651 -18.091   4.133  1.00  0.00    -0.359 N 
HETATM    4  H   UNL     1      44.231 -18.837   3.773  1.00  0.00     0.166 HD
HETATM    5  C   UNL     1      43.172 -17.050   3.375  1.00  0.00     0.043 A 
HETATM    6  C   UNL     1      42.420 -16.238   4.220  1.00  0.00     0.002 A 
HETATM    7  C   UNL     1      42.465 -16.822   5.528  1.00  0.00    -0.015 A 
HETATM    8  C   UNL     1      43.345 -16.771   2.015  1.00  0.00     0.033 A 
HETATM    9  C   UNL     1      42.722 -15.629   1.497  1.00  0.00     0.039 A 
HETATM   10  C   UNL     1      41.954 -14.796   2.309  1.00  0.00     0.070 A 
HETATM   11  C   UNL     1      41.808 -15.091   3.672  1.00  0.00     0.051 A 
ENDROOT
BRANCH   7  12
HETATM   12  C   UNL     1      41.804 -16.286   6.763  1.00  0.00     0.146 C 
BRANCH  12  13
HETATM   13  C   UNL     1      42.594 -15.191   7.457  1.00  0.00     0.240 C 
HETATM   14  N   UNL     1      42.455 -13.918   6.937  1.00  0.00    -0.267 N 
HETATM   15  H   UNL     1      42.158 -13.768   5.970  1.00  0.00     0.190 HD
HETATM   16  O   UNL     1      43.252 -15.403   8.479  1.00  0.00    -0.272 OA
BRANCH  14  17
HETATM   17  N   UNL     1      43.255 -12.908   7.497  1.00  0.00    -0.263 N 
HETATM   18  C   UNL     1      43.368 -11.716   6.810  1.00  0.00     0.270 C 
HETATM   19  O   UNL     1      42.719 -11.468   5.797  1.00  0.00    -0.266 OA
HETATM   20  H   UNL     1      43.966 -13.239   8.147  1.00  0.00     0.190 HD
BRANCH  18  21
HETATM   21  C   UNL     1      44.348 -10.729   7.341  1.00  0.00     0.036 A 
HETATM   22  C   UNL     1      45.706 -10.964   7.116  1.00  0.00     0.036 A 
HETATM   23  C   UNL     1      46.618 -10.047   7.603  1.00  0.00     0.117 A 
HETATM   24  N   UNL     1      46.269  -8.932   8.279  1.00  0.00    -0.273 NA
HETATM   25  C   UNL     1      44.950  -8.718   8.468  1.00  0.00     0.117 A 
HETATM   26  C   UNL     1      43.958  -9.573   8.021  1.00  0.00     0.036 A 
ENDBRANCH  18  21
ENDBRANCH  14  17
ENDBRANCH  12  13
ENDBRANCH   7  12
BRANCH  10  27
HETATM   27  O   UNL     1      41.292 -13.667   1.906  1.00  0.00    -0.347 OA
BRANCH  27  28
HETATM   28  C   UNL     1      40.062 -13.849   1.202  1.00  0.00     0.214 C 
BRANCH  28  29
HETATM   29  C   UNL     1      40.213 -13.484  -0.261  1.00  0.00    -0.034 A 
HETATM   30  C   UNL     1      40.874 -12.318  -0.673  1.00  0.00     0.009 A 
HETATM   31  C   UNL     1      41.022 -12.026  -2.031  1.00  0.00     0.001 A 
HETATM   32  C   UNL     1      40.524 -12.901  -2.992  1.00  0.00     0.000 A 
HETATM   33  C   UNL     1      39.878 -14.071  -2.599  1.00  0.00     0.001 A 
HETATM   34  C   UNL     1      39.727 -14.363  -1.242  1.00  0.00     0.009 A 
ENDBRANCH  28  29
ENDBRANCH  27  28
ENDBRANCH  10  27
TORSDOF 7
ENDMDL
MODEL 4
REMARK VINA RESULT:      -9.3      4.623      8.396
REMARK  7 active torsions:
REMARK  status: ('A' for Active; 'I' for Inactive)
REMARK    1  A    between atoms: C_7  and  C_8 
REMARK    2  A    between atoms: C_8  and  C_9 
REMARK       I    between atoms: C_9  and  N_10 
REMARK    3  A    between atoms: N_10  and  N_11 
REMARK       I    between atoms: N_11  and  C_12 
REMARK    4  A    between atoms: C_12  and  C_13 
REMARK    5  A    between atoms: C_23  and  O_24 
REMARK    6  A    between atoms: O_24  and  C_25 
REMARK    7  A    between atoms: C_25  and  C_26 
ROOT
HETATM    1  C   UNL     1      39.277 -10.653   6.621  1.00  0.00     0.068 C 
HETATM    2  C   UNL     1      40.103 -11.820   6.214  1.00  0.00     0.013 A 
HETATM    3  N   UNL     1      39.904 -13.064   6.758  1.00  0.00    -0.359 N 
HETATM    4  H   UNL     1      39.209 -13.290   7.456  1.00  0.00     0.166 HD
HETATM    5  C   UNL     1      40.778 -13.975   6.215  1.00  0.00     0.043 A 
HETATM    6  C   UNL     1      41.570 -13.288   5.298  1.00  0.00     0.002 A 
HETATM    7  C   UNL     1      41.148 -11.918   5.307  1.00  0.00    -0.015 A 
HETATM    8  C   UNL     1      40.924 -15.343   6.464  1.00  0.00     0.033 A 
HETATM    9  C   UNL     1      41.906 -16.038   5.746  1.00  0.00     0.039 A 
HETATM   10  C   UNL     1      42.712 -15.387   4.813  1.00  0.00     0.070 A 
HETATM   11  C   UNL     1      42.554 -14.011   4.592  1.00  0.00     0.051 A 
ENDROOT
BRANCH   7  12
HETATM   12  C   UNL     1      41.724 -10.806   4.483  1.00  0.00     0.146 C 
BRANCH  12  13
HETATM   13  C   UNL     1      41.536 -10.988   2.988  1.00  0.00     0.240 C 
HETATM   14  N   UNL     1      40.262 -11.326   2.571  1.00  0.00    -0.267 N 
HETATM   15  H   UNL     1      39.598 -11.776   3.205  1.00  0.00     0.190 HD
HETATM   16  O   UNL     1      42.441 -10.761   2.179  1.00  0.00    -0.272 OA
BRANCH  14  17
HETATM   17  N   UNL     1      40.089 -11.601   1.204  1.00  0.00    -0.263 N 
HETATM   18  C   UNL     1      40.043 -12.925   0.811  1.00  0.00     0.270 C 
HETATM   19  O   UNL     1      40.039 -13.856   1.612  1.00  0.00    -0.266 OA
HETATM   20  H   UNL     1      40.375 -10.851   0.579  1.00  0.00     0.190 HD
BRANCH  18  21
HETATM   21  C   UNL     1      40.023 -13.186  -0.654  1.00  0.00     0.036 A 
HETATM   22  C   UNL     1      40.713 -12.305  -1.489  1.00  0.00     0.036 A 
HETATM   23  C   UNL     1      40.701 -12.547  -2.849  1.00  0.00     0.117 A 
HETATM   24  N   UNL     1      40.064 -13.593  -3.416  1.00  0.00    -0.273 NA
HETATM   25  C   UNL     1      39.418 -14.441  -2.587  1.00  0.00     0.117 A 
HETATM   26  C   UNL     1      39.371 -14.287  -1.213  1.00  0.00     0.036 A 
ENDBRANCH  18  21
ENDBRANCH  14  17
ENDBRANCH  12  13
ENDBRANCH   7  12
BRANCH  10  27
HETATM   27  O   UNL     1      43.688 -15.970   4.049  1.00  0.00    -0.347 OA
BRANCH  27  28
HETATM   28  C   UNL     1      43.261 -16.755   2.934  1.00  0.00     0.214 C 
BRANCH  28  29
HETATM   29  C   UNL     1      43.520 -18.228   3.175  1.00  0.00    -0.034 A 
HETATM   30  C   UNL     1      44.026 -18.705   4.393  1.00  0.00     0.009 A 
HETATM   31  C   UNL     1      44.225 -20.074   4.593  1.00  0.00     0.001 A 
HETATM   32  C   UNL     1      43.909 -20.981   3.585  1.00  0.00     0.000 A 
HETATM   33  C   UNL     1      43.392 -20.523   2.376  1.00  0.00     0.001 A 
HETATM   34  C   UNL     1      43.195 -19.156   2.173  1.00  0.00     0.009 A 
ENDBRANCH  28  29
ENDBRANCH  27  28
ENDBRANCH  10  27
TORSDOF 7
ENDMDL
MODEL 5
REMARK VINA RESULT:      -9.1      2.694     10.253
REMARK  7 active torsions:
REMARK  status: ('A' for Active; 'I' for Inactive)
REMARK    1  A    between atoms: C_7  and  C_8 
REMARK    2  A    between atoms: C_8  and  C_9 
REMARK       I    between atoms: C_9  and  N_10 
REMARK    3  A    between atoms: N_10  and  N_11 
REMARK       I    between atoms: N_11  and  C_12 
REMARK    4  A    between atoms: C_12  and  C_13 
REMARK    5  A    between atoms: C_23  and  O_24 
REMARK    6  A    between atoms: O_24  and  C_25 
REMARK    7  A    between atoms: C_25  and  C_26 
ROOT
HETATM    1  C   UNL     1      43.291 -12.620   3.062  1.00  0.00     0.068 C 
HETATM    2  C   UNL     1      43.667 -12.192   4.434  1.00  0.00     0.013 A 
HETATM    3  N   UNL     1      44.854 -11.549   4.685  1.00  0.00    -0.359 N 
HETATM    4  H   UNL     1      45.551 -11.320   3.989  1.00  0.00     0.166 HD
HETATM    5  C   UNL     1      44.967 -11.246   6.020  1.00  0.00     0.043 A 
HETATM    6  C   UNL     1      43.817 -11.718   6.647  1.00  0.00     0.002 A 
HETATM    7  C   UNL     1      42.998 -12.329   5.642  1.00  0.00    -0.015 A 
HETATM    8  C   UNL     1      45.992 -10.593   6.713  1.00  0.00     0.033 A 
HETATM    9  C   UNL     1      45.834 -10.407   8.092  1.00  0.00     0.039 A 
HETATM   10  C   UNL     1      44.693 -10.857   8.754  1.00  0.00     0.070 A 
HETATM   11  C   UNL     1      43.687 -11.521   8.039  1.00  0.00     0.051 A 
ENDROOT
BRANCH   7  12
HETATM   12  C   UNL     1      41.666 -12.982   5.856  1.00  0.00     0.146 C 
BRANCH  12  13
HETATM   13  C   UNL     1      41.582 -14.399   5.317  1.00  0.00     0.240 C 
HETATM   14  N   UNL     1      42.617 -15.245   5.668  1.00  0.00    -0.267 N 
HETATM   15  H   UNL     1      43.532 -14.880   5.943  1.00  0.00     0.190 HD
HETATM   16  O   UNL     1      40.607 -14.802   4.678  1.00  0.00    -0.272 OA
BRANCH  14  17
HETATM   17  N   UNL     1      42.614 -16.529   5.097  1.00  0.00    -0.263 N 
HETATM   18  C   UNL     1      43.804 -17.229   5.071  1.00  0.00     0.270 C 
HETATM   19  O   UNL     1      44.826 -16.822   5.618  1.00  0.00    -0.266 OA
HETATM   20  H   UNL     1      41.861 -16.697   4.432  1.00  0.00     0.190 HD
BRANCH  18  21
HETATM   21  C   UNL     1      43.809 -18.512   4.317  1.00  0.00     0.036 A 
HETATM   22  C   UNL     1      44.017 -19.694   5.032  1.00  0.00     0.036 A 
HETATM   23  C   UNL     1      44.017 -20.887   4.336  1.00  0.00     0.117 A 
HETATM   24  N   UNL     1      43.820 -20.976   3.003  1.00  0.00    -0.273 NA
HETATM   25  C   UNL     1      43.604 -19.822   2.338  1.00  0.00     0.117 A 
HETATM   26  C   UNL     1      43.584 -18.576   2.941  1.00  0.00     0.036 A 
ENDBRANCH  18  21
ENDBRANCH  14  17
ENDBRANCH  12  13
ENDBRANCH   7  12
BRANCH  10  27
HETATM   27  O   UNL     1      44.431 -10.716  10.091  1.00  0.00    -0.347 OA
BRANCH  27  28
HETATM   28  C   UNL     1      44.499  -9.396  10.633  1.00  0.00     0.214 C 
BRANCH  28  29
HETATM   29  C   UNL     1      43.540  -9.234  11.794  1.00  0.00    -0.034 A 
HETATM   30  C   UNL     1      43.596  -8.130  12.658  1.00  0.00     0.009 A 
HETATM   31  C   UNL     1      42.677  -7.996  13.701  1.00  0.00     0.001 A 
HETATM   32  C   UNL     1      41.685  -8.956  13.887  1.00  0.00     0.000 A 
HETATM   33  C   UNL     1      41.608 -10.050  13.029  1.00  0.00     0.001 A 
HETATM   34  C   UNL     1      42.527 -10.186  11.986  1.00  0.00     0.009 A 
ENDBRANCH  28  29
ENDBRANCH  27  28
ENDBRANCH  10  27
TORSDOF 7
ENDMDL
MODEL 6
REMARK VINA RESULT:      -8.6     18.035     19.362
REMARK  7 active torsions:
REMARK  status: ('A' for Active; 'I' for Inactive)
REMARK    1  A    between atoms: C_7  and  C_8 
REMARK    2  A    between atoms: C_8  and  C_9 
REMARK       I    between atoms: C_9  and  N_10 
REMARK    3  A    between atoms: N_10  and  N_11 
REMARK       I    between atoms: N_11  and  C_12 
REMARK    4  A    between atoms: C_12  and  C_13 
REMARK    5  A    between atoms: C_23  and  O_24 
REMARK    6  A    between atoms: O_24  and  C_25 
REMARK    7  A    between atoms: C_25  and  C_26 
ROOT
HETATM    1  C   UNL     1      50.695 -30.748   2.959  1.00  0.00     0.068 C 
HETATM    2  C   UNL     1      49.727 -30.172   1.989  1.00  0.00     0.013 A 
HETATM    3  N   UNL     1      50.015 -30.096   0.649  1.00  0.00    -0.359 N 
HETATM    4  H   UNL     1      50.875 -30.410   0.219  1.00  0.00     0.166 HD
HETATM    5  C   UNL     1      48.965 -29.540  -0.040  1.00  0.00     0.043 A 
HETATM    6  C   UNL     1      47.974 -29.241   0.891  1.00  0.00     0.002 A 
HETATM    7  C   UNL     1      48.464 -29.632   2.180  1.00  0.00    -0.015 A 
HETATM    8  C   UNL     1      48.819 -29.283  -1.407  1.00  0.00     0.033 A 
HETATM    9  C   UNL     1      47.617 -28.709  -1.841  1.00  0.00     0.039 A 
HETATM   10  C   UNL     1      46.598 -28.405  -0.940  1.00  0.00     0.070 A 
HETATM   11  C   UNL     1      46.775 -28.660   0.427  1.00  0.00     0.051 A 
ENDROOT
BRANCH   7  12
HETATM   12  C   UNL     1      47.741 -29.492   3.486  1.00  0.00     0.146 C 
BRANCH  12  13
HETATM   13  C   UNL     1      46.521 -30.386   3.612  1.00  0.00     0.240 C 
HETATM   14  N   UNL     1      45.296 -29.771   3.436  1.00  0.00    -0.267 N 
HETATM   15  H   UNL     1      45.181 -28.765   3.577  1.00  0.00     0.190 HD
HETATM   16  O   UNL     1      46.614 -31.606   3.773  1.00  0.00    -0.272 OA
BRANCH  14  17
HETATM   17  N   UNL     1      44.150 -30.556   3.650  1.00  0.00    -0.263 N 
HETATM   18  C   UNL     1      43.009 -30.246   2.936  1.00  0.00     0.270 C 
HETATM   19  O   UNL     1      42.990 -29.392   2.054  1.00  0.00    -0.266 OA
HETATM   20  H   UNL     1      44.124 -31.035   4.548  1.00  0.00     0.190 HD
BRANCH  18  21
HETATM   21  C   UNL     1      41.770 -30.986   3.301  1.00  0.00     0.036 A 
HETATM   22  C   UNL     1      41.396 -31.017   4.646  1.00  0.00     0.036 A 
HETATM   23  C   UNL     1      40.243 -31.699   4.987  1.00  0.00     0.117 A 
HETATM   24  N   UNL     1      39.455 -32.332   4.092  1.00  0.00    -0.273 NA
HETATM   25  C   UNL     1      39.829 -32.272   2.797  1.00  0.00     0.117 A 
HETATM   26  C   UNL     1      40.964 -31.616   2.351  1.00  0.00     0.036 A 
ENDBRANCH  18  21
ENDBRANCH  14  17
ENDBRANCH  12  13
ENDBRANCH   7  12
BRANCH  10  27
HETATM   27  O   UNL     1      45.382 -27.859  -1.256  1.00  0.00    -0.347 OA
BRANCH  27  28
HETATM   28  C   UNL     1      44.247 -28.725  -1.211  1.00  0.00     0.214 C 
BRANCH  28  29
HETATM   29  C   UNL     1      44.207 -29.633  -2.423  1.00  0.00    -0.034 A 
HETATM   30  C   UNL     1      44.167 -29.128  -3.731  1.00  0.00     0.009 A 
HETATM   31  C   UNL     1      44.162 -29.993  -4.828  1.00  0.00     0.001 A 
HETATM   32  C   UNL     1      44.211 -31.371  -4.631  1.00  0.00     0.000 A 
HETATM   33  C   UNL     1      44.266 -31.887  -3.339  1.00  0.00     0.001 A 
HETATM   34  C   UNL     1      44.268 -31.024  -2.242  1.00  0.00     0.009 A 
ENDBRANCH  28  29
ENDBRANCH  27  28
ENDBRANCH  10  27
TORSDOF 7
ENDMDL
MODEL 7
REMARK VINA RESULT:      -8.6      2.927      4.365
REMARK  7 active torsions:
REMARK  status: ('A' for Active; 'I' for Inactive)
REMARK    1  A    between atoms: C_7  and  C_8 
REMARK    2  A    between atoms: C_8  and  C_9 
REMARK       I    between atoms: C_9  and  N_10 
REMARK    3  A    between atoms: N_10  and  N_11 
REMARK       I    between atoms: N_11  and  C_12 
REMARK    4  A    between atoms: C_12  and  C_13 
REMARK    5  A    between atoms: C_23  and  O_24 
REMARK    6  A    between atoms: O_24  and  C_25 
REMARK    7  A    between atoms: C_25  and  C_26 
ROOT
HETATM    1  C   UNL     1      38.326 -10.219   3.404  1.00  0.00     0.068 C 
HETATM    2  C   UNL     1      38.955 -11.492   2.964  1.00  0.00     0.013 A 
HETATM    3  N   UNL     1      39.135 -11.781   1.635  1.00  0.00    -0.359 N 
HETATM    4  H   UNL     1      38.866 -11.181   0.867  1.00  0.00     0.166 HD
HETATM    5  C   UNL     1      39.744 -13.003   1.484  1.00  0.00     0.043 A 
HETATM    6  C   UNL     1      39.954 -13.518   2.761  1.00  0.00     0.002 A 
HETATM    7  C   UNL     1      39.442 -12.563   3.699  1.00  0.00    -0.015 A 
HETATM    8  C   UNL     1      40.123 -13.684   0.323  1.00  0.00     0.033 A 
HETATM    9  C   UNL     1      40.747 -14.930   0.469  1.00  0.00     0.039 A 
HETATM   10  C   UNL     1      40.983 -15.474   1.730  1.00  0.00     0.070 A 
HETATM   11  C   UNL     1      40.580 -14.777   2.878  1.00  0.00     0.051 A 
ENDROOT
BRANCH   7  12
HETATM   12  C   UNL     1      39.444 -12.695   5.192  1.00  0.00     0.146 C 
BRANCH  12  13
HETATM   13  C   UNL     1      40.412 -11.759   5.892  1.00  0.00     0.240 C 
HETATM   14  N   UNL     1      41.731 -11.834   5.486  1.00  0.00    -0.267 N 
HETATM   15  H   UNL     1      42.103 -12.676   5.039  1.00  0.00     0.190 HD
HETATM   16  O   UNL     1      40.036 -10.916   6.710  1.00  0.00    -0.272 OA
BRANCH  14  17
HETATM   17  N   UNL     1      42.662 -11.052   6.191  1.00  0.00    -0.263 N 
HETATM   18  C   UNL     1      43.559 -11.701   7.017  1.00  0.00     0.270 C 
HETATM   19  O   UNL     1      43.644 -12.925   7.074  1.00  0.00    -0.266 OA
HETATM   20  H   UNL     1      42.383 -10.084   6.334  1.00  0.00     0.190 HD
BRANCH  18  21
HETATM   21  C   UNL     1      44.422 -10.842   7.872  1.00  0.00     0.036 A 
HETATM   22  C   UNL     1      44.062 -10.674   9.211  1.00  0.00     0.036 A 
HETATM   23  C   UNL     1      44.864  -9.881  10.009  1.00  0.00     0.117 A 
HETATM   24  N   UNL     1      45.980  -9.264   9.569  1.00  0.00    -0.273 NA
HETATM   25  C   UNL     1      46.317  -9.455   8.276  1.00  0.00     0.117 A 
HETATM   26  C   UNL     1      45.583 -10.229   7.395  1.00  0.00     0.036 A 
ENDBRANCH  18  21
ENDBRANCH  14  17
ENDBRANCH  12  13
ENDBRANCH   7  12
BRANCH  10  27
HETATM   27  O   UNL     1      41.595 -16.672   1.988  1.00  0.00    -0.347 OA
BRANCH  27  28
HETATM   28  C   UNL     1      42.735 -16.650   2.848  1.00  0.00     0.214 C 
BRANCH  28  29
HETATM   29  C   UNL     1      43.231 -18.053   3.131  1.00  0.00    -0.034 A 
HETATM   30  C   UNL     1      43.847 -18.395   4.344  1.00  0.00     0.009 A 
HETATM   31  C   UNL     1      44.265 -19.706   4.585  1.00  0.00     0.001 A 
HETATM   32  C   UNL     1      44.061 -20.692   3.623  1.00  0.00     0.000 A 
HETATM   33  C   UNL     1      43.438 -20.372   2.420  1.00  0.00     0.001 A 
HETATM   34  C   UNL     1      43.022 -19.061   2.177  1.00  0.00     0.009 A 
ENDBRANCH  28  29
ENDBRANCH  27  28
ENDBRANCH  10  27
TORSDOF 7
ENDMDL
MODEL 8
REMARK VINA RESULT:      -8.4      4.047     10.513
REMARK  7 active torsions:
REMARK  status: ('A' for Active; 'I' for Inactive)
REMARK    1  A    between atoms: C_7  and  C_8 
REMARK    2  A    between atoms: C_8  and  C_9 
REMARK       I    between atoms: C_9  and  N_10 
REMARK    3  A    between atoms: N_10  and  N_11 
REMARK       I    between atoms: N_11  and  C_12 
REMARK    4  A    between atoms: C_12  and  C_13 
REMARK    5  A    between atoms: C_23  and  O_24 
REMARK    6  A    between atoms: O_24  and  C_25 
REMARK    7  A    between atoms: C_25  and  C_26 
ROOT
HETATM    1  C   UNL     1      41.246 -15.962   4.905  1.00  0.00     0.068 C 
HETATM    2  C   UNL     1      41.797 -14.686   5.432  1.00  0.00     0.013 A 
HETATM    3  N   UNL     1      43.087 -14.598   5.890  1.00  0.00    -0.359 N 
HETATM    4  H   UNL     1      43.751 -15.359   5.913  1.00  0.00     0.166 HD
HETATM    5  C   UNL     1      43.364 -13.319   6.311  1.00  0.00     0.043 A 
HETATM    6  C   UNL     1      42.208 -12.566   6.124  1.00  0.00     0.002 A 
HETATM    7  C   UNL     1      41.210 -13.437   5.576  1.00  0.00    -0.015 A 
HETATM    8  C   UNL     1      44.541 -12.778   6.838  1.00  0.00     0.033 A 
HETATM    9  C   UNL     1      44.543 -11.419   7.177  1.00  0.00     0.039 A 
HETATM   10  C   UNL     1      43.409 -10.630   6.995  1.00  0.00     0.070 A 
HETATM   11  C   UNL     1      42.237 -11.200   6.478  1.00  0.00     0.051 A 
ENDROOT
BRANCH   7  12
HETATM   12  C   UNL     1      39.803 -13.064   5.219  1.00  0.00     0.146 C 
BRANCH  12  13
HETATM   13  C   UNL     1      39.599 -12.775   3.743  1.00  0.00     0.240 C 
HETATM   14  N   UNL     1      39.206 -13.846   2.963  1.00  0.00    -0.267 N 
HETATM   15  H   UNL     1      39.390 -14.810   3.252  1.00  0.00     0.190 HD
HETATM   16  O   UNL     1      39.691 -11.636   3.277  1.00  0.00    -0.272 OA
BRANCH  14  17
HETATM   17  N   UNL     1      39.113 -13.627   1.578  1.00  0.00    -0.263 N 
HETATM   18  C   UNL     1      40.051 -14.228   0.763  1.00  0.00     0.270 C 
HETATM   19  O   UNL     1      40.887 -15.023   1.185  1.00  0.00    -0.266 OA
HETATM   20  H   UNL     1      38.616 -12.779   1.313  1.00  0.00     0.190 HD
BRANCH  18  21
HETATM   21  C   UNL     1      40.027 -13.850  -0.677  1.00  0.00     0.036 A 
HETATM   22  C   UNL     1      39.250 -14.618  -1.546  1.00  0.00     0.036 A 
HETATM   23  C   UNL     1      39.221 -14.267  -2.881  1.00  0.00     0.117 A 
HETATM   24  N   UNL     1      39.897 -13.217  -3.393  1.00  0.00    -0.273 NA
HETATM   25  C   UNL     1      40.627 -12.479  -2.531  1.00  0.00     0.117 A 
HETATM   26  C   UNL     1      40.722 -12.747  -1.176  1.00  0.00     0.036 A 
ENDBRANCH  18  21
ENDBRANCH  14  17
ENDBRANCH  12  13
ENDBRANCH   7  12
BRANCH  10  27
HETATM   27  O   UNL     1      43.306  -9.293   7.276  1.00  0.00    -0.347 OA
BRANCH  27  28
HETATM   28  C   UNL     1      44.022  -8.809   8.413  1.00  0.00     0.214 C 
BRANCH  28  29
HETATM   29  C   UNL     1      43.375  -9.272   9.702  1.00  0.00    -0.034 A 
HETATM   30  C   UNL     1      44.060 -10.061  10.638  1.00  0.00     0.009 A 
HETATM   31  C   UNL     1      43.443 -10.445  11.831  1.00  0.00     0.001 A 
HETATM   32  C   UNL     1      42.142 -10.035  12.109  1.00  0.00     0.000 A 
HETATM   33  C   UNL     1      41.454  -9.239  11.197  1.00  0.00     0.001 A 
HETATM   34  C   UNL     1      42.068  -8.856  10.002  1.00  0.00     0.009 A 
ENDBRANCH  28  29
ENDBRANCH  27  28
ENDBRANCH  10  27
TORSDOF 7
ENDMDL
MODEL 9
REMARK VINA RESULT:      -8.4      2.417      3.147
REMARK  7 active torsions:
REMARK  status: ('A' for Active; 'I' for Inactive)
REMARK    1  A    between atoms: C_7  and  C_8 
REMARK    2  A    between atoms: C_8  and  C_9 
REMARK       I    between atoms: C_9  and  N_10 
REMARK    3  A    between atoms: N_10  and  N_11 
REMARK       I    between atoms: N_11  and  C_12 
REMARK    4  A    between atoms: C_12  and  C_13 
REMARK    5  A    between atoms: C_23  and  O_24 
REMARK    6  A    between atoms: O_24  and  C_25 
REMARK    7  A    between atoms: C_25  and  C_26 
ROOT
HETATM    1  C   UNL     1      38.725 -10.324   3.430  1.00  0.00     0.068 C 
HETATM    2  C   UNL     1      39.518 -11.573   3.288  1.00  0.00     0.013 A 
HETATM    3  N   UNL     1      38.989 -12.695   2.703  1.00  0.00    -0.359 N 
HETATM    4  H   UNL     1      38.051 -12.772   2.332  1.00  0.00     0.166 HD
HETATM    5  C   UNL     1      39.915 -13.710   2.677  1.00  0.00     0.043 A 
HETATM    6  C   UNL     1      41.074 -13.223   3.275  1.00  0.00     0.002 A 
HETATM    7  C   UNL     1      40.817 -11.870   3.673  1.00  0.00    -0.015 A 
HETATM    8  C   UNL     1      39.814 -15.011   2.172  1.00  0.00     0.033 A 
HETATM    9  C   UNL     1      40.938 -15.841   2.272  1.00  0.00     0.039 A 
HETATM   10  C   UNL     1      42.119 -15.386   2.855  1.00  0.00     0.070 A 
HETATM   11  C   UNL     1      42.190 -14.082   3.366  1.00  0.00     0.051 A 
ENDROOT
BRANCH   7  12
HETATM   12  C   UNL     1      41.777 -10.950   4.364  1.00  0.00     0.146 C 
BRANCH  12  13
HETATM   13  C   UNL     1      41.673 -10.978   5.878  1.00  0.00     0.240 C 
HETATM   14  N   UNL     1      42.513 -10.119   6.562  1.00  0.00    -0.267 N 
HETATM   15  H   UNL     1      43.376  -9.771   6.138  1.00  0.00     0.190 HD
HETATM   16  O   UNL     1      40.828 -11.658   6.467  1.00  0.00    -0.272 OA
BRANCH  14  17
HETATM   17  N   UNL     1      42.508 -10.203   7.965  1.00  0.00    -0.263 N 
HETATM   18  C   UNL     1      41.812  -9.239   8.668  1.00  0.00     0.270 C 
HETATM   19  O   UNL     1      41.117  -8.388   8.119  1.00  0.00    -0.266 OA
HETATM   20  H   UNL     1      43.290 -10.719   8.364  1.00  0.00     0.190 HD
BRANCH  18  21
HETATM   21  C   UNL     1      41.957  -9.257  10.149  1.00  0.00     0.036 A 
HETATM   22  C   UNL     1      43.202  -8.930  10.691  1.00  0.00     0.036 A 
HETATM   23  C   UNL     1      43.340  -8.941  12.066  1.00  0.00     0.117 A 
HETATM   24  N   UNL     1      42.336  -9.243  12.916  1.00  0.00    -0.273 NA
HETATM   25  C   UNL     1      41.138  -9.538  12.368  1.00  0.00     0.117 A 
HETATM   26  C   UNL     1      40.896  -9.556  11.006  1.00  0.00     0.036 A 
ENDBRANCH  18  21
ENDBRANCH  14  17
ENDBRANCH  12  13
ENDBRANCH   7  12
BRANCH  10  27
HETATM   27  O   UNL     1      43.278 -16.105   2.991  1.00  0.00    -0.347 OA
BRANCH  27  28
HETATM   28  C   UNL     1      43.418 -17.275   2.183  1.00  0.00     0.214 C 
BRANCH  28  29
HETATM   29  C   UNL     1      43.664 -18.500   3.039  1.00  0.00    -0.034 A 
HETATM   30  C   UNL     1      43.921 -18.409   4.414  1.00  0.00     0.009 A 
HETATM   31  C   UNL     1      44.113 -19.561   5.180  1.00  0.00     0.001 A 
HETATM   32  C   UNL     1      44.039 -20.817   4.585  1.00  0.00     0.000 A 
HETATM   33  C   UNL     1      43.770 -20.925   3.222  1.00  0.00     0.001 A 
HETATM   34  C   UNL     1      43.579 -19.774   2.455  1.00  0.00     0.009 A 
ENDBRANCH  28  29
ENDBRANCH  27  28
ENDBRANCH  10  27
TORSDOF 7
ENDMDL
MODEL 10
REMARK VINA RESULT:      -8.3      2.153      3.065
REMARK  7 active torsions:
REMARK  status: ('A' for Active; 'I' for Inactive)
REMARK    1  A    between atoms: C_7  and  C_8 
REMARK    2  A    between atoms: C_8  and  C_9 
REMARK       I    between atoms: C_9  and  N_10 
REMARK    3  A    between atoms: N_10  and  N_11 
REMARK       I    between atoms: N_11  and  C_12 
REMARK    4  A    between atoms: C_12  and  C_13 
REMARK    5  A    between atoms: C_23  and  O_24 
REMARK    6  A    between atoms: O_24  and  C_25 
REMARK    7  A    between atoms: C_25  and  C_26 
ROOT
HETATM    1  C   UNL     1      40.754  -7.686   5.378  1.00  0.00     0.068 C 
HETATM    2  C   UNL     1      41.123  -9.083   5.028  1.00  0.00     0.013 A 
HETATM    3  N   UNL     1      42.134  -9.356   4.142  1.00  0.00    -0.359 N 
HETATM    4  H   UNL     1      42.695  -8.663   3.665  1.00  0.00     0.166 HD
HETATM    5  C   UNL     1      42.293 -10.714   3.993  1.00  0.00     0.043 A 
HETATM    6  C   UNL     1      41.344 -11.329   4.806  1.00  0.00     0.002 A 
HETATM    7  C   UNL     1      40.595 -10.293   5.453  1.00  0.00    -0.015 A 
HETATM    8  C   UNL     1      43.198 -11.434   3.207  1.00  0.00     0.033 A 
HETATM    9  C   UNL     1      43.140 -12.833   3.260  1.00  0.00     0.039 A 
HETATM   10  C   UNL     1      42.212 -13.486   4.068  1.00  0.00     0.070 A 
HETATM   11  C   UNL     1      41.306 -12.739   4.835  1.00  0.00     0.051 A 
ENDROOT
BRANCH   7  12
HETATM   12  C   UNL     1      39.462 -10.485   6.415  1.00  0.00     0.146 C 
BRANCH  12  13
HETATM   13  C   UNL     1      39.653  -9.772   7.741  1.00  0.00     0.240 C 
HETATM   14  N   UNL     1      40.851 -10.006   8.391  1.00  0.00    -0.267 N 
HETATM   15  H   UNL     1      41.400 -10.849   8.205  1.00  0.00     0.190 HD
HETATM   16  O   UNL     1      38.831  -8.961   8.176  1.00  0.00    -0.272 OA
BRANCH  14  17
HETATM   17  N   UNL     1      41.007  -9.440   9.667  1.00  0.00    -0.263 N 
HETATM   18  C   UNL     1      42.226  -9.591  10.298  1.00  0.00     0.270 C 
HETATM   19  O   UNL     1      43.199 -10.102   9.749  1.00  0.00    -0.266 OA
HETATM   20  H   UNL     1      40.138  -9.291  10.176  1.00  0.00     0.190 HD
BRANCH  18  21
HETATM   21  C   UNL     1      42.310  -9.125  11.709  1.00  0.00     0.036 A 
HETATM   22  C   UNL     1      43.192  -8.084  12.006  1.00  0.00     0.036 A 
HETATM   23  C   UNL     1      43.270  -7.646  13.314  1.00  0.00     0.117 A 
HETATM   24  N   UNL     1      42.536  -8.164  14.321  1.00  0.00    -0.273 NA
HETATM   25  C   UNL     1      41.678  -9.157  14.006  1.00  0.00     0.117 A 
HETATM   26  C   UNL     1      41.525  -9.667  12.728  1.00  0.00     0.036 A 
ENDBRANCH  18  21
ENDBRANCH  14  17
ENDBRANCH  12  13
ENDBRANCH   7  12
BRANCH  10  27
HETATM   27  O   UNL     1      42.078 -14.842   4.206  1.00  0.00    -0.347 OA
BRANCH  27  28
HETATM   28  C   UNL     1      42.105 -15.625   3.011  1.00  0.00     0.214 C 
BRANCH  28  29
HETATM   29  C   UNL     1      42.795 -16.953   3.246  1.00  0.00    -0.034 A 
HETATM   30  C   UNL     1      42.804 -17.969   2.279  1.00  0.00     0.009 A 
HETATM   31  C   UNL     1      43.475 -19.171   2.517  1.00  0.00     0.001 A 
HETATM   32  C   UNL     1      44.155 -19.367   3.716  1.00  0.00     0.000 A 
HETATM   33  C   UNL     1      44.168 -18.362   4.680  1.00  0.00     0.001 A 
HETATM   34  C   UNL     1      43.495 -17.161   4.445  1.00  0.00     0.009 A 
ENDBRANCH  28  29
ENDBRANCH  27  28
ENDBRANCH  10  27
TORSDOF 7
ENDMDL
