MODEL 1
REMARK VINA RESULT:      -8.7      0.000      0.000
REMARK  6 active torsions:
REMARK  status: ('A' for Active; 'I' for Inactive)
REMARK    1  A    between atoms: O_2  and  C_3 
REMARK    2  A    between atoms: C_6  and  N_7 
REMARK       I    between atoms: N_7  and  C_8 
REMARK       I    between atoms: C_8  and  N_9 
REMARK    3  A    between atoms: N_9  and  C_10 
REMARK    4  A    between atoms: C_10  and  C_11 
REMARK       I    between atoms: C_11  and  N_12 
REMARK    5  A    between atoms: N_12  and  N_13 
REMARK       I    between atoms: N_13  and  C_14 
REMARK       I    between atoms: C_14  and  N_15 
REMARK    6  A    between atoms: N_15  and  C_16 
ROOT
HETATM    1  C   UNL     1      41.766 -10.385   5.741  1.00  0.00     0.253 C 
HETATM    2  N   UNL     1      41.902 -10.810   7.048  1.00  0.00    -0.265 N 
HETATM    3  O   UNL     1      42.724 -10.256   4.979  1.00  0.00    -0.270 OA
HETATM    4  H   UNL     1      41.063 -11.058   7.577  1.00  0.00     0.190 HD
ENDROOT
BRANCH   2   5
HETATM    5  N   UNL     1      43.149 -11.343   7.437  1.00  0.00    -0.249 N 
HETATM    6  C   UNL     1      43.596 -12.539   6.900  1.00  0.00     0.339 C 
HETATM    7  N   UNL     1      42.594 -13.450   6.654  1.00  0.00    -0.307 N 
HETATM    8  O   UNL     1      44.799 -12.702   6.722  1.00  0.00    -0.245 OA
HETATM    9  H   UNL     1      41.753 -13.275   7.175  1.00  0.00     0.170 HD
HETATM   10  H   UNL     1      43.895 -10.647   7.476  1.00  0.00     0.192 HD
BRANCH   7  11
HETATM   11  C   UNL     1      42.714 -14.713   6.013  1.00  0.00     0.047 A 
HETATM   12  C   UNL     1      42.965 -14.779   4.604  1.00  0.00     0.001 A 
HETATM   13  C   UNL     1      43.072 -16.059   3.996  1.00  0.00    -0.024 A 
HETATM   14  C   UNL     1      43.103 -13.654   3.749  1.00  0.00     0.014 A 
HETATM   15  C   UNL     1      43.293 -16.176   2.613  1.00  0.00     0.012 A 
HETATM   16  C   UNL     1      42.955 -17.220   4.769  1.00  0.00     0.012 A 
HETATM   17  C   UNL     1      43.414 -15.049   1.805  1.00  0.00     0.001 A 
HETATM   18  C   UNL     1      43.321 -13.787   2.374  1.00  0.00     0.001 A 
HETATM   19  C   UNL     1      42.733 -17.143   6.139  1.00  0.00     0.003 A 
HETATM   20  C   UNL     1      42.615 -15.899   6.753  1.00  0.00     0.030 A 
ENDBRANCH   7  11
ENDBRANCH   2   5
BRANCH   1  21
HETATM   21  C   UNL     1      40.316 -10.267   5.262  1.00  0.00     0.228 C 
BRANCH  21  22
HETATM   22  N   UNL     1      39.777 -11.405   4.536  1.00  0.00    -0.334 N 
HETATM   23  C   UNL     1      39.629 -12.642   5.076  1.00  0.00     0.321 C 
HETATM   24  N   UNL     1      39.305 -13.649   4.219  1.00  0.00    -0.309 N 
HETATM   25  O   UNL     1      39.693 -12.838   6.290  1.00  0.00    -0.247 OA
HETATM   26  H   UNL     1      38.929 -14.461   4.693  1.00  0.00     0.170 HD
HETATM   27  H   UNL     1      39.258 -11.228   3.684  1.00  0.00     0.164 HD
BRANCH  24  28
HETATM   28  C   UNL     1      39.654 -13.839   2.865  1.00  0.00     0.036 A 
HETATM   29  C   UNL     1      39.783 -15.094   2.263  1.00  0.00     0.032 A 
HETATM   30  C   UNL     1      40.023 -15.207   0.887  1.00  0.00     0.039 A 
HETATM   31  C   UNL     1      40.126 -14.065   0.095  1.00  0.00     0.068 A 
HETATM   32  C   UNL     1      40.025 -12.811   0.696  1.00  0.00     0.039 A 
HETATM   33  C   UNL     1      39.776 -12.697   2.068  1.00  0.00     0.032 A 
BRANCH  31  34
HETATM   34  O   UNL     1      40.327 -14.050  -1.256  1.00  0.00    -0.356 OA
HETATM   35  C   UNL     1      39.259 -14.551  -2.055  1.00  0.00     0.210 C 
ENDBRANCH  31  34
ENDBRANCH  24  28
ENDBRANCH  21  22
ENDBRANCH   1  21
TORSDOF 6
ENDMDL
MODEL 2
REMARK VINA RESULT:      -8.5      3.858      7.718
REMARK  6 active torsions:
REMARK  status: ('A' for Active; 'I' for Inactive)
REMARK    1  A    between atoms: O_2  and  C_3 
REMARK    2  A    between atoms: C_6  and  N_7 
REMARK       I    between atoms: N_7  and  C_8 
REMARK       I    between atoms: C_8  and  N_9 
REMARK    3  A    between atoms: N_9  and  C_10 
REMARK    4  A    between atoms: C_10  and  C_11 
REMARK       I    between atoms: C_11  and  N_12 
REMARK    5  A    between atoms: N_12  and  N_13 
REMARK       I    between atoms: N_13  and  C_14 
REMARK       I    between atoms: C_14  and  N_15 
REMARK    6  A    between atoms: N_15  and  C_16 
ROOT
HETATM    1  C   UNL     1      43.479 -11.290   6.245  1.00  0.00     0.253 C 
HETATM    2  N   UNL     1      42.679 -12.264   6.810  1.00  0.00    -0.265 N 
HETATM    3  O   UNL     1      43.301 -10.860   5.105  1.00  0.00    -0.270 OA
HETATM    4  H   UNL     1      42.769 -12.459   7.809  1.00  0.00     0.190 HD
ENDROOT
BRANCH   2   5
HETATM    5  N   UNL     1      41.480 -12.594   6.144  1.00  0.00    -0.249 N 
HETATM    6  C   UNL     1      41.426 -13.696   5.307  1.00  0.00     0.339 C 
HETATM    7  N   UNL     1      42.592 -13.929   4.613  1.00  0.00    -0.307 N 
HETATM    8  O   UNL     1      40.380 -14.334   5.225  1.00  0.00    -0.245 OA
HETATM    9  H   UNL     1      43.190 -13.125   4.549  1.00  0.00     0.170 HD
HETATM   10  H   UNL     1      40.652 -12.534   6.740  1.00  0.00     0.192 HD
BRANCH   7  11
HETATM   11  C   UNL     1      42.887 -15.032   3.767  1.00  0.00     0.047 A 
HETATM   12  C   UNL     1      43.219 -16.303   4.339  1.00  0.00     0.001 A 
HETATM   13  C   UNL     1      43.516 -17.381   3.461  1.00  0.00    -0.024 A 
HETATM   14  C   UNL     1      43.293 -16.575   5.730  1.00  0.00     0.014 A 
HETATM   15  C   UNL     1      43.872 -18.641   3.973  1.00  0.00     0.012 A 
HETATM   16  C   UNL     1      43.459 -17.199   2.074  1.00  0.00     0.012 A 
HETATM   17  C   UNL     1      43.942 -18.867   5.345  1.00  0.00     0.001 A 
HETATM   18  C   UNL     1      43.651 -17.834   6.223  1.00  0.00     0.001 A 
HETATM   19  C   UNL     1      43.114 -15.967   1.533  1.00  0.00     0.003 A 
HETATM   20  C   UNL     1      42.829 -14.895   2.374  1.00  0.00     0.030 A 
ENDBRANCH   7  11
ENDBRANCH   2   5
BRANCH   1  21
HETATM   21  C   UNL     1      44.483 -10.656   7.212  1.00  0.00     0.228 C 
BRANCH  21  22
HETATM   22  N   UNL     1      43.979  -9.598   8.071  1.00  0.00    -0.334 N 
HETATM   23  C   UNL     1      44.748  -8.587   8.551  1.00  0.00     0.321 C 
HETATM   24  N   UNL     1      44.188  -7.790   9.503  1.00  0.00    -0.309 N 
HETATM   25  O   UNL     1      45.863  -8.337   8.092  1.00  0.00    -0.247 OA
HETATM   26  H   UNL     1      44.671  -6.907   9.609  1.00  0.00     0.170 HD
HETATM   27  H   UNL     1      42.978  -9.454   8.116  1.00  0.00     0.164 HD
BRANCH  24  28
HETATM   28  C   UNL     1      43.252  -8.100  10.512  1.00  0.00     0.036 A 
HETATM   29  C   UNL     1      41.897  -7.765  10.447  1.00  0.00     0.032 A 
HETATM   30  C   UNL     1      41.002  -8.201  11.435  1.00  0.00     0.039 A 
HETATM   31  C   UNL     1      41.452  -8.987  12.493  1.00  0.00     0.068 A 
HETATM   32  C   UNL     1      42.808  -9.301  12.576  1.00  0.00     0.039 A 
HETATM   33  C   UNL     1      43.700  -8.874  11.587  1.00  0.00     0.032 A 
BRANCH  31  34
HETATM   34  O   UNL     1      40.673  -9.496  13.493  1.00  0.00    -0.356 OA
HETATM   35  C   UNL     1      39.775 -10.537  13.122  1.00  0.00     0.210 C 
ENDBRANCH  31  34
ENDBRANCH  24  28
ENDBRANCH  21  22
ENDBRANCH   1  21
TORSDOF 6
ENDMDL
MODEL 3
REMARK VINA RESULT:      -8.5      3.919      7.507
REMARK  6 active torsions:
REMARK  status: ('A' for Active; 'I' for Inactive)
REMARK    1  A    between atoms: O_2  and  C_3 
REMARK    2  A    between atoms: C_6  and  N_7 
REMARK       I    between atoms: N_7  and  C_8 
REMARK       I    between atoms: C_8  and  N_9 
REMARK    3  A    between atoms: N_9  and  C_10 
REMARK    4  A    between atoms: C_10  and  C_11 
REMARK       I    between atoms: C_11  and  N_12 
REMARK    5  A    between atoms: N_12  and  N_13 
REMARK       I    between atoms: N_13  and  C_14 
REMARK       I    between atoms: C_14  and  N_15 
REMARK    6  A    between atoms: N_15  and  C_16 
ROOT
HETATM    1  C   UNL     1      43.825 -11.398   6.394  1.00  0.00     0.253 C 
HETATM    2  N   UNL     1      43.037 -12.286   7.102  1.00  0.00    -0.265 N 
HETATM    3  O   UNL     1      43.702 -11.217   5.183  1.00  0.00    -0.270 OA
HETATM    4  H   UNL     1      43.070 -12.271   8.123  1.00  0.00     0.190 HD
ENDROOT
BRANCH   2   5
HETATM    5  N   UNL     1      41.902 -12.815   6.452  1.00  0.00    -0.249 N 
HETATM    6  C   UNL     1      41.784 -14.181   6.253  1.00  0.00     0.339 C 
HETATM    7  N   UNL     1      42.979 -14.815   6.003  1.00  0.00    -0.307 N 
HETATM    8  O   UNL     1      40.669 -14.695   6.281  1.00  0.00    -0.245 OA
HETATM    9  H   UNL     1      43.704 -14.197   5.682  1.00  0.00     0.170 HD
HETATM   10  H   UNL     1      41.022 -12.404   6.769  1.00  0.00     0.192 HD
BRANCH   7  11
HETATM   11  C   UNL     1      43.203 -16.211   5.866  1.00  0.00     0.047 A 
HETATM   12  C   UNL     1      43.327 -16.791   4.562  1.00  0.00     0.001 A 
HETATM   13  C   UNL     1      43.543 -18.193   4.464  1.00  0.00    -0.024 A 
HETATM   14  C   UNL     1      43.235 -16.074   3.341  1.00  0.00     0.014 A 
HETATM   15  C   UNL     1      43.646 -18.813   3.207  1.00  0.00     0.012 A 
HETATM   16  C   UNL     1      43.653 -18.973   5.621  1.00  0.00     0.012 A 
HETATM   17  C   UNL     1      43.541 -18.076   2.030  1.00  0.00     0.001 A 
HETATM   18  C   UNL     1      43.338 -16.706   2.098  1.00  0.00     0.001 A 
HETATM   19  C   UNL     1      43.553 -18.395   6.880  1.00  0.00     0.003 A 
HETATM   20  C   UNL     1      43.331 -17.026   7.000  1.00  0.00     0.030 A 
ENDBRANCH   7  11
ENDBRANCH   2   5
BRANCH   1  21
HETATM   21  C   UNL     1      44.731 -10.524   7.266  1.00  0.00     0.228 C 
BRANCH  21  22
HETATM   22  N   UNL     1      44.068  -9.645   8.215  1.00  0.00    -0.334 N 
HETATM   23  C   UNL     1      44.644  -8.534   8.743  1.00  0.00     0.321 C 
HETATM   24  N   UNL     1      43.981  -7.928   9.767  1.00  0.00    -0.309 N 
HETATM   25  O   UNL     1      45.666  -8.038   8.269  1.00  0.00    -0.247 OA
HETATM   26  H   UNL     1      44.287  -6.976   9.922  1.00  0.00     0.170 HD
HETATM   27  H   UNL     1      43.061  -9.706   8.302  1.00  0.00     0.164 HD
BRANCH  24  28
HETATM   28  C   UNL     1      43.171  -8.483  10.780  1.00  0.00     0.036 A 
HETATM   29  C   UNL     1      43.531  -8.524  12.130  1.00  0.00     0.032 A 
HETATM   30  C   UNL     1      42.631  -8.990  13.098  1.00  0.00     0.039 A 
HETATM   31  C   UNL     1      41.356  -9.410  12.728  1.00  0.00     0.068 A 
HETATM   32  C   UNL     1      41.002  -9.397  11.380  1.00  0.00     0.039 A 
HETATM   33  C   UNL     1      41.896  -8.924  10.413  1.00  0.00     0.032 A 
BRANCH  31  34
HETATM   34  O   UNL     1      40.385  -9.852  13.581  1.00  0.00    -0.356 OA
HETATM   35  C   UNL     1      39.445 -10.775  13.039  1.00  0.00     0.210 C 
ENDBRANCH  31  34
ENDBRANCH  24  28
ENDBRANCH  21  22
ENDBRANCH   1  21
TORSDOF 6
ENDMDL
MODEL 4
REMARK VINA RESULT:      -8.3      4.459      8.211
REMARK  6 active torsions:
REMARK  status: ('A' for Active; 'I' for Inactive)
REMARK    1  A    between atoms: O_2  and  C_3 
REMARK    2  A    between atoms: C_6  and  N_7 
REMARK       I    between atoms: N_7  and  C_8 
REMARK       I    between atoms: C_8  and  N_9 
REMARK    3  A    between atoms: N_9  and  C_10 
REMARK    4  A    between atoms: C_10  and  C_11 
REMARK       I    between atoms: C_11  and  N_12 
REMARK    5  A    between atoms: N_12  and  N_13 
REMARK       I    between atoms: N_13  and  C_14 
REMARK       I    between atoms: C_14  and  N_15 
REMARK    6  A    between atoms: N_15  and  C_16 
ROOT
HETATM    1  C   UNL     1      41.425 -10.091   7.136  1.00  0.00     0.253 C 
HETATM    2  N   UNL     1      41.486 -11.329   6.526  1.00  0.00    -0.265 N 
HETATM    3  O   UNL     1      40.378  -9.614   7.572  1.00  0.00    -0.270 OA
HETATM    4  H   UNL     1      42.401 -11.743   6.337  1.00  0.00     0.190 HD
ENDROOT
BRANCH   2   5
HETATM    5  N   UNL     1      40.355 -12.166   6.628  1.00  0.00    -0.249 N 
HETATM    6  C   UNL     1      40.363 -13.425   6.051  1.00  0.00     0.339 C 
HETATM    7  N   UNL     1      41.067 -13.495   4.871  1.00  0.00    -0.307 N 
HETATM    8  O   UNL     1      39.742 -14.335   6.593  1.00  0.00    -0.245 OA
HETATM    9  H   UNL     1      41.199 -12.603   4.426  1.00  0.00     0.170 HD
HETATM   10  H   UNL     1      39.944 -12.183   7.563  1.00  0.00     0.192 HD
BRANCH   7  11
HETATM   11  C   UNL     1      41.350 -14.656   4.102  1.00  0.00     0.047 A 
HETATM   12  C   UNL     1      42.388 -15.552   4.514  1.00  0.00     0.001 A 
HETATM   13  C   UNL     1      42.647 -16.700   3.716  1.00  0.00    -0.024 A 
HETATM   14  C   UNL     1      43.202 -15.379   5.664  1.00  0.00     0.014 A 
HETATM   15  C   UNL     1      43.671 -17.596   4.066  1.00  0.00     0.012 A 
HETATM   16  C   UNL     1      41.884 -16.948   2.569  1.00  0.00     0.012 A 
HETATM   17  C   UNL     1      44.455 -17.388   5.197  1.00  0.00     0.001 A 
HETATM   18  C   UNL     1      44.219 -16.280   5.998  1.00  0.00     0.001 A 
HETATM   19  C   UNL     1      40.866 -16.082   2.191  1.00  0.00     0.003 A 
HETATM   20  C   UNL     1      40.602 -14.947   2.953  1.00  0.00     0.030 A 
ENDBRANCH   7  11
ENDBRANCH   2   5
BRANCH   1  21
HETATM   21  C   UNL     1      42.790  -9.446   7.395  1.00  0.00     0.228 C 
BRANCH  21  22
HETATM   22  N   UNL     1      43.242  -9.413   8.775  1.00  0.00    -0.334 N 
HETATM   23  C   UNL     1      43.833 -10.465   9.399  1.00  0.00     0.321 C 
HETATM   24  N   UNL     1      44.015 -10.355  10.745  1.00  0.00    -0.309 N 
HETATM   25  O   UNL     1      44.267 -11.435   8.779  1.00  0.00    -0.247 OA
HETATM   26  H   UNL     1      44.699 -11.010  11.102  1.00  0.00     0.170 HD
HETATM   27  H   UNL     1      43.358  -8.511   9.220  1.00  0.00     0.164 HD
BRANCH  24  28
HETATM   28  C   UNL     1      43.235  -9.694  11.717  1.00  0.00     0.036 A 
HETATM   29  C   UNL     1      42.088 -10.243  12.299  1.00  0.00     0.032 A 
HETATM   30  C   UNL     1      41.424  -9.577  13.339  1.00  0.00     0.039 A 
HETATM   31  C   UNL     1      41.906  -8.361  13.816  1.00  0.00     0.068 A 
HETATM   32  C   UNL     1      43.034  -7.797  13.220  1.00  0.00     0.039 A 
HETATM   33  C   UNL     1      43.703  -8.464  12.188  1.00  0.00     0.032 A 
BRANCH  31  34
HETATM   34  O   UNL     1      41.366  -7.637  14.841  1.00  0.00    -0.356 OA
HETATM   35  C   UNL     1      42.280  -6.871  15.620  1.00  0.00     0.210 C 
ENDBRANCH  31  34
ENDBRANCH  24  28
ENDBRANCH  21  22
ENDBRANCH   1  21
TORSDOF 6
ENDMDL
MODEL 5
REMARK VINA RESULT:      -8.2      2.653      5.866
REMARK  6 active torsions:
REMARK  status: ('A' for Active; 'I' for Inactive)
REMARK    1  A    between atoms: O_2  and  C_3 
REMARK    2  A    between atoms: C_6  and  N_7 
REMARK       I    between atoms: N_7  and  C_8 
REMARK       I    between atoms: C_8  and  N_9 
REMARK    3  A    between atoms: N_9  and  C_10 
REMARK    4  A    between atoms: C_10  and  C_11 
REMARK       I    between atoms: C_11  and  N_12 
REMARK    5  A    between atoms: N_12  and  N_13 
REMARK       I    between atoms: N_13  and  C_14 
REMARK       I    between atoms: C_14  and  N_15 
REMARK    6  A    between atoms: N_15  and  C_16 
ROOT
HETATM    1  C   UNL     1      40.852 -12.393   0.794  1.00  0.00     0.253 C 
HETATM    2  N   UNL     1      41.623 -13.497   0.483  1.00  0.00    -0.265 N 
HETATM    3  O   UNL     1      39.628 -12.448   0.914  1.00  0.00    -0.270 OA
HETATM    4  H   UNL     1      42.640 -13.427   0.562  1.00  0.00     0.190 HD
ENDROOT
BRANCH   2   5
HETATM    5  N   UNL     1      41.008 -14.764   0.546  1.00  0.00    -0.249 N 
HETATM    6  C   UNL     1      41.214 -15.587   1.642  1.00  0.00     0.339 C 
HETATM    7  N   UNL     1      42.478 -15.496   2.179  1.00  0.00    -0.307 N 
HETATM    8  O   UNL     1      40.308 -16.326   2.014  1.00  0.00    -0.245 OA
HETATM    9  H   UNL     1      43.160 -15.117   1.545  1.00  0.00     0.170 HD
HETATM   10  H   UNL     1      40.027 -14.756   0.262  1.00  0.00     0.192 HD
BRANCH   7  11
HETATM   11  C   UNL     1      42.962 -16.123   3.359  1.00  0.00     0.047 A 
HETATM   12  C   UNL     1      43.284 -17.519   3.345  1.00  0.00     0.001 A 
HETATM   13  C   UNL     1      43.758 -18.114   4.546  1.00  0.00    -0.024 A 
HETATM   14  C   UNL     1      43.152 -18.373   2.220  1.00  0.00     0.014 A 
HETATM   15  C   UNL     1      44.063 -19.485   4.591  1.00  0.00     0.012 A 
HETATM   16  C   UNL     1      43.923 -17.340   5.701  1.00  0.00     0.012 A 
HETATM   17  C   UNL     1      43.913 -20.293   3.467  1.00  0.00     0.001 A 
HETATM   18  C   UNL     1      43.459 -19.737   2.281  1.00  0.00     0.001 A 
HETATM   19  C   UNL     1      43.628 -15.983   5.695  1.00  0.00     0.003 A 
HETATM   20  C   UNL     1      43.153 -15.381   4.532  1.00  0.00     0.030 A 
ENDBRANCH   7  11
ENDBRANCH   2   5
BRANCH   1  21
HETATM   21  C   UNL     1      41.656 -11.143   1.161  1.00  0.00     0.228 C 
BRANCH  21  22
HETATM   22  N   UNL     1      41.889 -10.912   2.576  1.00  0.00    -0.334 N 
HETATM   23  C   UNL     1      42.690 -11.694   3.346  1.00  0.00     0.321 C 
HETATM   24  N   UNL     1      42.648 -11.477   4.690  1.00  0.00    -0.309 N 
HETATM   25  O   UNL     1      43.483 -12.499   2.858  1.00  0.00    -0.247 OA
HETATM   26  H   UNL     1      43.449 -11.865   5.174  1.00  0.00     0.170 HD
HETATM   27  H   UNL     1      41.658 -10.003   2.958  1.00  0.00     0.164 HD
BRANCH  24  28
HETATM   28  C   UNL     1      41.579 -11.062   5.512  1.00  0.00     0.036 A 
HETATM   29  C   UNL     1      40.367 -11.748   5.617  1.00  0.00     0.032 A 
HETATM   30  C   UNL     1      39.390 -11.339   6.537  1.00  0.00     0.039 A 
HETATM   31  C   UNL     1      39.621 -10.247   7.369  1.00  0.00     0.068 A 
HETATM   32  C   UNL     1      40.819  -9.543   7.248  1.00  0.00     0.039 A 
HETATM   33  C   UNL     1      41.798  -9.955   6.337  1.00  0.00     0.032 A 
BRANCH  31  34
HETATM   34  O   UNL     1      38.762  -9.777   8.322  1.00  0.00    -0.356 OA
HETATM   35  C   UNL     1      39.264  -9.736   9.654  1.00  0.00     0.210 C 
ENDBRANCH  31  34
ENDBRANCH  24  28
ENDBRANCH  21  22
ENDBRANCH   1  21
TORSDOF 6
ENDMDL
MODEL 6
REMARK VINA RESULT:      -8.2      2.807      5.819
REMARK  6 active torsions:
REMARK  status: ('A' for Active; 'I' for Inactive)
REMARK    1  A    between atoms: O_2  and  C_3 
REMARK    2  A    between atoms: C_6  and  N_7 
REMARK       I    between atoms: N_7  and  C_8 
REMARK       I    between atoms: C_8  and  N_9 
REMARK    3  A    between atoms: N_9  and  C_10 
REMARK    4  A    between atoms: C_10  and  C_11 
REMARK       I    between atoms: C_11  and  N_12 
REMARK    5  A    between atoms: N_12  and  N_13 
REMARK       I    between atoms: N_13  and  C_14 
REMARK       I    between atoms: C_14  and  N_15 
REMARK    6  A    between atoms: N_15  and  C_16 
ROOT
HETATM    1  C   UNL     1      40.091 -13.433  -1.089  1.00  0.00     0.253 C 
HETATM    2  N   UNL     1      40.658 -14.089  -0.012  1.00  0.00    -0.265 N 
HETATM    3  O   UNL     1      39.128 -13.882  -1.711  1.00  0.00    -0.270 OA
HETATM    4  H   UNL     1      41.340 -13.593   0.565  1.00  0.00     0.190 HD
ENDROOT
BRANCH   2   5
HETATM    5  N   UNL     1      39.954 -15.183   0.532  1.00  0.00    -0.249 N 
HETATM    6  C   UNL     1      40.378 -15.769   1.713  1.00  0.00     0.339 C 
HETATM    7  N   UNL     1      41.746 -15.786   1.869  1.00  0.00    -0.307 N 
HETATM    8  O   UNL     1      39.544 -16.238   2.482  1.00  0.00    -0.245 OA
HETATM    9  H   UNL     1      42.251 -15.681   1.007  1.00  0.00     0.170 HD
HETATM   10  H   UNL     1      38.939 -15.065   0.514  1.00  0.00     0.192 HD
BRANCH   7  11
HETATM   11  C   UNL     1      42.479 -16.214   3.008  1.00  0.00     0.047 A 
HETATM   12  C   UNL     1      42.976 -17.556   3.075  1.00  0.00     0.001 A 
HETATM   13  C   UNL     1      43.699 -17.952   4.233  1.00  0.00    -0.024 A 
HETATM   14  C   UNL     1      42.790 -18.543   2.072  1.00  0.00     0.014 A 
HETATM   15  C   UNL     1      44.185 -19.264   4.358  1.00  0.00     0.012 A 
HETATM   16  C   UNL     1      43.933 -17.037   5.267  1.00  0.00     0.012 A 
HETATM   17  C   UNL     1      43.975 -20.208   3.356  1.00  0.00     0.001 A 
HETATM   18  C   UNL     1      43.279 -19.846   2.212  1.00  0.00     0.001 A 
HETATM   19  C   UNL     1      43.464 -15.732   5.180  1.00  0.00     0.003 A 
HETATM   20  C   UNL     1      42.745 -15.326   4.059  1.00  0.00     0.030 A 
ENDBRANCH   7  11
ENDBRANCH   2   5
BRANCH   1  21
HETATM   21  C   UNL     1      40.633 -12.021  -1.326  1.00  0.00     0.228 C 
BRANCH  21  22
HETATM   22  N   UNL     1      40.675 -11.138  -0.172  1.00  0.00    -0.334 N 
HETATM   23  C   UNL     1      41.586 -10.143  -0.017  1.00  0.00     0.321 C 
HETATM   24  N   UNL     1      41.629  -9.537   1.201  1.00  0.00    -0.309 N 
HETATM   25  O   UNL     1      42.279  -9.739  -0.951  1.00  0.00    -0.247 OA
HETATM   26  H   UNL     1      42.098  -8.639   1.176  1.00  0.00     0.170 HD
HETATM   27  H   UNL     1      39.857 -11.087   0.422  1.00  0.00     0.164 HD
BRANCH  24  28
HETATM   28  C   UNL     1      41.383 -10.062   2.488  1.00  0.00     0.036 A 
HETATM   29  C   UNL     1      40.224  -9.804   3.225  1.00  0.00     0.032 A 
HETATM   30  C   UNL     1      39.997 -10.448   4.450  1.00  0.00     0.039 A 
HETATM   31  C   UNL     1      40.920 -11.365   4.944  1.00  0.00     0.068 A 
HETATM   32  C   UNL     1      42.091 -11.604   4.226  1.00  0.00     0.039 A 
HETATM   33  C   UNL     1      42.315 -10.970   2.999  1.00  0.00     0.032 A 
BRANCH  31  34
HETATM   34  O   UNL     1      40.794 -12.075   6.105  1.00  0.00    -0.356 OA
HETATM   35  C   UNL     1      40.232 -13.378   5.985  1.00  0.00     0.210 C 
ENDBRANCH  31  34
ENDBRANCH  24  28
ENDBRANCH  21  22
ENDBRANCH   1  21
TORSDOF 6
ENDMDL
MODEL 7
REMARK VINA RESULT:      -8.0      4.477      8.006
REMARK  6 active torsions:
REMARK  status: ('A' for Active; 'I' for Inactive)
REMARK    1  A    between atoms: O_2  and  C_3 
REMARK    2  A    between atoms: C_6  and  N_7 
REMARK       I    between atoms: N_7  and  C_8 
REMARK       I    between atoms: C_8  and  N_9 
REMARK    3  A    between atoms: N_9  and  C_10 
REMARK    4  A    between atoms: C_10  and  C_11 
REMARK       I    between atoms: C_11  and  N_12 
REMARK    5  A    between atoms: N_12  and  N_13 
REMARK       I    between atoms: N_13  and  C_14 
REMARK       I    between atoms: C_14  and  N_15 
REMARK    6  A    between atoms: N_15  and  C_16 
ROOT
HETATM    1  C   UNL     1      41.560 -10.012   6.962  1.00  0.00     0.253 C 
HETATM    2  N   UNL     1      41.809 -11.098   6.146  1.00  0.00    -0.265 N 
HETATM    3  O   UNL     1      40.457  -9.793   7.463  1.00  0.00    -0.270 OA
HETATM    4  H   UNL     1      42.776 -11.319   5.898  1.00  0.00     0.190 HD
ENDROOT
BRANCH   2   5
HETATM    5  N   UNL     1      40.830 -12.112   6.088  1.00  0.00    -0.249 N 
HETATM    6  C   UNL     1      41.201 -13.446   6.124  1.00  0.00     0.339 C 
HETATM    7  N   UNL     1      42.392 -13.712   5.487  1.00  0.00    -0.307 N 
HETATM    8  O   UNL     1      40.460 -14.258   6.668  1.00  0.00    -0.245 OA
HETATM    9  H   UNL     1      42.661 -13.006   4.824  1.00  0.00     0.170 HD
HETATM   10  H   UNL     1      40.020 -11.931   6.684  1.00  0.00     0.192 HD
BRANCH   7  11
HETATM   11  C   UNL     1      43.089 -14.949   5.443  1.00  0.00     0.047 A 
HETATM   12  C   UNL     1      42.979 -15.792   4.290  1.00  0.00     0.001 A 
HETATM   13  C   UNL     1      43.686 -17.026   4.285  1.00  0.00    -0.024 A 
HETATM   14  C   UNL     1      42.200 -15.499   3.141  1.00  0.00     0.014 A 
HETATM   15  C   UNL     1      43.590 -17.898   3.188  1.00  0.00     0.012 A 
HETATM   16  C   UNL     1      44.483 -17.387   5.377  1.00  0.00     0.012 A 
HETATM   17  C   UNL     1      42.808 -17.580   2.081  1.00  0.00     0.001 A 
HETATM   18  C   UNL     1      42.114 -16.379   2.057  1.00  0.00     0.001 A 
HETATM   19  C   UNL     1      44.598 -16.551   6.481  1.00  0.00     0.003 A 
HETATM   20  C   UNL     1      43.908 -15.343   6.511  1.00  0.00     0.030 A 
ENDBRANCH   7  11
ENDBRANCH   2   5
BRANCH   1  21
HETATM   21  C   UNL     1      42.807  -9.209   7.345  1.00  0.00     0.228 C 
BRANCH  21  22
HETATM   22  N   UNL     1      43.210  -9.260   8.740  1.00  0.00    -0.334 N 
HETATM   23  C   UNL     1      43.659 -10.385   9.354  1.00  0.00     0.321 C 
HETATM   24  N   UNL     1      43.803 -10.328  10.707  1.00  0.00    -0.309 N 
HETATM   25  O   UNL     1      44.007 -11.382   8.721  1.00  0.00    -0.247 OA
HETATM   26  H   UNL     1      44.398 -11.064  11.069  1.00  0.00     0.170 HD
HETATM   27  H   UNL     1      43.408  -8.387   9.214  1.00  0.00     0.164 HD
BRANCH  24  28
HETATM   28  C   UNL     1      43.065  -9.610  11.671  1.00  0.00     0.036 A 
HETATM   29  C   UNL     1      41.855 -10.051  12.213  1.00  0.00     0.032 A 
HETATM   30  C   UNL     1      41.231  -9.340  13.248  1.00  0.00     0.039 A 
HETATM   31  C   UNL     1      41.817  -8.185  13.759  1.00  0.00     0.068 A 
HETATM   32  C   UNL     1      43.010  -7.725  13.203  1.00  0.00     0.039 A 
HETATM   33  C   UNL     1      43.638  -8.439  12.177  1.00  0.00     0.032 A 
BRANCH  31  34
HETATM   34  O   UNL     1      41.322  -7.427  14.783  1.00  0.00    -0.356 OA
HETATM   35  C   UNL     1      41.225  -8.071  16.050  1.00  0.00     0.210 C 
ENDBRANCH  31  34
ENDBRANCH  24  28
ENDBRANCH  21  22
ENDBRANCH   1  21
TORSDOF 6
ENDMDL
MODEL 8
REMARK VINA RESULT:      -7.9      2.887      5.860
REMARK  6 active torsions:
REMARK  status: ('A' for Active; 'I' for Inactive)
REMARK    1  A    between atoms: O_2  and  C_3 
REMARK    2  A    between atoms: C_6  and  N_7 
REMARK       I    between atoms: N_7  and  C_8 
REMARK       I    between atoms: C_8  and  N_9 
REMARK    3  A    between atoms: N_9  and  C_10 
REMARK    4  A    between atoms: C_10  and  C_11 
REMARK       I    between atoms: C_11  and  N_12 
REMARK    5  A    between atoms: N_12  and  N_13 
REMARK       I    between atoms: N_13  and  C_14 
REMARK       I    between atoms: C_14  and  N_15 
REMARK    6  A    between atoms: N_15  and  C_16 
ROOT
HETATM    1  C   UNL     1      39.317 -11.741   4.013  1.00  0.00     0.253 C 
HETATM    2  N   UNL     1      39.616 -11.693   5.362  1.00  0.00    -0.265 N 
HETATM    3  O   UNL     1      39.022 -10.740   3.360  1.00  0.00    -0.270 OA
HETATM    4  H   UNL     1      40.013 -12.521   5.809  1.00  0.00     0.190 HD
ENDROOT
BRANCH   2   5
HETATM    5  N   UNL     1      39.824 -10.424   5.941  1.00  0.00    -0.249 N 
HETATM    6  C   UNL     1      41.103 -10.009   6.273  1.00  0.00     0.339 C 
HETATM    7  N   UNL     1      41.923 -11.023   6.715  1.00  0.00    -0.307 N 
HETATM    8  O   UNL     1      41.388  -8.818   6.183  1.00  0.00    -0.245 OA
HETATM    9  H   UNL     1      41.424 -11.831   7.042  1.00  0.00     0.170 HD
HETATM   10  H   UNL     1      39.292  -9.677   5.490  1.00  0.00     0.192 HD
BRANCH   7  11
HETATM   11  C   UNL     1      43.307 -10.940   7.025  1.00  0.00     0.047 A 
HETATM   12  C   UNL     1      43.727 -10.401   8.284  1.00  0.00     0.001 A 
HETATM   13  C   UNL     1      45.120 -10.328   8.557  1.00  0.00    -0.024 A 
HETATM   14  C   UNL     1      42.854  -9.914   9.292  1.00  0.00     0.014 A 
HETATM   15  C   UNL     1      45.583  -9.784   9.767  1.00  0.00     0.012 A 
HETATM   16  C   UNL     1      46.049 -10.793   7.618  1.00  0.00     0.012 A 
HETATM   17  C   UNL     1      44.696  -9.308  10.728  1.00  0.00     0.001 A 
HETATM   18  C   UNL     1      43.331  -9.374  10.491  1.00  0.00     0.001 A 
HETATM   19  C   UNL     1      45.628 -11.333   6.409  1.00  0.00     0.003 A 
HETATM   20  C   UNL     1      44.269 -11.406   6.118  1.00  0.00     0.030 A 
ENDBRANCH   7  11
ENDBRANCH   2   5
BRANCH   1  21
HETATM   21  C   UNL     1      39.563 -13.104   3.359  1.00  0.00     0.228 C 
BRANCH  21  22
HETATM   22  N   UNL     1      40.749 -13.825   3.788  1.00  0.00    -0.334 N 
HETATM   23  C   UNL     1      42.008 -13.322   3.709  1.00  0.00     0.321 C 
HETATM   24  N   UNL     1      43.030 -14.188   3.956  1.00  0.00    -0.309 N 
HETATM   25  O   UNL     1      42.223 -12.127   3.512  1.00  0.00    -0.247 OA
HETATM   26  H   UNL     1      43.900 -13.716   4.168  1.00  0.00     0.170 HD
HETATM   27  H   UNL     1      40.629 -14.625   4.399  1.00  0.00     0.164 HD
BRANCH  24  28
HETATM   28  C   UNL     1      43.131 -15.572   3.701  1.00  0.00     0.036 A 
HETATM   29  C   UNL     1      42.934 -16.149   2.444  1.00  0.00     0.032 A 
HETATM   30  C   UNL     1      43.160 -17.517   2.240  1.00  0.00     0.039 A 
HETATM   31  C   UNL     1      43.596 -18.322   3.289  1.00  0.00     0.068 A 
HETATM   32  C   UNL     1      43.768 -17.756   4.552  1.00  0.00     0.039 A 
HETATM   33  C   UNL     1      43.552 -16.389   4.755  1.00  0.00     0.032 A 
BRANCH  31  34
HETATM   34  O   UNL     1      43.879 -19.656   3.205  1.00  0.00    -0.356 OA
HETATM   35  C   UNL     1      43.521 -20.298   1.985  1.00  0.00     0.210 C 
ENDBRANCH  31  34
ENDBRANCH  24  28
ENDBRANCH  21  22
ENDBRANCH   1  21
TORSDOF 6
ENDMDL
MODEL 9
REMARK VINA RESULT:      -7.8      1.720      2.214
REMARK  6 active torsions:
REMARK  status: ('A' for Active; 'I' for Inactive)
REMARK    1  A    between atoms: O_2  and  C_3 
REMARK    2  A    between atoms: C_6  and  N_7 
REMARK       I    between atoms: N_7  and  C_8 
REMARK       I    between atoms: C_8  and  N_9 
REMARK    3  A    between atoms: N_9  and  C_10 
REMARK    4  A    between atoms: C_10  and  C_11 
REMARK       I    between atoms: C_11  and  N_12 
REMARK    5  A    between atoms: N_12  and  N_13 
REMARK       I    between atoms: N_13  and  C_14 
REMARK       I    between atoms: C_14  and  N_15 
REMARK    6  A    between atoms: N_15  and  C_16 
ROOT
HETATM    1  C   UNL     1      41.303 -10.681   5.208  1.00  0.00     0.253 C 
HETATM    2  N   UNL     1      41.326 -11.924   5.811  1.00  0.00    -0.265 N 
HETATM    3  O   UNL     1      41.991  -9.738   5.598  1.00  0.00    -0.270 OA
HETATM    4  H   UNL     1      40.864 -12.708   5.345  1.00  0.00     0.190 HD
ENDROOT
BRANCH   2   5
HETATM    5  N   UNL     1      42.351 -12.179   6.746  1.00  0.00    -0.249 N 
HETATM    6  C   UNL     1      43.056 -13.371   6.702  1.00  0.00     0.339 C 
HETATM    7  N   UNL     1      42.299 -14.454   6.316  1.00  0.00    -0.307 N 
HETATM    8  O   UNL     1      44.240 -13.377   7.027  1.00  0.00    -0.245 OA
HETATM    9  H   UNL     1      41.311 -14.317   6.432  1.00  0.00     0.170 HD
HETATM   10  H   UNL     1      42.970 -11.382   6.900  1.00  0.00     0.192 HD
BRANCH   7  11
HETATM   11  C   UNL     1      42.751 -15.779   6.073  1.00  0.00     0.047 A 
HETATM   12  C   UNL     1      42.982 -16.220   4.730  1.00  0.00     0.001 A 
HETATM   13  C   UNL     1      43.427 -17.555   4.524  1.00  0.00    -0.024 A 
HETATM   14  C   UNL     1      42.788 -15.428   3.569  1.00  0.00     0.014 A 
HETATM   15  C   UNL     1      43.644 -18.042   3.224  1.00  0.00     0.012 A 
HETATM   16  C   UNL     1      43.650 -18.401   5.617  1.00  0.00     0.012 A 
HETATM   17  C   UNL     1      43.433 -17.237   2.109  1.00  0.00     0.001 A 
HETATM   18  C   UNL     1      43.007 -15.928   2.281  1.00  0.00     0.001 A 
HETATM   19  C   UNL     1      43.443 -17.954   6.916  1.00  0.00     0.003 A 
HETATM   20  C   UNL     1      42.998 -16.654   7.140  1.00  0.00     0.030 A 
ENDBRANCH   7  11
ENDBRANCH   2   5
BRANCH   1  21
HETATM   21  C   UNL     1      40.497 -10.624   3.907  1.00  0.00     0.228 C 
BRANCH  21  22
HETATM   22  N   UNL     1      40.792 -11.644   2.915  1.00  0.00    -0.334 N 
HETATM   23  C   UNL     1      41.989 -11.757   2.284  1.00  0.00     0.321 C 
HETATM   24  N   UNL     1      42.049 -12.627   1.237  1.00  0.00    -0.309 N 
HETATM   25  O   UNL     1      42.998 -11.177   2.684  1.00  0.00    -0.247 OA
HETATM   26  H   UNL     1      42.998 -12.887   0.998  1.00  0.00     0.170 HD
HETATM   27  H   UNL     1      40.186 -12.454   2.866  1.00  0.00     0.164 HD
BRANCH  24  28
HETATM   28  C   UNL     1      41.061 -12.989   0.297  1.00  0.00     0.036 A 
HETATM   29  C   UNL     1      40.562 -14.286   0.154  1.00  0.00     0.032 A 
HETATM   30  C   UNL     1      39.501 -14.553  -0.725  1.00  0.00     0.039 A 
HETATM   31  C   UNL     1      38.922 -13.522  -1.460  1.00  0.00     0.068 A 
HETATM   32  C   UNL     1      39.435 -12.231  -1.340  1.00  0.00     0.039 A 
HETATM   33  C   UNL     1      40.486 -11.962  -0.457  1.00  0.00     0.032 A 
BRANCH  31  34
HETATM   34  O   UNL     1      37.868 -13.653  -2.319  1.00  0.00    -0.356 OA
HETATM   35  C   UNL     1      38.062 -14.534  -3.421  1.00  0.00     0.210 C 
ENDBRANCH  31  34
ENDBRANCH  24  28
ENDBRANCH  21  22
ENDBRANCH   1  21
TORSDOF 6
ENDMDL
MODEL 10
REMARK VINA RESULT:      -7.8      3.135      6.811
REMARK  6 active torsions:
REMARK  status: ('A' for Active; 'I' for Inactive)
REMARK    1  A    between atoms: O_2  and  C_3 
REMARK    2  A    between atoms: C_6  and  N_7 
REMARK       I    between atoms: N_7  and  C_8 
REMARK       I    between atoms: C_8  and  N_9 
REMARK    3  A    between atoms: N_9  and  C_10 
REMARK    4  A    between atoms: C_10  and  C_11 
REMARK       I    between atoms: C_11  and  N_12 
REMARK    5  A    between atoms: N_12  and  N_13 
REMARK       I    between atoms: N_13  and  C_14 
REMARK       I    between atoms: C_14  and  N_15 
REMARK    6  A    between atoms: N_15  and  C_16 
ROOT
HETATM    1  C   UNL     1      42.692 -12.203   3.365  1.00  0.00     0.253 C 
HETATM    2  N   UNL     1      42.853 -13.394   2.682  1.00  0.00    -0.265 N 
HETATM    3  O   UNL     1      41.591 -11.780   3.715  1.00  0.00    -0.270 OA
HETATM    4  H   UNL     1      43.795 -13.774   2.566  1.00  0.00     0.190 HD
ENDROOT
BRANCH   2   5
HETATM    5  N   UNL     1      41.741 -14.259   2.604  1.00  0.00    -0.249 N 
HETATM    6  C   UNL     1      41.667 -15.376   3.420  1.00  0.00     0.339 C 
HETATM    7  N   UNL     1      42.885 -15.969   3.669  1.00  0.00    -0.307 N 
HETATM    8  O   UNL     1      40.569 -15.756   3.815  1.00  0.00    -0.245 OA
HETATM    9  H   UNL     1      43.593 -15.732   2.997  1.00  0.00     0.170 HD
HETATM   10  H   UNL     1      40.846 -13.770   2.555  1.00  0.00     0.192 HD
BRANCH   7  11
HETATM   11  C   UNL     1      43.153 -17.054   4.546  1.00  0.00     0.047 A 
HETATM   12  C   UNL     1      43.432 -18.353   4.011  1.00  0.00     0.001 A 
HETATM   13  C   UNL     1      43.688 -19.417   4.918  1.00  0.00    -0.024 A 
HETATM   14  C   UNL     1      43.460 -18.675   2.628  1.00  0.00     0.014 A 
HETATM   15  C   UNL     1      43.943 -20.714   4.444  1.00  0.00     0.012 A 
HETATM   16  C   UNL     1      43.687 -19.183   6.299  1.00  0.00     0.012 A 
HETATM   17  C   UNL     1      43.953 -20.993   3.080  1.00  0.00     0.001 A 
HETATM   18  C   UNL     1      43.713 -19.972   2.172  1.00  0.00     0.001 A 
HETATM   19  C   UNL     1      43.435 -17.914   6.804  1.00  0.00     0.003 A 
HETATM   20  C   UNL     1      43.172 -16.859   5.933  1.00  0.00     0.030 A 
ENDBRANCH   7  11
ENDBRANCH   2   5
BRANCH   1  21
HETATM   21  C   UNL     1      44.002 -11.549   3.813  1.00  0.00     0.228 C 
BRANCH  21  22
HETATM   22  N   UNL     1      44.210 -11.425   5.246  1.00  0.00    -0.334 N 
HETATM   23  C   UNL     1      43.833 -12.369   6.146  1.00  0.00     0.321 C 
HETATM   24  N   UNL     1      43.907 -12.025   7.462  1.00  0.00    -0.309 N 
HETATM   25  O   UNL     1      43.524 -13.512   5.807  1.00  0.00    -0.247 OA
HETATM   26  H   UNL     1      43.899 -12.828   8.078  1.00  0.00     0.170 HD
HETATM   27  H   UNL     1      44.879 -10.740   5.575  1.00  0.00     0.164 HD
BRANCH  24  28
HETATM   28  C   UNL     1      43.720 -10.773   8.086  1.00  0.00     0.036 A 
HETATM   29  C   UNL     1      42.601  -9.961   7.881  1.00  0.00     0.032 A 
HETATM   30  C   UNL     1      42.428  -8.781   8.619  1.00  0.00     0.039 A 
HETATM   31  C   UNL     1      43.366  -8.407   9.577  1.00  0.00     0.068 A 
HETATM   32  C   UNL     1      44.497  -9.200   9.766  1.00  0.00     0.039 A 
HETATM   33  C   UNL     1      44.667 -10.382   9.037  1.00  0.00     0.032 A 
BRANCH  31  34
HETATM   34  O   UNL     1      43.290  -7.302  10.377  1.00  0.00    -0.356 OA
HETATM   35  C   UNL     1      42.825  -6.108   9.755  1.00  0.00     0.210 C 
ENDBRANCH  31  34
ENDBRANCH  24  28
ENDBRANCH  21  22
ENDBRANCH   1  21
TORSDOF 6
ENDMDL
