MODEL 1
REMARK VINA RESULT:      -8.4      0.000      0.000
REMARK  5 active torsions:
REMARK  status: ('A' for Active; 'I' for Inactive)
REMARK    1  A    between atoms: C_2  and  N_3 
REMARK    2  A    between atoms: C_2  and  C_16 
REMARK    3  A    between atoms: N_3  and  C_6 
REMARK    4  A    between atoms: C_6  and  C_7 
REMARK    5  A    between atoms: C_19  and  C_20 
ROOT
HETATM    1  C   UNL     1      43.477 -12.345   5.281  1.00  0.00     0.049 C 
HETATM    2  C   UNL     1      42.311 -13.296   5.032  1.00  0.00     0.260 C 
ENDROOT
BRANCH   2   3
HETATM    3  N   UNL     1      41.233 -12.515   4.324  1.00  0.00    -0.060 N 
HETATM    4  H   UNL     1      40.966 -11.701   4.898  1.00  0.00     0.278 HD
HETATM    5  H   UNL     1      41.591 -12.133   3.438  1.00  0.00     0.278 HD
BRANCH   3   6
HETATM    6  C   UNL     1      39.971 -13.264   4.039  1.00  0.00     0.274 C 
BRANCH   6   7
HETATM    7  C   UNL     1      39.992 -13.860   2.667  1.00  0.00     0.004 A 
HETATM    8  C   UNL     1      40.159 -13.065   1.542  1.00  0.00     0.113 A 
HETATM    9  C   UNL     1      40.166 -13.582   0.267  1.00  0.00     0.105 A 
HETATM   10  O   UNL     1      40.366 -11.716   1.554  1.00  0.00    -0.322 OA
HETATM   11  O   UNL     1      40.353 -12.628  -0.679  1.00  0.00    -0.323 OA
HETATM   12  C   UNL     1      40.010 -14.929   0.036  1.00  0.00     0.040 A 
HETATM   13  C   UNL     1      40.400 -11.437   0.126  1.00  0.00     0.352 A 
HETATM   14  C   UNL     1      39.834 -15.764   1.142  1.00  0.00     0.003 A 
HETATM   15  C   UNL     1      39.820 -15.235   2.448  1.00  0.00     0.012 A 
ENDBRANCH   6   7
ENDBRANCH   3   6
ENDBRANCH   2   3
BRANCH   2  16
HETATM   16  C   UNL     1      42.766 -14.516   4.306  1.00  0.00     0.203 A 
HETATM   17  O   UNL     1      43.202 -14.342   3.028  1.00  0.00    -0.194 OA
HETATM   18  N   UNL     1      43.519 -15.604   2.546  1.00  0.00    -0.106 NA
HETATM   19  C   UNL     1      43.271 -16.426   3.580  1.00  0.00     0.189 A 
HETATM   20  N   UNL     1      42.761 -15.769   4.687  1.00  0.00    -0.202 NA
BRANCH  19  21
HETATM   21  C   UNL     1      43.502 -17.865   3.563  1.00  0.00     0.017 A 
HETATM   22  C   UNL     1      43.236 -18.604   2.402  1.00  0.00     0.057 A 
HETATM   23  C   UNL     1      43.443 -19.980   2.391  1.00  0.00     0.117 A 
HETATM   24  F   UNL     1      43.178 -20.673   1.276  1.00  0.00    -0.206 F 
HETATM   25  C   UNL     1      43.915 -20.646   3.515  1.00  0.00     0.042 A 
HETATM   26  C   UNL     1      44.186 -19.923   4.675  1.00  0.00     0.004 A 
HETATM   27  C   UNL     1      43.979 -18.539   4.699  1.00  0.00     0.016 A 
ENDBRANCH  19  21
ENDBRANCH   2  16
TORSDOF 5
ENDMDL
MODEL 2
REMARK VINA RESULT:      -8.3      2.082      2.787
REMARK  5 active torsions:
REMARK  status: ('A' for Active; 'I' for Inactive)
REMARK    1  A    between atoms: C_2  and  N_3 
REMARK    2  A    between atoms: C_2  and  C_16 
REMARK    3  A    between atoms: N_3  and  C_6 
REMARK    4  A    between atoms: C_6  and  C_7 
REMARK    5  A    between atoms: C_19  and  C_20 
ROOT
HETATM    1  C   UNL     1      41.170 -12.640   2.201  1.00  0.00     0.049 C 
HETATM    2  C   UNL     1      40.488 -13.955   2.568  1.00  0.00     0.260 C 
ENDROOT
BRANCH   2   3
HETATM    3  N   UNL     1      39.666 -14.386   1.380  1.00  0.00    -0.060 N 
HETATM    4  H   UNL     1      39.370 -15.366   1.506  1.00  0.00     0.278 HD
HETATM    5  H   UNL     1      38.801 -13.833   1.324  1.00  0.00     0.278 HD
BRANCH   3   6
HETATM    6  C   UNL     1      40.358 -14.320   0.056  1.00  0.00     0.274 C 
BRANCH   6   7
HETATM    7  C   UNL     1      39.385 -14.067  -1.052  1.00  0.00     0.004 A 
HETATM    8  C   UNL     1      38.623 -12.908  -1.089  1.00  0.00     0.113 A 
HETATM    9  C   UNL     1      37.710 -12.657  -2.086  1.00  0.00     0.105 A 
HETATM   10  O   UNL     1      38.702 -11.884  -0.189  1.00  0.00    -0.322 OA
HETATM   11  O   UNL     1      37.086 -11.463  -1.929  1.00  0.00    -0.323 OA
HETATM   12  C   UNL     1      37.502 -13.548  -3.114  1.00  0.00     0.040 A 
HETATM   13  C   UNL     1      37.653 -11.008  -0.689  1.00  0.00     0.352 A 
HETATM   14  C   UNL     1      38.246 -14.730  -3.110  1.00  0.00     0.003 A 
HETATM   15  C   UNL     1      39.178 -14.992  -2.087  1.00  0.00     0.012 A 
ENDBRANCH   6   7
ENDBRANCH   3   6
ENDBRANCH   2   3
BRANCH   2  16
HETATM   16  C   UNL     1      41.488 -14.962   3.025  1.00  0.00     0.203 A 
HETATM   17  O   UNL     1      42.504 -14.506   3.808  1.00  0.00    -0.194 OA
HETATM   18  N   UNL     1      43.325 -15.595   4.060  1.00  0.00    -0.106 NA
HETATM   19  C   UNL     1      42.722 -16.618   3.431  1.00  0.00     0.189 A 
HETATM   20  N   UNL     1      41.584 -16.237   2.741  1.00  0.00    -0.202 NA
BRANCH  19  21
HETATM   21  C   UNL     1      43.198 -17.995   3.452  1.00  0.00     0.017 A 
HETATM   22  C   UNL     1      43.097 -18.791   2.304  1.00  0.00     0.057 A 
HETATM   23  C   UNL     1      43.539 -20.111   2.329  1.00  0.00     0.117 A 
HETATM   24  F   UNL     1      43.428 -20.860   1.225  1.00  0.00    -0.206 F 
HETATM   25  C   UNL     1      44.087 -20.663   3.480  1.00  0.00     0.042 A 
HETATM   26  C   UNL     1      44.197 -19.882   4.628  1.00  0.00     0.004 A 
HETATM   27  C   UNL     1      43.753 -18.555   4.615  1.00  0.00     0.016 A 
ENDBRANCH  19  21
ENDBRANCH   2  16
TORSDOF 5
ENDMDL
MODEL 3
REMARK VINA RESULT:      -8.3      1.777      2.459
REMARK  5 active torsions:
REMARK  status: ('A' for Active; 'I' for Inactive)
REMARK    1  A    between atoms: C_2  and  N_3 
REMARK    2  A    between atoms: C_2  and  C_16 
REMARK    3  A    between atoms: N_3  and  C_6 
REMARK    4  A    between atoms: C_6  and  C_7 
REMARK    5  A    between atoms: C_19  and  C_20 
ROOT
HETATM    1  C   UNL     1      43.562 -12.209   3.365  1.00  0.00     0.049 C 
HETATM    2  C   UNL     1      42.412 -13.190   3.160  1.00  0.00     0.260 C 
ENDROOT
BRANCH   2   3
HETATM    3  N   UNL     1      42.013 -13.123   1.707  1.00  0.00    -0.060 N 
HETATM    4  H   UNL     1      42.160 -12.165   1.355  1.00  0.00     0.278 HD
HETATM    5  H   UNL     1      42.622 -13.730   1.141  1.00  0.00     0.278 HD
BRANCH   3   6
HETATM    6  C   UNL     1      40.590 -13.471   1.410  1.00  0.00     0.274 C 
BRANCH   6   7
HETATM    7  C   UNL     1      40.326 -13.461  -0.062  1.00  0.00     0.004 A 
HETATM    8  C   UNL     1      40.683 -12.376  -0.849  1.00  0.00     0.113 A 
HETATM    9  C   UNL     1      40.439 -12.333  -2.202  1.00  0.00     0.105 A 
HETATM   10  O   UNL     1      41.333 -11.261  -0.406  1.00  0.00    -0.322 OA
HETATM   11  O   UNL     1      40.879 -11.184  -2.773  1.00  0.00    -0.323 OA
HETATM   12  C   UNL     1      39.823 -13.375  -2.856  1.00  0.00     0.040 A 
HETATM   13  C   UNL     1      41.373 -10.470  -1.627  1.00  0.00     0.352 A 
HETATM   14  C   UNL     1      39.442 -14.486  -2.098  1.00  0.00     0.003 A 
HETATM   15  C   UNL     1      39.687 -14.529  -0.712  1.00  0.00     0.012 A 
ENDBRANCH   6   7
ENDBRANCH   3   6
ENDBRANCH   2   3
BRANCH   2  16
HETATM   16  C   UNL     1      42.787 -14.553   3.634  1.00  0.00     0.203 A 
HETATM   17  O   UNL     1      43.159 -14.668   4.939  1.00  0.00    -0.194 OA
HETATM   18  N   UNL     1      43.508 -15.996   5.133  1.00  0.00    -0.106 NA
HETATM   19  C   UNL     1      43.293 -16.573   3.938  1.00  0.00     0.189 A 
HETATM   20  N   UNL     1      42.875 -15.678   2.969  1.00  0.00    -0.202 NA
BRANCH  19  21
HETATM   21  C   UNL     1      43.479 -17.993   3.664  1.00  0.00     0.017 A 
HETATM   22  C   UNL     1      43.979 -18.841   4.661  1.00  0.00     0.057 A 
HETATM   23  C   UNL     1      44.170 -20.193   4.393  1.00  0.00     0.117 A 
HETATM   24  F   UNL     1      44.654 -20.989   5.355  1.00  0.00    -0.206 F 
HETATM   25  C   UNL     1      43.870 -20.729   3.147  1.00  0.00     0.042 A 
HETATM   26  C   UNL     1      43.371 -19.898   2.147  1.00  0.00     0.004 A 
HETATM   27  C   UNL     1      43.177 -18.536   2.404  1.00  0.00     0.016 A 
ENDBRANCH  19  21
ENDBRANCH   2  16
TORSDOF 5
ENDMDL
MODEL 4
REMARK VINA RESULT:      -8.3      1.933      3.145
REMARK  5 active torsions:
REMARK  status: ('A' for Active; 'I' for Inactive)
REMARK    1  A    between atoms: C_2  and  N_3 
REMARK    2  A    between atoms: C_2  and  C_16 
REMARK    3  A    between atoms: N_3  and  C_6 
REMARK    4  A    between atoms: C_6  and  C_7 
REMARK    5  A    between atoms: C_19  and  C_20 
ROOT
HETATM    1  C   UNL     1      39.781 -12.783   3.561  1.00  0.00     0.049 C 
HETATM    2  C   UNL     1      39.729 -14.100   2.792  1.00  0.00     0.260 C 
ENDROOT
BRANCH   2   3
HETATM    3  N   UNL     1      39.590 -13.765   1.329  1.00  0.00    -0.060 N 
HETATM    4  H   UNL     1      39.207 -14.580   0.826  1.00  0.00     0.278 HD
HETATM    5  H   UNL     1      38.909 -13.005   1.199  1.00  0.00     0.278 HD
BRANCH   3   6
HETATM    6  C   UNL     1      40.856 -13.391   0.627  1.00  0.00     0.274 C 
BRANCH   6   7
HETATM    7  C   UNL     1      40.578 -12.829  -0.731  1.00  0.00     0.004 A 
HETATM    8  C   UNL     1      39.855 -13.548  -1.672  1.00  0.00     0.113 A 
HETATM    9  C   UNL     1      39.597 -13.064  -2.933  1.00  0.00     0.105 A 
HETATM   10  O   UNL     1      39.293 -14.775  -1.464  1.00  0.00    -0.322 OA
HETATM   11  O   UNL     1      38.867 -13.928  -3.682  1.00  0.00    -0.323 OA
HETATM   12  C   UNL     1      40.044 -11.826  -3.334  1.00  0.00     0.040 A 
HETATM   13  C   UNL     1      38.741 -15.044  -2.784  1.00  0.00     0.352 A 
HETATM   14  C   UNL     1      40.781 -11.072  -2.417  1.00  0.00     0.003 A 
HETATM   15  C   UNL     1      41.050 -11.568  -1.128  1.00  0.00     0.012 A 
ENDBRANCH   6   7
ENDBRANCH   3   6
ENDBRANCH   2   3
BRANCH   2  16
HETATM   16  C   UNL     1      40.907 -14.952   3.121  1.00  0.00     0.203 A 
HETATM   17  O   UNL     1      41.993 -14.322   3.648  1.00  0.00    -0.194 OA
HETATM   18  N   UNL     1      42.967 -15.294   3.819  1.00  0.00    -0.106 NA
HETATM   19  C   UNL     1      42.379 -16.430   3.405  1.00  0.00     0.189 A 
HETATM   20  N   UNL     1      41.095 -16.234   2.925  1.00  0.00    -0.202 NA
BRANCH  19  21
HETATM   21  C   UNL     1      43.007 -17.744   3.442  1.00  0.00     0.017 A 
HETATM   22  C   UNL     1      42.967 -18.574   2.313  1.00  0.00     0.057 A 
HETATM   23  C   UNL     1      43.555 -19.834   2.353  1.00  0.00     0.117 A 
HETATM   24  F   UNL     1      43.501 -20.616   1.268  1.00  0.00    -0.206 F 
HETATM   25  C   UNL     1      44.190 -20.295   3.499  1.00  0.00     0.042 A 
HETATM   26  C   UNL     1      44.240 -19.480   4.628  1.00  0.00     0.004 A 
HETATM   27  C   UNL     1      43.651 -18.212   4.600  1.00  0.00     0.016 A 
ENDBRANCH  19  21
ENDBRANCH   2  16
TORSDOF 5
ENDMDL
MODEL 5
REMARK VINA RESULT:      -8.2      2.066      4.250
REMARK  5 active torsions:
REMARK  status: ('A' for Active; 'I' for Inactive)
REMARK    1  A    between atoms: C_2  and  N_3 
REMARK    2  A    between atoms: C_2  and  C_16 
REMARK    3  A    between atoms: N_3  and  C_6 
REMARK    4  A    between atoms: C_6  and  C_7 
REMARK    5  A    between atoms: C_19  and  C_20 
ROOT
HETATM    1  C   UNL     1      39.930 -13.509   1.378  1.00  0.00     0.049 C 
HETATM    2  C   UNL     1      40.698 -13.738   2.676  1.00  0.00     0.260 C 
ENDROOT
BRANCH   2   3
HETATM    3  N   UNL     1      39.683 -13.920   3.777  1.00  0.00    -0.060 N 
HETATM    4  H   UNL     1      38.761 -13.595   3.450  1.00  0.00     0.278 HD
HETATM    5  H   UNL     1      39.570 -14.918   3.998  1.00  0.00     0.278 HD
BRANCH   3   6
HETATM    6  C   UNL     1      39.966 -13.183   5.046  1.00  0.00     0.274 C 
BRANCH   6   7
HETATM    7  C   UNL     1      41.042 -13.858   5.836  1.00  0.00     0.004 A 
HETATM    8  C   UNL     1      42.269 -13.245   6.049  1.00  0.00     0.113 A 
HETATM    9  C   UNL     1      43.282 -13.847   6.757  1.00  0.00     0.105 A 
HETATM   10  O   UNL     1      42.608 -11.992   5.625  1.00  0.00    -0.322 OA
HETATM   11  O   UNL     1      44.387 -13.065   6.849  1.00  0.00    -0.323 OA
HETATM   12  C   UNL     1      43.133 -15.101   7.303  1.00  0.00     0.040 A 
HETATM   13  C   UNL     1      43.993 -11.926   6.067  1.00  0.00     0.352 A 
HETATM   14  C   UNL     1      41.914 -15.755   7.108  1.00  0.00     0.003 A 
HETATM   15  C   UNL     1      40.877 -15.142   6.378  1.00  0.00     0.012 A 
ENDBRANCH   6   7
ENDBRANCH   3   6
ENDBRANCH   2   3
BRANCH   2  16
HETATM   16  C   UNL     1      41.660 -14.868   2.532  1.00  0.00     0.203 A 
HETATM   17  O   UNL     1      42.761 -14.641   1.763  1.00  0.00    -0.194 OA
HETATM   18  N   UNL     1      43.470 -15.833   1.732  1.00  0.00    -0.106 NA
HETATM   19  C   UNL     1      42.752 -16.667   2.504  1.00  0.00     0.189 A 
HETATM   20  N   UNL     1      41.589 -16.094   2.988  1.00  0.00    -0.202 NA
BRANCH  19  21
HETATM   21  C   UNL     1      43.134 -18.040   2.811  1.00  0.00     0.017 A 
HETATM   22  C   UNL     1      43.692 -18.351   4.058  1.00  0.00     0.057 A 
HETATM   23  C   UNL     1      44.069 -19.659   4.345  1.00  0.00     0.117 A 
HETATM   24  F   UNL     1      44.607 -19.938   5.539  1.00  0.00    -0.206 F 
HETATM   25  C   UNL     1      43.902 -20.676   3.414  1.00  0.00     0.042 A 
HETATM   26  C   UNL     1      43.347 -20.382   2.171  1.00  0.00     0.004 A 
HETATM   27  C   UNL     1      42.966 -19.070   1.871  1.00  0.00     0.016 A 
ENDBRANCH  19  21
ENDBRANCH   2  16
TORSDOF 5
ENDMDL
MODEL 6
REMARK VINA RESULT:      -8.2      3.039      5.627
REMARK  5 active torsions:
REMARK  status: ('A' for Active; 'I' for Inactive)
REMARK    1  A    between atoms: C_2  and  N_3 
REMARK    2  A    between atoms: C_2  and  C_16 
REMARK    3  A    between atoms: N_3  and  C_6 
REMARK    4  A    between atoms: C_6  and  C_7 
REMARK    5  A    between atoms: C_19  and  C_20 
ROOT
HETATM    1  C   UNL     1      40.647 -13.826   6.141  1.00  0.00     0.049 C 
HETATM    2  C   UNL     1      41.931 -13.433   5.417  1.00  0.00     0.260 C 
ENDROOT
BRANCH   2   3
HETATM    3  N   UNL     1      42.867 -12.842   6.442  1.00  0.00    -0.060 N 
HETATM    4  H   UNL     1      42.344 -12.195   7.051  1.00  0.00     0.278 HD
HETATM    5  H   UNL     1      43.233 -13.580   7.059  1.00  0.00     0.278 HD
BRANCH   3   6
HETATM    6  C   UNL     1      44.021 -12.067   5.893  1.00  0.00     0.274 C 
BRANCH   6   7
HETATM    7  C   UNL     1      44.435 -10.975   6.828  1.00  0.00     0.004 A 
HETATM    8  C   UNL     1      43.503 -10.098   7.364  1.00  0.00     0.113 A 
HETATM    9  C   UNL     1      43.856  -9.076   8.214  1.00  0.00     0.105 A 
HETATM   10  O   UNL     1      42.155 -10.154   7.153  1.00  0.00    -0.322 OA
HETATM   11  O   UNL     1      42.786  -8.348   8.623  1.00  0.00    -0.323 OA
HETATM   12  C   UNL     1      45.164  -8.866   8.585  1.00  0.00     0.040 A 
HETATM   13  C   UNL     1      41.720  -8.978   7.892  1.00  0.00     0.352 A 
HETATM   14  C   UNL     1      46.134  -9.725   8.063  1.00  0.00     0.003 A 
HETATM   15  C   UNL     1      45.776 -10.770   7.189  1.00  0.00     0.012 A 
ENDBRANCH   6   7
ENDBRANCH   3   6
ENDBRANCH   2   3
BRANCH   2  16
HETATM   16  C   UNL     1      42.492 -14.592   4.665  1.00  0.00     0.203 A 
HETATM   17  O   UNL     1      42.995 -14.334   3.426  1.00  0.00    -0.194 OA
HETATM   18  N   UNL     1      43.404 -15.553   2.907  1.00  0.00    -0.106 NA
HETATM   19  C   UNL     1      43.137 -16.436   3.884  1.00  0.00     0.189 A 
HETATM   20  N   UNL     1      42.527 -15.861   4.986  1.00  0.00    -0.202 NA
BRANCH  19  21
HETATM   21  C   UNL     1      43.442 -17.860   3.813  1.00  0.00     0.017 A 
HETATM   22  C   UNL     1      43.328 -18.543   2.595  1.00  0.00     0.057 A 
HETATM   23  C   UNL     1      43.605 -19.905   2.531  1.00  0.00     0.117 A 
HETATM   24  F   UNL     1      43.486 -20.544   1.361  1.00  0.00    -0.206 F 
HETATM   25  C   UNL     1      43.999 -20.612   3.661  1.00  0.00     0.042 A 
HETATM   26  C   UNL     1      44.118 -19.946   4.878  1.00  0.00     0.004 A 
HETATM   27  C   UNL     1      43.840 -18.577   4.954  1.00  0.00     0.016 A 
ENDBRANCH  19  21
ENDBRANCH   2  16
TORSDOF 5
ENDMDL
MODEL 7
REMARK VINA RESULT:      -8.0      2.926      6.750
REMARK  5 active torsions:
REMARK  status: ('A' for Active; 'I' for Inactive)
REMARK    1  A    between atoms: C_2  and  N_3 
REMARK    2  A    between atoms: C_2  and  C_16 
REMARK    3  A    between atoms: N_3  and  C_6 
REMARK    4  A    between atoms: C_6  and  C_7 
REMARK    5  A    between atoms: C_19  and  C_20 
ROOT
HETATM    1  C   UNL     1      40.392 -14.895   6.187  1.00  0.00     0.049 C 
HETATM    2  C   UNL     1      41.534 -14.995   5.180  1.00  0.00     0.260 C 
ENDROOT
BRANCH   2   3
HETATM    3  N   UNL     1      42.346 -16.214   5.535  1.00  0.00    -0.060 N 
HETATM    4  H   UNL     1      42.606 -16.175   6.532  1.00  0.00     0.278 HD
HETATM    5  H   UNL     1      41.781 -17.066   5.422  1.00  0.00     0.278 HD
BRANCH   3   6
HETATM    6  C   UNL     1      43.620 -16.387   4.773  1.00  0.00     0.274 C 
BRANCH   6   7
HETATM    7  C   UNL     1      43.566 -17.596   3.893  1.00  0.00     0.004 A 
HETATM    8  C   UNL     1      43.752 -18.870   4.410  1.00  0.00     0.113 A 
HETATM    9  C   UNL     1      43.723 -19.997   3.624  1.00  0.00     0.105 A 
HETATM   10  O   UNL     1      43.947 -19.164   5.729  1.00  0.00    -0.322 OA
HETATM   11  O   UNL     1      43.919 -21.134   4.338  1.00  0.00    -0.323 OA
HETATM   12  C   UNL     1      43.503 -19.924   2.267  1.00  0.00     0.040 A 
HETATM   13  C   UNL     1      44.140 -20.605   5.656  1.00  0.00     0.352 A 
HETATM   14  C   UNL     1      43.316 -18.658   1.706  1.00  0.00     0.003 A 
HETATM   15  C   UNL     1      43.351 -17.502   2.509  1.00  0.00     0.012 A 
ENDBRANCH   6   7
ENDBRANCH   3   6
ENDBRANCH   2   3
BRANCH   2  16
HETATM   16  C   UNL     1      41.010 -14.988   3.783  1.00  0.00     0.203 A 
HETATM   17  O   UNL     1      40.196 -16.020   3.428  1.00  0.00    -0.194 OA
HETATM   18  N   UNL     1      39.883 -15.831   2.090  1.00  0.00    -0.106 NA
HETATM   19  C   UNL     1      40.512 -14.689   1.761  1.00  0.00     0.189 A 
HETATM   20  N   UNL     1      41.259 -14.160   2.799  1.00  0.00    -0.202 NA
BRANCH  19  21
HETATM   21  C   UNL     1      40.436 -14.056   0.450  1.00  0.00     0.017 A 
HETATM   22  C   UNL     1      39.822 -14.723  -0.618  1.00  0.00     0.057 A 
HETATM   23  C   UNL     1      39.764 -14.124  -1.872  1.00  0.00     0.117 A 
HETATM   24  F   UNL     1      39.179 -14.779  -2.884  1.00  0.00    -0.206 F 
HETATM   25  C   UNL     1      40.304 -12.863  -2.093  1.00  0.00     0.042 A 
HETATM   26  C   UNL     1      40.914 -12.187  -1.040  1.00  0.00     0.004 A 
HETATM   27  C   UNL     1      40.981 -12.781   0.225  1.00  0.00     0.016 A 
ENDBRANCH  19  21
ENDBRANCH   2  16
TORSDOF 5
ENDMDL
MODEL 8
REMARK VINA RESULT:      -8.0      2.917      7.274
REMARK  5 active torsions:
REMARK  status: ('A' for Active; 'I' for Inactive)
REMARK    1  A    between atoms: C_2  and  N_3 
REMARK    2  A    between atoms: C_2  and  C_16 
REMARK    3  A    between atoms: N_3  and  C_6 
REMARK    4  A    between atoms: C_6  and  C_7 
REMARK    5  A    between atoms: C_19  and  C_20 
ROOT
HETATM    1  C   UNL     1      40.606 -15.768   4.756  1.00  0.00     0.049 C 
HETATM    2  C   UNL     1      41.712 -15.246   3.844  1.00  0.00     0.260 C 
ENDROOT
BRANCH   2   3
HETATM    3  N   UNL     1      42.512 -16.435   3.376  1.00  0.00    -0.060 N 
HETATM    4  H   UNL     1      41.916 -17.277   3.390  1.00  0.00     0.278 HD
HETATM    5  H   UNL     1      42.802 -16.309   2.397  1.00  0.00     0.278 HD
BRANCH   3   6
HETATM    6  C   UNL     1      43.724 -16.760   4.190  1.00  0.00     0.274 C 
BRANCH   6   7
HETATM    7  C   UNL     1      43.755 -18.210   4.560  1.00  0.00     0.004 A 
HETATM    8  C   UNL     1      43.815 -19.198   3.587  1.00  0.00     0.113 A 
HETATM    9  C   UNL     1      43.829 -20.538   3.897  1.00  0.00     0.105 A 
HETATM   10  O   UNL     1      43.898 -18.977   2.243  1.00  0.00    -0.322 OA
HETATM   11  O   UNL     1      43.899 -21.325   2.794  1.00  0.00    -0.323 OA
HETATM   12  C   UNL     1      43.789 -20.976   5.201  1.00  0.00     0.040 A 
HETATM   13  C   UNL     1      43.862 -20.343   1.744  1.00  0.00     0.352 A 
HETATM   14  C   UNL     1      43.724 -20.012   6.210  1.00  0.00     0.003 A 
HETATM   15  C   UNL     1      43.703 -18.640   5.895  1.00  0.00     0.012 A 
ENDBRANCH   6   7
ENDBRANCH   3   6
ENDBRANCH   2   3
BRANCH   2  16
HETATM   16  C   UNL     1      41.144 -14.414   2.744  1.00  0.00     0.203 A 
HETATM   17  O   UNL     1      41.192 -13.064   2.909  1.00  0.00    -0.194 OA
HETATM   18  N   UNL     1      40.566 -12.510   1.802  1.00  0.00    -0.106 NA
HETATM   19  C   UNL     1      40.218 -13.570   1.053  1.00  0.00     0.189 A 
HETATM   20  N   UNL     1      40.537 -14.781   1.643  1.00  0.00    -0.202 NA
BRANCH  19  21
HETATM   21  C   UNL     1      39.566 -13.482  -0.248  1.00  0.00     0.017 A 
HETATM   22  C   UNL     1      39.483 -14.614  -1.070  1.00  0.00     0.057 A 
HETATM   23  C   UNL     1      38.874 -14.525  -2.318  1.00  0.00     0.117 A 
HETATM   24  F   UNL     1      38.809 -15.614  -3.094  1.00  0.00    -0.206 F 
HETATM   25  C   UNL     1      38.336 -13.327  -2.772  1.00  0.00     0.042 A 
HETATM   26  C   UNL     1      38.409 -12.195  -1.964  1.00  0.00     0.004 A 
HETATM   27  C   UNL     1      39.022 -12.272  -0.709  1.00  0.00     0.016 A 
ENDBRANCH  19  21
ENDBRANCH   2  16
TORSDOF 5
ENDMDL
MODEL 9
REMARK VINA RESULT:      -7.9      1.928      2.553
REMARK  5 active torsions:
REMARK  status: ('A' for Active; 'I' for Inactive)
REMARK    1  A    between atoms: C_2  and  N_3 
REMARK    2  A    between atoms: C_2  and  C_16 
REMARK    3  A    between atoms: N_3  and  C_6 
REMARK    4  A    between atoms: C_6  and  C_7 
REMARK    5  A    between atoms: C_19  and  C_20 
ROOT
HETATM    1  C   UNL     1      44.104 -13.135   6.745  1.00  0.00     0.049 C 
HETATM    2  C   UNL     1      42.901 -14.068   6.641  1.00  0.00     0.260 C 
ENDROOT
BRANCH   2   3
HETATM    3  N   UNL     1      41.688 -13.216   6.366  1.00  0.00    -0.060 N 
HETATM    4  H   UNL     1      41.367 -12.784   7.245  1.00  0.00     0.278 HD
HETATM    5  H   UNL     1      41.933 -12.437   5.739  1.00  0.00     0.278 HD
BRANCH   3   6
HETATM    6  C   UNL     1      40.510 -13.934   5.791  1.00  0.00     0.274 C 
BRANCH   6   7
HETATM    7  C   UNL     1      40.010 -13.253   4.556  1.00  0.00     0.004 A 
HETATM    8  C   UNL     1      39.439 -11.990   4.614  1.00  0.00     0.113 A 
HETATM    9  C   UNL     1      38.956 -11.346   3.498  1.00  0.00     0.105 A 
HETATM   10  O   UNL     1      39.316 -11.231   5.742  1.00  0.00    -0.322 OA
HETATM   11  O   UNL     1      38.451 -10.120   3.785  1.00  0.00    -0.323 OA
HETATM   12  C   UNL     1      39.017 -11.924   2.251  1.00  0.00     0.040 A 
HETATM   13  C   UNL     1      38.604 -10.078   5.213  1.00  0.00     0.352 A 
HETATM   14  C   UNL     1      39.580 -13.198   2.150  1.00  0.00     0.003 A 
HETATM   15  C   UNL     1      40.070 -13.861   3.292  1.00  0.00     0.012 A 
ENDBRANCH   6   7
ENDBRANCH   3   6
ENDBRANCH   2   3
BRANCH   2  16
HETATM   16  C   UNL     1      43.146 -15.137   5.631  1.00  0.00     0.203 A 
HETATM   17  O   UNL     1      43.256 -14.741   4.333  1.00  0.00    -0.194 OA
HETATM   18  N   UNL     1      43.425 -15.895   3.582  1.00  0.00    -0.106 NA
HETATM   19  C   UNL     1      43.428 -16.885   4.492  1.00  0.00     0.189 A 
HETATM   20  N   UNL     1      43.216 -16.437   5.784  1.00  0.00    -0.202 NA
BRANCH  19  21
HETATM   21  C   UNL     1      43.626 -18.294   4.177  1.00  0.00     0.017 A 
HETATM   22  C   UNL     1      43.491 -18.743   2.856  1.00  0.00     0.057 A 
HETATM   23  C   UNL     1      43.666 -20.091   2.558  1.00  0.00     0.117 A 
HETATM   24  F   UNL     1      43.526 -20.505   1.292  1.00  0.00    -0.206 F 
HETATM   25  C   UNL     1      43.977 -21.013   3.550  1.00  0.00     0.042 A 
HETATM   26  C   UNL     1      44.117 -20.580   4.866  1.00  0.00     0.004 A 
HETATM   27  C   UNL     1      43.941 -19.227   5.178  1.00  0.00     0.016 A 
ENDBRANCH  19  21
ENDBRANCH   2  16
TORSDOF 5
ENDMDL
MODEL 10
REMARK VINA RESULT:      -7.8      6.417      9.441
REMARK  5 active torsions:
REMARK  status: ('A' for Active; 'I' for Inactive)
REMARK    1  A    between atoms: C_2  and  N_3 
REMARK    2  A    between atoms: C_2  and  C_16 
REMARK    3  A    between atoms: N_3  and  C_6 
REMARK    4  A    between atoms: C_6  and  C_7 
REMARK    5  A    between atoms: C_19  and  C_20 
ROOT
HETATM    1  C   UNL     1      45.409 -11.276   6.722  1.00  0.00     0.049 C 
HETATM    2  C   UNL     1      44.079 -10.684   7.179  1.00  0.00     0.260 C 
ENDROOT
BRANCH   2   3
HETATM    3  N   UNL     1      42.985 -11.607   6.704  1.00  0.00    -0.060 N 
HETATM    4  H   UNL     1      42.886 -12.390   7.368  1.00  0.00     0.278 HD
HETATM    5  H   UNL     1      42.080 -11.119   6.703  1.00  0.00     0.278 HD
BRANCH   3   6
HETATM    6  C   UNL     1      43.194 -12.219   5.357  1.00  0.00     0.274 C 
BRANCH   6   7
HETATM    7  C   UNL     1      42.476 -13.526   5.237  1.00  0.00     0.004 A 
HETATM    8  C   UNL     1      42.568 -14.490   6.231  1.00  0.00     0.113 A 
HETATM    9  C   UNL     1      41.932 -15.706   6.141  1.00  0.00     0.105 A 
HETATM   10  O   UNL     1      43.251 -14.349   7.404  1.00  0.00    -0.322 OA
HETATM   11  O   UNL     1      42.152 -16.488   7.228  1.00  0.00    -0.323 OA
HETATM   12  C   UNL     1      41.158 -16.036   5.052  1.00  0.00     0.040 A 
HETATM   13  C   UNL     1      43.050 -15.665   7.992  1.00  0.00     0.352 A 
HETATM   14  C   UNL     1      41.044 -15.094   4.026  1.00  0.00     0.003 A 
HETATM   15  C   UNL     1      41.699 -13.851   4.114  1.00  0.00     0.012 A 
ENDBRANCH   6   7
ENDBRANCH   3   6
ENDBRANCH   2   3
BRANCH   2  16
HETATM   16  C   UNL     1      44.084 -10.439   8.650  1.00  0.00     0.203 A 
HETATM   17  O   UNL     1      45.151 -10.918   9.347  1.00  0.00    -0.194 OA
HETATM   18  N   UNL     1      44.913 -10.622  10.681  1.00  0.00    -0.106 NA
HETATM   19  C   UNL     1      43.738  -9.969  10.672  1.00  0.00     0.189 A 
HETATM   20  N   UNL     1      43.178  -9.875   9.409  1.00  0.00    -0.202 NA
BRANCH  19  21
HETATM   21  C   UNL     1      43.095  -9.412  11.855  1.00  0.00     0.017 A 
HETATM   22  C   UNL     1      41.922  -9.994  12.356  1.00  0.00     0.057 A 
HETATM   23  C   UNL     1      41.301  -9.453  13.477  1.00  0.00     0.117 A 
HETATM   24  F   UNL     1      40.178 -10.017  13.939  1.00  0.00    -0.206 F 
HETATM   25  C   UNL     1      41.823  -8.338  14.121  1.00  0.00     0.042 A 
HETATM   26  C   UNL     1      42.989  -7.751  13.636  1.00  0.00     0.004 A 
HETATM   27  C   UNL     1      43.621  -8.285  12.507  1.00  0.00     0.016 A 
ENDBRANCH  19  21
ENDBRANCH   2  16
TORSDOF 5
ENDMDL
