MODEL 1
REMARK VINA RESULT:      -8.1      0.000      0.000
REMARK  4 active torsions:
REMARK  status: ('A' for Active; 'I' for Inactive)
REMARK    1  A    between atoms: C_4  and  N_5 
REMARK       I    between atoms: N_5  and  C_6 
REMARK    2  A    between atoms: C_6  and  C_7 
REMARK    3  A    between atoms: C_11  and  C_12 
REMARK    4  A    between atoms: C_18  and  N_19 
REMARK       I    between atoms: N_19  and  C_20 
ROOT
HETATM    1  N   UNL     1      41.871 -15.915   2.819  1.00  0.00    -0.320 N 
HETATM    2  C   UNL     1      40.611 -15.576   3.265  1.00  0.00     0.276 C 
HETATM    3  O   UNL     1      39.982 -16.164   4.139  1.00  0.00    -0.266 OA
HETATM    4  H   UNL     1      42.331 -15.209   2.250  1.00  0.00     0.169 HD
ENDROOT
BRANCH   1   5
HETATM    5  C   UNL     1      42.687 -17.013   3.188  1.00  0.00     0.062 A 
HETATM    6  C   UNL     1      42.765 -18.156   2.371  1.00  0.00     0.038 A 
HETATM    7  C   UNL     1      43.605 -19.238   2.673  1.00  0.00    -0.060 A 
HETATM    8  C   UNL     1      43.664 -20.438   1.774  1.00  0.00     0.048 C 
HETATM    9  C   UNL     1      44.423 -19.162   3.794  1.00  0.00     0.009 A 
HETATM   10  C   UNL     1      44.372 -18.036   4.615  1.00  0.00     0.032 A 
HETATM   11  C   UNL     1      43.497 -16.962   4.350  1.00  0.00     0.061 A 
BRANCH  11  12
HETATM   12  N   UNL     1      43.576 -15.921   5.315  1.00  0.00    -0.326 N 
HETATM   13  C   UNL     1      42.819 -15.709   6.444  1.00  0.00     0.218 C 
HETATM   14  C   UNL     1      43.206 -14.453   7.183  1.00  0.00     0.117 C 
HETATM   15  O   UNL     1      41.935 -16.444   6.869  1.00  0.00    -0.274 OA
HETATM   16  H   UNL     1      44.402 -15.339   5.245  1.00  0.00     0.169 HD
ENDBRANCH  11  12
ENDBRANCH   1   5
BRANCH   2  17
HETATM   17  C   UNL     1      40.048 -14.393   2.665  1.00  0.00     0.142 A 
HETATM   18  N   UNL     1      39.374 -13.480   3.435  1.00  0.00    -0.271 N 
HETATM   19  H   UNL     1      39.200 -13.545   4.434  1.00  0.00     0.189 HD
HETATM   20  N   UNL     1      38.940 -12.399   2.769  1.00  0.00    -0.177 NA
HETATM   21  C   UNL     1      39.303 -12.651   1.506  1.00  0.00     0.083 A 
HETATM   22  C   UNL     1      39.961 -13.899   1.378  1.00  0.00     0.094 A 
HETATM   23 CL   UNL     1      40.472 -14.617  -0.075  1.00  0.00    -0.079 Cl
BRANCH  21  24
HETATM   24  C   UNL     1      39.022 -11.685   0.358  1.00  0.00     0.041 A 
HETATM   25  C   UNL     1      38.257 -12.186  -0.851  1.00  0.00     0.011 A 
HETATM   26  C   UNL     1      37.586 -11.264   0.108  1.00  0.00     0.011 A 
ENDBRANCH  21  24
ENDBRANCH   2  17
TORSDOF 4
ENDMDL
MODEL 2
REMARK VINA RESULT:      -8.0      1.909      2.137
REMARK  4 active torsions:
REMARK  status: ('A' for Active; 'I' for Inactive)
REMARK    1  A    between atoms: C_4  and  N_5 
REMARK       I    between atoms: N_5  and  C_6 
REMARK    2  A    between atoms: C_6  and  C_7 
REMARK    3  A    between atoms: C_11  and  C_12 
REMARK    4  A    between atoms: C_18  and  N_19 
REMARK       I    between atoms: N_19  and  C_20 
ROOT
HETATM    1  N   UNL     1      42.355 -15.578   1.914  1.00  0.00    -0.320 N 
HETATM    2  C   UNL     1      41.062 -15.336   1.501  1.00  0.00     0.276 C 
HETATM    3  O   UNL     1      40.084 -16.022   1.780  1.00  0.00    -0.266 OA
HETATM    4  H   UNL     1      43.003 -14.807   1.774  1.00  0.00     0.169 HD
ENDROOT
BRANCH   1   5
HETATM    5  C   UNL     1      42.867 -16.662   2.669  1.00  0.00     0.062 A 
HETATM    6  C   UNL     1      43.025 -17.932   2.083  1.00  0.00     0.038 A 
HETATM    7  C   UNL     1      43.581 -19.016   2.781  1.00  0.00    -0.060 A 
HETATM    8  C   UNL     1      43.737 -20.354   2.120  1.00  0.00     0.048 C 
HETATM    9  C   UNL     1      44.033 -18.818   4.079  1.00  0.00     0.009 A 
HETATM   10  C   UNL     1      43.897 -17.567   4.679  1.00  0.00     0.032 A 
HETATM   11  C   UNL     1      43.296 -16.482   4.008  1.00  0.00     0.061 A 
BRANCH  11  12
HETATM   12  N   UNL     1      43.229 -15.301   4.795  1.00  0.00    -0.326 N 
HETATM   13  C   UNL     1      42.137 -14.544   5.154  1.00  0.00     0.218 C 
HETATM   14  C   UNL     1      42.505 -13.334   5.973  1.00  0.00     0.117 C 
HETATM   15  O   UNL     1      40.966 -14.795   4.891  1.00  0.00    -0.274 OA
HETATM   16  H   UNL     1      44.083 -15.069   5.286  1.00  0.00     0.169 HD
ENDBRANCH  11  12
ENDBRANCH   1   5
BRANCH   2  17
HETATM   17  C   UNL     1      40.883 -14.135   0.723  1.00  0.00     0.142 A 
HETATM   18  N   UNL     1      41.396 -12.942   1.165  1.00  0.00    -0.271 N 
HETATM   19  H   UNL     1      41.904 -12.788   2.031  1.00  0.00     0.189 HD
HETATM   20  N   UNL     1      41.205 -11.909   0.330  1.00  0.00    -0.177 NA
HETATM   21  C   UNL     1      40.493 -12.447  -0.667  1.00  0.00     0.083 A 
HETATM   22  C   UNL     1      40.231 -13.823  -0.453  1.00  0.00     0.094 A 
HETATM   23 CL   UNL     1      39.270 -14.823  -1.435  1.00  0.00    -0.079 Cl
BRANCH  21  24
HETATM   24  C   UNL     1      40.032 -11.644  -1.879  1.00  0.00     0.041 A 
HETATM   25  C   UNL     1      40.863 -10.461  -2.334  1.00  0.00     0.011 A 
HETATM   26  C   UNL     1      40.865 -11.711  -3.146  1.00  0.00     0.011 A 
ENDBRANCH  21  24
ENDBRANCH   2  17
TORSDOF 4
ENDMDL
MODEL 3
REMARK VINA RESULT:      -7.9      2.005      2.158
REMARK  4 active torsions:
REMARK  status: ('A' for Active; 'I' for Inactive)
REMARK    1  A    between atoms: C_4  and  N_5 
REMARK       I    between atoms: N_5  and  C_6 
REMARK    2  A    between atoms: C_6  and  C_7 
REMARK    3  A    between atoms: C_11  and  C_12 
REMARK    4  A    between atoms: C_18  and  N_19 
REMARK       I    between atoms: N_19  and  C_20 
ROOT
HETATM    1  N   UNL     1      41.851 -15.746   1.556  1.00  0.00    -0.320 N 
HETATM    2  C   UNL     1      40.511 -15.423   1.515  1.00  0.00     0.276 C 
HETATM    3  O   UNL     1      39.658 -15.811   2.306  1.00  0.00    -0.266 OA
HETATM    4  H   UNL     1      42.450 -15.179   0.962  1.00  0.00     0.169 HD
ENDROOT
BRANCH   1   5
HETATM    5  C   UNL     1      42.534 -16.621   2.437  1.00  0.00     0.062 A 
HETATM    6  C   UNL     1      42.775 -17.959   2.075  1.00  0.00     0.038 A 
HETATM    7  C   UNL     1      43.498 -18.839   2.896  1.00  0.00    -0.060 A 
HETATM    8  C   UNL     1      43.739 -20.258   2.473  1.00  0.00     0.048 C 
HETATM    9  C   UNL     1      44.033 -18.362   4.086  1.00  0.00     0.009 A 
HETATM   10  C   UNL     1      43.817 -17.037   4.462  1.00  0.00     0.032 A 
HETATM   11  C   UNL     1      43.051 -16.155   3.672  1.00  0.00     0.061 A 
BRANCH  11  12
HETATM   12  N   UNL     1      42.926 -14.857   4.238  1.00  0.00    -0.326 N 
HETATM   13  C   UNL     1      41.880 -14.301   4.938  1.00  0.00     0.218 C 
HETATM   14  C   UNL     1      42.136 -12.869   5.335  1.00  0.00     0.117 C 
HETATM   15  O   UNL     1      40.843 -14.869   5.260  1.00  0.00    -0.274 OA
HETATM   16  H   UNL     1      43.784 -14.320   4.261  1.00  0.00     0.169 HD
ENDBRANCH  11  12
ENDBRANCH   1   5
BRANCH   2  17
HETATM   17  C   UNL     1      40.136 -14.504   0.468  1.00  0.00     0.142 A 
HETATM   18  N   UNL     1      39.419 -14.943  -0.615  1.00  0.00    -0.271 N 
HETATM   19  H   UNL     1      39.113 -15.896  -0.789  1.00  0.00     0.189 HD
HETATM   20  N   UNL     1      39.091 -13.985  -1.494  1.00  0.00    -0.177 NA
HETATM   21  C   UNL     1      39.668 -12.890  -0.984  1.00  0.00     0.083 A 
HETATM   22  C   UNL     1      40.365 -13.165   0.218  1.00  0.00     0.094 A 
HETATM   23 CL   UNL     1      41.310 -12.063   1.101  1.00  0.00    -0.079 Cl
BRANCH  21  24
HETATM   24  C   UNL     1      39.567 -11.519  -1.646  1.00  0.00     0.041 A 
HETATM   25  C   UNL     1      38.440 -11.259  -2.625  1.00  0.00     0.011 A 
HETATM   26  C   UNL     1      38.396 -10.627  -1.277  1.00  0.00     0.011 A 
ENDBRANCH  21  24
ENDBRANCH   2  17
TORSDOF 4
ENDMDL
MODEL 4
REMARK VINA RESULT:      -7.7      1.991      2.055
REMARK  4 active torsions:
REMARK  status: ('A' for Active; 'I' for Inactive)
REMARK    1  A    between atoms: C_4  and  N_5 
REMARK       I    between atoms: N_5  and  C_6 
REMARK    2  A    between atoms: C_6  and  C_7 
REMARK    3  A    between atoms: C_11  and  C_12 
REMARK    4  A    between atoms: C_18  and  N_19 
REMARK       I    between atoms: N_19  and  C_20 
ROOT
HETATM    1  N   UNL     1      42.127 -15.797   2.515  1.00  0.00    -0.320 N 
HETATM    2  C   UNL     1      42.656 -14.652   1.956  1.00  0.00     0.276 C 
HETATM    3  O   UNL     1      43.847 -14.442   1.755  1.00  0.00    -0.266 OA
HETATM    4  H   UNL     1      41.120 -15.899   2.417  1.00  0.00     0.169 HD
ENDROOT
BRANCH   1   5
HETATM    5  C   UNL     1      42.797 -16.932   3.036  1.00  0.00     0.062 A 
HETATM    6  C   UNL     1      42.884 -18.120   2.286  1.00  0.00     0.038 A 
HETATM    7  C   UNL     1      43.587 -19.245   2.743  1.00  0.00    -0.060 A 
HETATM    8  C   UNL     1      43.661 -20.493   1.913  1.00  0.00     0.048 C 
HETATM    9  C   UNL     1      44.260 -19.170   3.956  1.00  0.00     0.009 A 
HETATM   10  C   UNL     1      44.199 -18.001   4.713  1.00  0.00     0.032 A 
HETATM   11  C   UNL     1      43.455 -16.880   4.290  1.00  0.00     0.061 A 
BRANCH  11  12
HETATM   12  N   UNL     1      43.496 -15.797   5.210  1.00  0.00    -0.326 N 
HETATM   13  C   UNL     1      42.465 -15.066   5.754  1.00  0.00     0.218 C 
HETATM   14  C   UNL     1      42.944 -13.967   6.668  1.00  0.00     0.117 C 
HETATM   15  O   UNL     1      41.269 -15.261   5.576  1.00  0.00    -0.274 OA
HETATM   16  H   UNL     1      44.399 -15.641   5.642  1.00  0.00     0.169 HD
ENDBRANCH  11  12
ENDBRANCH   1   5
BRANCH   2  17
HETATM   17  C   UNL     1      41.685 -13.672   1.538  1.00  0.00     0.142 A 
HETATM   18  N   UNL     1      41.376 -13.527   0.210  1.00  0.00    -0.271 N 
HETATM   19  H   UNL     1      41.781 -14.046  -0.564  1.00  0.00     0.189 HD
HETATM   20  N   UNL     1      40.424 -12.616  -0.046  1.00  0.00    -0.177 NA
HETATM   21  C   UNL     1      40.145 -12.115   1.164  1.00  0.00     0.083 A 
HETATM   22  C   UNL     1      40.931 -12.710   2.181  1.00  0.00     0.094 A 
HETATM   23 CL   UNL     1      40.946 -12.267   3.822  1.00  0.00    -0.079 Cl
BRANCH  21  24
HETATM   24  C   UNL     1      39.098 -11.028   1.386  1.00  0.00     0.041 A 
HETATM   25  C   UNL     1      38.033 -10.810   0.330  1.00  0.00     0.011 A 
HETATM   26  C   UNL     1      37.660 -11.452   1.621  1.00  0.00     0.011 A 
ENDBRANCH  21  24
ENDBRANCH   2  17
TORSDOF 4
ENDMDL
MODEL 5
REMARK VINA RESULT:      -7.6      2.451      6.975
REMARK  4 active torsions:
REMARK  status: ('A' for Active; 'I' for Inactive)
REMARK    1  A    between atoms: C_4  and  N_5 
REMARK       I    between atoms: N_5  and  C_6 
REMARK    2  A    between atoms: C_6  and  C_7 
REMARK    3  A    between atoms: C_11  and  C_12 
REMARK    4  A    between atoms: C_18  and  N_19 
REMARK       I    between atoms: N_19  and  C_20 
ROOT
HETATM    1  N   UNL     1      43.513 -14.251   5.366  1.00  0.00    -0.320 N 
HETATM    2  C   UNL     1      42.798 -15.416   5.553  1.00  0.00     0.276 C 
HETATM    3  O   UNL     1      41.841 -15.551   6.307  1.00  0.00    -0.266 OA
HETATM    4  H   UNL     1      44.133 -14.251   4.559  1.00  0.00     0.169 HD
ENDROOT
BRANCH   1   5
HETATM    5  C   UNL     1      43.373 -13.000   6.016  1.00  0.00     0.062 A 
HETATM    6  C   UNL     1      44.416 -12.481   6.806  1.00  0.00     0.038 A 
HETATM    7  C   UNL     1      44.338 -11.221   7.418  1.00  0.00    -0.060 A 
HETATM    8  C   UNL     1      45.473 -10.700   8.249  1.00  0.00     0.048 C 
HETATM    9  C   UNL     1      43.211 -10.437   7.202  1.00  0.00     0.009 A 
HETATM   10  C   UNL     1      42.168 -10.924   6.415  1.00  0.00     0.032 A 
HETATM   11  C   UNL     1      42.212 -12.208   5.833  1.00  0.00     0.061 A 
BRANCH  11  12
HETATM   12  N   UNL     1      41.044 -12.529   5.089  1.00  0.00    -0.326 N 
HETATM   13  C   UNL     1      40.903 -12.799   3.747  1.00  0.00     0.218 C 
HETATM   14  C   UNL     1      39.473 -13.058   3.348  1.00  0.00     0.117 C 
HETATM   15  O   UNL     1      41.810 -12.865   2.925  1.00  0.00    -0.274 OA
HETATM   16  H   UNL     1      40.228 -12.739   5.650  1.00  0.00     0.169 HD
ENDBRANCH  11  12
ENDBRANCH   1   5
BRANCH   2  17
HETATM   17  C   UNL     1      43.213 -16.525   4.731  1.00  0.00     0.142 A 
HETATM   18  N   UNL     1      44.180 -17.391   5.174  1.00  0.00    -0.271 N 
HETATM   19  H   UNL     1      44.681 -17.336   6.056  1.00  0.00     0.189 HD
HETATM   20  N   UNL     1      44.443 -18.409   4.340  1.00  0.00    -0.177 NA
HETATM   21  C   UNL     1      43.650 -18.159   3.291  1.00  0.00     0.083 A 
HETATM   22  C   UNL     1      42.892 -16.976   3.466  1.00  0.00     0.094 A 
HETATM   23 CL   UNL     1      41.858 -16.271   2.316  1.00  0.00    -0.079 Cl
BRANCH  21  24
HETATM   24  C   UNL     1      43.595 -19.064   2.064  1.00  0.00     0.041 A 
HETATM   25  C   UNL     1      43.963 -20.527   2.215  1.00  0.00     0.011 A 
HETATM   26  C   UNL     1      42.536 -20.149   2.018  1.00  0.00     0.011 A 
ENDBRANCH  21  24
ENDBRANCH   2  17
TORSDOF 4
ENDMDL
MODEL 6
REMARK VINA RESULT:      -7.5      3.773      6.384
REMARK  4 active torsions:
REMARK  status: ('A' for Active; 'I' for Inactive)
REMARK    1  A    between atoms: C_4  and  N_5 
REMARK       I    between atoms: N_5  and  C_6 
REMARK    2  A    between atoms: C_6  and  C_7 
REMARK    3  A    between atoms: C_11  and  C_12 
REMARK    4  A    between atoms: C_18  and  N_19 
REMARK       I    between atoms: N_19  and  C_20 
ROOT
HETATM    1  N   UNL     1      43.010 -13.942   5.025  1.00  0.00    -0.320 N 
HETATM    2  C   UNL     1      43.456 -12.651   4.836  1.00  0.00     0.276 C 
HETATM    3  O   UNL     1      43.562 -12.085   3.753  1.00  0.00    -0.266 OA
HETATM    4  H   UNL     1      42.782 -14.183   5.987  1.00  0.00     0.169 HD
ENDROOT
BRANCH   1   5
HETATM    5  C   UNL     1      42.648 -14.916   4.061  1.00  0.00     0.062 A 
HETATM    6  C   UNL     1      43.339 -16.139   3.983  1.00  0.00     0.038 A 
HETATM    7  C   UNL     1      42.973 -17.150   3.082  1.00  0.00    -0.060 A 
HETATM    8  C   UNL     1      43.732 -18.444   3.031  1.00  0.00     0.048 C 
HETATM    9  C   UNL     1      41.864 -16.957   2.268  1.00  0.00     0.009 A 
HETATM   10  C   UNL     1      41.157 -15.757   2.333  1.00  0.00     0.032 A 
HETATM   11  C   UNL     1      41.542 -14.713   3.199  1.00  0.00     0.061 A 
BRANCH  11  12
HETATM   12  N   UNL     1      40.710 -13.565   3.101  1.00  0.00    -0.326 N 
HETATM   13  C   UNL     1      39.937 -12.954   4.062  1.00  0.00     0.218 C 
HETATM   14  C   UNL     1      39.169 -11.770   3.532  1.00  0.00     0.117 C 
HETATM   15  O   UNL     1      39.865 -13.275   5.242  1.00  0.00    -0.274 OA
HETATM   16  H   UNL     1      40.820 -13.032   2.246  1.00  0.00     0.169 HD
ENDBRANCH  11  12
ENDBRANCH   1   5
BRANCH   2  17
HETATM   17  C   UNL     1      43.757 -11.925   6.045  1.00  0.00     0.142 A 
HETATM   18  N   UNL     1      44.877 -12.231   6.774  1.00  0.00    -0.271 N 
HETATM   19  H   UNL     1      45.554 -12.959   6.564  1.00  0.00     0.189 HD
HETATM   20  N   UNL     1      45.073 -11.454   7.850  1.00  0.00    -0.177 NA
HETATM   21  C   UNL     1      44.005 -10.647   7.844  1.00  0.00     0.083 A 
HETATM   22  C   UNL     1      43.133 -10.924   6.763  1.00  0.00     0.094 A 
HETATM   23 CL   UNL     1      41.626 -10.191   6.479  1.00  0.00    -0.079 Cl
BRANCH  21  24
HETATM   24  C   UNL     1      43.782  -9.564   8.896  1.00  0.00     0.041 A 
HETATM   25  C   UNL     1      44.902  -9.242   9.864  1.00  0.00     0.011 A 
HETATM   26  C   UNL     1      44.574  -8.275   8.780  1.00  0.00     0.011 A 
ENDBRANCH  21  24
ENDBRANCH   2  17
TORSDOF 4
ENDMDL
MODEL 7
REMARK VINA RESULT:      -7.2      3.281      4.792
REMARK  4 active torsions:
REMARK  status: ('A' for Active; 'I' for Inactive)
REMARK    1  A    between atoms: C_4  and  N_5 
REMARK       I    between atoms: N_5  and  C_6 
REMARK    2  A    between atoms: C_6  and  C_7 
REMARK    3  A    between atoms: C_11  and  C_12 
REMARK    4  A    between atoms: C_18  and  N_19 
REMARK       I    between atoms: N_19  and  C_20 
ROOT
HETATM    1  N   UNL     1      41.690 -15.191   4.467  1.00  0.00    -0.320 N 
HETATM    2  C   UNL     1      41.923 -13.841   4.306  1.00  0.00     0.276 C 
HETATM    3  O   UNL     1      42.756 -13.345   3.555  1.00  0.00    -0.266 OA
HETATM    4  H   UNL     1      40.833 -15.425   4.961  1.00  0.00     0.169 HD
ENDROOT
BRANCH   1   5
HETATM    5  C   UNL     1      42.367 -16.292   3.885  1.00  0.00     0.062 A 
HETATM    6  C   UNL     1      43.036 -17.230   4.693  1.00  0.00     0.038 A 
HETATM    7  C   UNL     1      43.668 -18.364   4.159  1.00  0.00    -0.060 A 
HETATM    8  C   UNL     1      44.367 -19.345   5.054  1.00  0.00     0.048 C 
HETATM    9  C   UNL     1      43.593 -18.593   2.791  1.00  0.00     0.009 A 
HETATM   10  C   UNL     1      42.928 -17.684   1.970  1.00  0.00     0.032 A 
HETATM   11  C   UNL     1      42.330 -16.516   2.486  1.00  0.00     0.061 A 
BRANCH  11  12
HETATM   12  N   UNL     1      41.723 -15.706   1.488  1.00  0.00    -0.326 N 
HETATM   13  C   UNL     1      40.404 -15.347   1.329  1.00  0.00     0.218 C 
HETATM   14  C   UNL     1      40.171 -14.498   0.106  1.00  0.00     0.117 C 
HETATM   15  O   UNL     1      39.482 -15.632   2.085  1.00  0.00    -0.274 OA
HETATM   16  H   UNL     1      42.373 -15.198   0.901  1.00  0.00     0.169 HD
ENDBRANCH  11  12
ENDBRANCH   1   5
BRANCH   2  17
HETATM   17  C   UNL     1      41.054 -12.977   5.065  1.00  0.00     0.142 A 
HETATM   18  N   UNL     1      39.891 -13.465   5.604  1.00  0.00    -0.271 N 
HETATM   19  H   UNL     1      39.539 -14.414   5.518  1.00  0.00     0.189 HD
HETATM   20  N   UNL     1      39.194 -12.576   6.328  1.00  0.00    -0.177 NA
HETATM   21  C   UNL     1      39.910 -11.452   6.205  1.00  0.00     0.083 A 
HETATM   22  C   UNL     1      41.058 -11.636   5.396  1.00  0.00     0.094 A 
HETATM   23 CL   UNL     1      42.151 -10.425   4.920  1.00  0.00    -0.079 Cl
BRANCH  21  24
HETATM   24  C   UNL     1      39.507 -10.140   6.873  1.00  0.00     0.041 A 
HETATM   25  C   UNL     1      39.128 -10.150   8.340  1.00  0.00     0.011 A 
HETATM   26  C   UNL     1      40.430  -9.557   7.926  1.00  0.00     0.011 A 
ENDBRANCH  21  24
ENDBRANCH   2  17
TORSDOF 4
ENDMDL
MODEL 8
REMARK VINA RESULT:      -7.1      3.971      6.641
REMARK  4 active torsions:
REMARK  status: ('A' for Active; 'I' for Inactive)
REMARK    1  A    between atoms: C_4  and  N_5 
REMARK       I    between atoms: N_5  and  C_6 
REMARK    2  A    between atoms: C_6  and  C_7 
REMARK    3  A    between atoms: C_11  and  C_12 
REMARK    4  A    between atoms: C_18  and  N_19 
REMARK       I    between atoms: N_19  and  C_20 
ROOT
HETATM    1  N   UNL     1      42.979 -13.424   4.635  1.00  0.00    -0.320 N 
HETATM    2  C   UNL     1      42.165 -12.829   5.576  1.00  0.00     0.276 C 
HETATM    3  O   UNL     1      40.951 -12.979   5.666  1.00  0.00    -0.266 OA
HETATM    4  H   UNL     1      43.976 -13.364   4.828  1.00  0.00     0.169 HD
ENDROOT
BRANCH   1   5
HETATM    5  C   UNL     1      42.628 -14.260   3.547  1.00  0.00     0.062 A 
HETATM    6  C   UNL     1      43.078 -15.592   3.491  1.00  0.00     0.038 A 
HETATM    7  C   UNL     1      42.704 -16.468   2.460  1.00  0.00    -0.060 A 
HETATM    8  C   UNL     1      43.201 -17.883   2.438  1.00  0.00     0.048 C 
HETATM    9  C   UNL     1      41.823 -16.019   1.484  1.00  0.00     0.009 A 
HETATM   10  C   UNL     1      41.355 -14.707   1.522  1.00  0.00     0.032 A 
HETATM   11  C   UNL     1      41.760 -13.802   2.524  1.00  0.00     0.061 A 
BRANCH  11  12
HETATM   12  N   UNL     1      41.193 -12.507   2.376  1.00  0.00    -0.326 N 
HETATM   13  C   UNL     1      41.795 -11.271   2.434  1.00  0.00     0.218 C 
HETATM   14  C   UNL     1      40.820 -10.134   2.260  1.00  0.00     0.117 C 
HETATM   15  O   UNL     1      42.993 -11.058   2.578  1.00  0.00    -0.274 OA
HETATM   16  H   UNL     1      40.242 -12.497   2.028  1.00  0.00     0.169 HD
ENDBRANCH  11  12
ENDBRANCH   1   5
BRANCH   2  17
HETATM   17  C   UNL     1      42.850 -12.015   6.550  1.00  0.00     0.142 A 
HETATM   18  N   UNL     1      43.624 -12.600   7.519  1.00  0.00    -0.271 N 
HETATM   19  H   UNL     1      43.773 -13.596   7.653  1.00  0.00     0.189 HD
HETATM   20  N   UNL     1      44.247 -11.735   8.334  1.00  0.00    -0.177 NA
HETATM   21  C   UNL     1      43.813 -10.543   7.905  1.00  0.00     0.083 A 
HETATM   22  C   UNL     1      42.909 -10.662   6.821  1.00  0.00     0.094 A 
HETATM   23 CL   UNL     1      42.064  -9.389   6.078  1.00  0.00    -0.079 Cl
BRANCH  21  24
HETATM   24  C   UNL     1      44.259  -9.227   8.536  1.00  0.00     0.041 A 
HETATM   25  C   UNL     1      45.198  -9.265   9.725  1.00  0.00     0.011 A 
HETATM   26  C   UNL     1      45.715  -8.822   8.399  1.00  0.00     0.011 A 
ENDBRANCH  21  24
ENDBRANCH   2  17
TORSDOF 4
ENDMDL
MODEL 9
REMARK VINA RESULT:      -7.0      2.247      2.953
REMARK  4 active torsions:
REMARK  status: ('A' for Active; 'I' for Inactive)
REMARK    1  A    between atoms: C_4  and  N_5 
REMARK       I    between atoms: N_5  and  C_6 
REMARK    2  A    between atoms: C_6  and  C_7 
REMARK    3  A    between atoms: C_11  and  C_12 
REMARK    4  A    between atoms: C_18  and  N_19 
REMARK       I    between atoms: N_19  and  C_20 
ROOT
HETATM    1  N   UNL     1      40.412 -14.629   1.831  1.00  0.00    -0.320 N 
HETATM    2  C   UNL     1      40.716 -13.476   1.137  1.00  0.00     0.276 C 
HETATM    3  O   UNL     1      41.813 -12.930   1.106  1.00  0.00    -0.266 OA
HETATM    4  H   UNL     1      39.525 -15.060   1.583  1.00  0.00     0.169 HD
ENDROOT
BRANCH   1   5
HETATM    5  C   UNL     1      41.232 -15.396   2.695  1.00  0.00     0.062 A 
HETATM    6  C   UNL     1      41.829 -16.589   2.245  1.00  0.00     0.038 A 
HETATM    7  C   UNL     1      42.692 -17.345   3.052  1.00  0.00    -0.060 A 
HETATM    8  C   UNL     1      43.314 -18.609   2.536  1.00  0.00     0.048 C 
HETATM    9  C   UNL     1      43.005 -16.880   4.323  1.00  0.00     0.009 A 
HETATM   10  C   UNL     1      42.435 -15.696   4.788  1.00  0.00     0.032 A 
HETATM   11  C   UNL     1      41.527 -14.951   4.007  1.00  0.00     0.061 A 
BRANCH  11  12
HETATM   12  N   UNL     1      41.038 -13.790   4.667  1.00  0.00    -0.326 N 
HETATM   13  C   UNL     1      40.245 -13.683   5.786  1.00  0.00     0.218 C 
HETATM   14  C   UNL     1      39.919 -12.254   6.139  1.00  0.00     0.117 C 
HETATM   15  O   UNL     1      39.842 -14.611   6.477  1.00  0.00    -0.274 OA
HETATM   16  H   UNL     1      41.457 -12.920   4.361  1.00  0.00     0.169 HD
ENDBRANCH  11  12
ENDBRANCH   1   5
BRANCH   2  17
HETATM   17  C   UNL     1      39.635 -12.932   0.353  1.00  0.00     0.142 A 
HETATM   18  N   UNL     1      38.623 -12.233   0.959  1.00  0.00    -0.271 N 
HETATM   19  H   UNL     1      38.528 -12.051   1.954  1.00  0.00     0.189 HD
HETATM   20  N   UNL     1      37.703 -11.737   0.117  1.00  0.00    -0.177 NA
HETATM   21  C   UNL     1      38.110 -12.182  -1.078  1.00  0.00     0.083 A 
HETATM   22  C   UNL     1      39.287 -12.965  -0.983  1.00  0.00     0.094 A 
HETATM   23 CL   UNL     1      40.045 -13.790  -2.261  1.00  0.00    -0.079 Cl
BRANCH  21  24
HETATM   24  C   UNL     1      37.368 -11.865  -2.373  1.00  0.00     0.041 A 
HETATM   25  C   UNL     1      36.441 -10.667  -2.412  1.00  0.00     0.011 A 
HETATM   26  C   UNL     1      37.746 -10.604  -3.128  1.00  0.00     0.011 A 
ENDBRANCH  21  24
ENDBRANCH   2  17
TORSDOF 4
ENDMDL
MODEL 10
REMARK VINA RESULT:      -7.0     14.600     15.819
REMARK  4 active torsions:
REMARK  status: ('A' for Active; 'I' for Inactive)
REMARK    1  A    between atoms: C_4  and  N_5 
REMARK       I    between atoms: N_5  and  C_6 
REMARK    2  A    between atoms: C_6  and  C_7 
REMARK    3  A    between atoms: C_11  and  C_12 
REMARK    4  A    between atoms: C_18  and  N_19 
REMARK       I    between atoms: N_19  and  C_20 
ROOT
HETATM    1  N   UNL     1      43.939 -29.883   1.271  1.00  0.00    -0.320 N 
HETATM    2  C   UNL     1      42.643 -29.509   1.562  1.00  0.00     0.276 C 
HETATM    3  O   UNL     1      42.042 -28.567   1.058  1.00  0.00    -0.266 OA
HETATM    4  H   UNL     1      44.210 -30.801   1.614  1.00  0.00     0.169 HD
ENDROOT
BRANCH   1   5
HETATM    5  C   UNL     1      44.878 -29.262   0.412  1.00  0.00     0.062 A 
HETATM    6  C   UNL     1      44.549 -28.980  -0.927  1.00  0.00     0.038 A 
HETATM    7  C   UNL     1      45.431 -28.315  -1.793  1.00  0.00    -0.060 A 
HETATM    8  C   UNL     1      45.042 -28.029  -3.213  1.00  0.00     0.048 C 
HETATM    9  C   UNL     1      46.654 -27.878  -1.300  1.00  0.00     0.009 A 
HETATM   10  C   UNL     1      47.000 -28.135   0.026  1.00  0.00     0.032 A 
HETATM   11  C   UNL     1      46.145 -28.845   0.893  1.00  0.00     0.061 A 
BRANCH  11  12
HETATM   12  N   UNL     1      46.686 -29.026   2.195  1.00  0.00    -0.326 N 
HETATM   13  C   UNL     1      47.616 -29.937   2.642  1.00  0.00     0.218 C 
HETATM   14  C   UNL     1      47.892 -29.817   4.119  1.00  0.00     0.117 C 
HETATM   15  O   UNL     1      48.209 -30.760   1.954  1.00  0.00    -0.274 OA
HETATM   16  H   UNL     1      46.473 -28.284   2.850  1.00  0.00     0.169 HD
ENDBRANCH  11  12
ENDBRANCH   1   5
BRANCH   2  17
HETATM   17  C   UNL     1      41.959 -30.361   2.503  1.00  0.00     0.142 A 
HETATM   18  N   UNL     1      41.829 -29.980   3.814  1.00  0.00    -0.271 N 
HETATM   19  H   UNL     1      42.191 -29.128   4.233  1.00  0.00     0.189 HD
HETATM   20  N   UNL     1      41.131 -30.834   4.578  1.00  0.00    -0.177 NA
HETATM   21  C   UNL     1      40.844 -31.834   3.736  1.00  0.00     0.083 A 
HETATM   22  C   UNL     1      41.370 -31.608   2.440  1.00  0.00     0.094 A 
HETATM   23 CL   UNL     1      41.309 -32.692   1.133  1.00  0.00    -0.079 Cl
BRANCH  21  24
HETATM   24  C   UNL     1      40.042 -33.062   4.156  1.00  0.00     0.041 A 
HETATM   25  C   UNL     1      38.903 -32.891   5.142  1.00  0.00     0.011 A 
HETATM   26  C   UNL     1      38.595 -33.163   3.710  1.00  0.00     0.011 A 
ENDBRANCH  21  24
ENDBRANCH   2  17
TORSDOF 4
ENDMDL
