MODEL 1
REMARK VINA RESULT:      -9.4      0.000      0.000
REMARK  6 active torsions:
REMARK  status: ('A' for Active; 'I' for Inactive)
REMARK    1  A    between atoms: O_2  and  C_3 
REMARK    2  A    between atoms: C_4  and  C_5 
REMARK    3  A    between atoms: C_6  and  C_7 
REMARK       I    between atoms: C_7  and  N_8 
REMARK    4  A    between atoms: N_8  and  C_9 
REMARK    5  A    between atoms: C_9  and  C_10 
REMARK       I    between atoms: C_10  and  N_11 
REMARK    6  A    between atoms: N_11  and  N_12 
ROOT
HETATM    1  C   UNL     1      42.594 -12.026   4.444  1.00  0.00     0.255 C 
HETATM    2  N   UNL     1      43.070 -10.818   4.926  1.00  0.00    -0.245 N 
HETATM    3  O   UNL     1      41.962 -12.846   5.110  1.00  0.00    -0.270 OA
HETATM    4  H   UNL     1      43.599 -10.202   4.307  1.00  0.00     0.192 HD
ENDROOT
BRANCH   1   5
HETATM    5  C   UNL     1      43.082 -12.363   3.033  1.00  0.00     0.227 C 
BRANCH   5   6
HETATM    6  N   UNL     1      43.388 -13.767   2.784  1.00  0.00    -0.349 N 
HETATM    7  C   UNL     1      42.632 -14.495   1.899  1.00  0.00     0.241 C 
HETATM    8  O   UNL     1      41.779 -14.007   1.171  1.00  0.00    -0.269 OA
HETATM    9  H   UNL     1      44.031 -14.238   3.407  1.00  0.00     0.163 HD
BRANCH   7  10
HETATM   10  C   UNL     1      42.914 -15.949   1.950  1.00  0.00     0.075 C 
HETATM   11  C   UNL     1      43.005 -16.558   3.141  1.00  0.00     0.020 C 
BRANCH  11  12
HETATM   12  C   UNL     1      43.320 -17.987   3.260  1.00  0.00    -0.003 A 
HETATM   13  C   UNL     1      43.913 -18.531   4.415  1.00  0.00     0.078 A 
HETATM   14  C   UNL     1      44.203 -19.900   4.454  1.00  0.00     0.037 A 
HETATM   15  C   UNL     1      43.886 -20.723   3.369  1.00  0.00     0.003 A 
HETATM   16  C   UNL     1      43.283 -20.187   2.235  1.00  0.00     0.001 A 
HETATM   17  C   UNL     1      43.005 -18.822   2.178  1.00  0.00     0.014 A 
BRANCH  13  18
HETATM   18  O   UNL     1      44.193 -17.651   5.429  1.00  0.00    -0.355 OA
HETATM   19  C   UNL     1      43.373 -17.714   6.587  1.00  0.00     0.210 C 
ENDBRANCH  13  18
ENDBRANCH  11  12
ENDBRANCH   7  10
ENDBRANCH   5   6
ENDBRANCH   1   5
BRANCH   2  20
HETATM   20  N   UNL     1      42.818 -10.446   6.214  1.00  0.00    -0.166 NA
HETATM   21  C   UNL     1      43.824 -10.430   7.026  1.00  0.00     0.157 A 
HETATM   22  C   UNL     1      45.280 -10.818   6.758  1.00  0.00     0.277 A 
HETATM   23  C   UNL     1      43.760 -10.060   8.434  1.00  0.00     0.028 A 
HETATM   24  O   UNL     1      45.717 -11.185   5.686  1.00  0.00    -0.266 OA
HETATM   25  N   UNL     1      45.929 -10.672   7.966  1.00  0.00    -0.321 N 
HETATM   26  C   UNL     1      45.045 -10.230   8.948  1.00  0.00     0.048 A 
HETATM   27  H   UNL     1      46.910 -10.867   8.098  1.00  0.00     0.169 HD
HETATM   28  C   UNL     1      45.322  -9.976  10.275  1.00  0.00     0.032 A 
HETATM   29  C   UNL     1      44.261  -9.536  11.080  1.00  0.00     0.021 A 
HETATM   30  C   UNL     1      42.967  -9.366  10.544  1.00  0.00     0.012 A 
HETATM   31 BR   UNL     1      41.572  -8.767  11.672  1.00  0.00    -0.051 Br
HETATM   32  C   UNL     1      42.697  -9.630   9.202  1.00  0.00     0.035 A 
ENDBRANCH   2  20
TORSDOF 6
ENDMDL
MODEL 2
REMARK VINA RESULT:      -9.1      1.770      2.033
REMARK  6 active torsions:
REMARK  status: ('A' for Active; 'I' for Inactive)
REMARK    1  A    between atoms: O_2  and  C_3 
REMARK    2  A    between atoms: C_4  and  C_5 
REMARK    3  A    between atoms: C_6  and  C_7 
REMARK       I    between atoms: C_7  and  N_8 
REMARK    4  A    between atoms: N_8  and  C_9 
REMARK    5  A    between atoms: C_9  and  C_10 
REMARK       I    between atoms: C_10  and  N_11 
REMARK    6  A    between atoms: N_11  and  N_12 
ROOT
HETATM    1  C   UNL     1      40.384 -12.073   3.951  1.00  0.00     0.255 C 
HETATM    2  N   UNL     1      40.835 -12.355   5.231  1.00  0.00    -0.245 N 
HETATM    3  O   UNL     1      40.400 -10.957   3.433  1.00  0.00    -0.270 OA
HETATM    4  H   UNL     1      40.771 -13.309   5.589  1.00  0.00     0.192 HD
ENDROOT
BRANCH   1   5
HETATM    5  C   UNL     1      39.671 -13.247   3.276  1.00  0.00     0.227 C 
BRANCH   5   6
HETATM    6  N   UNL     1      40.292 -14.554   3.451  1.00  0.00    -0.349 N 
HETATM    7  C   UNL     1      41.283 -14.972   2.598  1.00  0.00     0.241 C 
HETATM    8  O   UNL     1      41.804 -14.253   1.756  1.00  0.00    -0.269 OA
HETATM    9  H   UNL     1      39.855 -15.215   4.081  1.00  0.00     0.163 HD
BRANCH   7  10
HETATM   10  C   UNL     1      41.626 -16.404   2.759  1.00  0.00     0.075 C 
HETATM   11  C   UNL     1      42.869 -16.745   3.131  1.00  0.00     0.020 C 
BRANCH  11  12
HETATM   12  C   UNL     1      43.281 -18.146   3.272  1.00  0.00    -0.003 A 
HETATM   13  C   UNL     1      43.906 -18.631   4.436  1.00  0.00     0.078 A 
HETATM   14  C   UNL     1      44.288 -19.976   4.497  1.00  0.00     0.037 A 
HETATM   15  C   UNL     1      44.032 -20.835   3.424  1.00  0.00     0.003 A 
HETATM   16  C   UNL     1      43.398 -20.358   2.280  1.00  0.00     0.001 A 
HETATM   17  C   UNL     1      43.027 -19.017   2.202  1.00  0.00     0.014 A 
BRANCH  13  18
HETATM   18  O   UNL     1      44.122 -17.719   5.438  1.00  0.00    -0.355 OA
HETATM   19  C   UNL     1      43.356 -17.868   6.625  1.00  0.00     0.210 C 
ENDBRANCH  13  18
ENDBRANCH  11  12
ENDBRANCH   7  10
ENDBRANCH   5   6
ENDBRANCH   1   5
BRANCH   2  20
HETATM   20  N   UNL     1      41.378 -11.368   5.999  1.00  0.00    -0.166 NA
HETATM   21  C   UNL     1      42.613 -11.512   6.352  1.00  0.00     0.157 A 
HETATM   22  C   UNL     1      43.564 -12.676   6.062  1.00  0.00     0.277 A 
HETATM   23  C   UNL     1      43.370 -10.569   7.165  1.00  0.00     0.028 A 
HETATM   24  O   UNL     1      43.282 -13.658   5.406  1.00  0.00    -0.266 OA
HETATM   25  N   UNL     1      44.742 -12.360   6.706  1.00  0.00    -0.321 N 
HETATM   26  C   UNL     1      44.633 -11.130   7.352  1.00  0.00     0.048 A 
HETATM   27  H   UNL     1      45.557 -12.953   6.699  1.00  0.00     0.169 HD
HETATM   28  C   UNL     1      45.596 -10.486   8.101  1.00  0.00     0.032 A 
HETATM   29  C   UNL     1      45.253  -9.247   8.659  1.00  0.00     0.021 A 
HETATM   30  C   UNL     1      43.972  -8.690   8.458  1.00  0.00     0.012 A 
HETATM   31 BR   UNL     1      43.561  -7.014   9.231  1.00  0.00    -0.051 Br
HETATM   32  C   UNL     1      43.004  -9.352   7.703  1.00  0.00     0.035 A 
ENDBRANCH   2  20
TORSDOF 6
ENDMDL
MODEL 3
REMARK VINA RESULT:      -8.8      3.692     10.245
REMARK  6 active torsions:
REMARK  status: ('A' for Active; 'I' for Inactive)
REMARK    1  A    between atoms: O_2  and  C_3 
REMARK    2  A    between atoms: C_4  and  C_5 
REMARK    3  A    between atoms: C_6  and  C_7 
REMARK       I    between atoms: C_7  and  N_8 
REMARK    4  A    between atoms: N_8  and  C_9 
REMARK    5  A    between atoms: C_9  and  C_10 
REMARK       I    between atoms: C_10  and  N_11 
REMARK    6  A    between atoms: N_11  and  N_12 
ROOT
HETATM    1  C   UNL     1      43.632 -11.830   6.885  1.00  0.00     0.255 C 
HETATM    2  N   UNL     1      42.787 -12.559   6.064  1.00  0.00    -0.245 N 
HETATM    3  O   UNL     1      44.572 -12.306   7.522  1.00  0.00    -0.270 OA
HETATM    4  H   UNL     1      42.021 -12.086   5.583  1.00  0.00     0.192 HD
ENDROOT
BRANCH   1   5
HETATM    5  C   UNL     1      43.188 -10.382   7.098  1.00  0.00     0.227 C 
BRANCH   5   6
HETATM    6  N   UNL     1      43.041  -9.958   8.486  1.00  0.00    -0.349 N 
HETATM    7  C   UNL     1      44.048  -9.262   9.109  1.00  0.00     0.241 C 
HETATM    8  O   UNL     1      45.036  -8.832   8.530  1.00  0.00    -0.269 OA
HETATM    9  H   UNL     1      42.282 -10.347   9.030  1.00  0.00     0.163 HD
BRANCH   7  10
HETATM   10  C   UNL     1      43.846  -9.130  10.570  1.00  0.00     0.075 C 
HETATM   11  C   UNL     1      42.702  -8.601  11.030  1.00  0.00     0.020 C 
BRANCH  11  12
HETATM   12  C   UNL     1      42.457  -8.408  12.464  1.00  0.00    -0.003 A 
HETATM   13  C   UNL     1      41.543  -9.202  13.182  1.00  0.00     0.078 A 
HETATM   14  C   UNL     1      41.345  -8.952  14.545  1.00  0.00     0.037 A 
HETATM   15  C   UNL     1      42.064  -7.942  15.193  1.00  0.00     0.003 A 
HETATM   16  C   UNL     1      42.980  -7.171  14.485  1.00  0.00     0.001 A 
HETATM   17  C   UNL     1      43.174  -7.399  13.124  1.00  0.00     0.014 A 
BRANCH  13  18
HETATM   18  O   UNL     1      40.879 -10.166  12.467  1.00  0.00    -0.355 OA
HETATM   19  C   UNL     1      39.562 -10.492  12.887  1.00  0.00     0.210 C 
ENDBRANCH  13  18
ENDBRANCH  11  12
ENDBRANCH   7  10
ENDBRANCH   5   6
ENDBRANCH   1   5
BRANCH   2  20
HETATM   20  N   UNL     1      42.990 -13.896   5.885  1.00  0.00    -0.166 NA
HETATM   21  C   UNL     1      43.040 -14.323   4.666  1.00  0.00     0.157 A 
HETATM   22  C   UNL     1      42.857 -13.536   3.365  1.00  0.00     0.277 A 
HETATM   23  C   UNL     1      43.251 -15.709   4.269  1.00  0.00     0.028 A 
HETATM   24  O   UNL     1      42.659 -12.340   3.297  1.00  0.00    -0.266 OA
HETATM   25  N   UNL     1      42.952 -14.468   2.354  1.00  0.00    -0.321 N 
HETATM   26  C   UNL     1      43.181 -15.739   2.877  1.00  0.00     0.048 A 
HETATM   27  H   UNL     1      42.861 -14.239   1.375  1.00  0.00     0.169 HD
HETATM   28  C   UNL     1      43.326 -16.921   2.181  1.00  0.00     0.032 A 
HETATM   29  C   UNL     1      43.551 -18.084   2.930  1.00  0.00     0.021 A 
HETATM   30  C   UNL     1      43.623 -18.037   4.339  1.00  0.00     0.012 A 
HETATM   31 BR   UNL     1      43.931 -19.636   5.302  1.00  0.00    -0.051 Br
HETATM   32  C   UNL     1      43.470 -16.837   5.032  1.00  0.00     0.035 A 
ENDBRANCH   2  20
TORSDOF 6
ENDMDL
MODEL 4
REMARK VINA RESULT:      -8.4      3.726      9.952
REMARK  6 active torsions:
REMARK  status: ('A' for Active; 'I' for Inactive)
REMARK    1  A    between atoms: O_2  and  C_3 
REMARK    2  A    between atoms: C_4  and  C_5 
REMARK    3  A    between atoms: C_6  and  C_7 
REMARK       I    between atoms: C_7  and  N_8 
REMARK    4  A    between atoms: N_8  and  C_9 
REMARK    5  A    between atoms: C_9  and  C_10 
REMARK       I    between atoms: C_10  and  N_11 
REMARK    6  A    between atoms: N_11  and  N_12 
ROOT
HETATM    1  C   UNL     1      44.835 -11.211   6.554  1.00  0.00     0.255 C 
HETATM    2  N   UNL     1      43.581 -11.794   6.639  1.00  0.00    -0.245 N 
HETATM    3  O   UNL     1      45.464 -11.055   5.507  1.00  0.00    -0.270 OA
HETATM    4  H   UNL     1      43.135 -11.898   7.552  1.00  0.00     0.192 HD
ENDROOT
BRANCH   1   5
HETATM    5  C   UNL     1      45.481 -10.936   7.913  1.00  0.00     0.227 C 
BRANCH   5   6
HETATM    6  N   UNL     1      44.655 -10.218   8.876  1.00  0.00    -0.349 N 
HETATM    7  C   UNL     1      44.781  -8.858   9.021  1.00  0.00     0.241 C 
HETATM    8  O   UNL     1      45.456  -8.155   8.282  1.00  0.00    -0.269 OA
HETATM    9  H   UNL     1      44.136 -10.754   9.560  1.00  0.00     0.163 HD
BRANCH   7  10
HETATM   10  C   UNL     1      44.059  -8.329  10.202  1.00  0.00     0.075 C 
HETATM   11  C   UNL     1      43.719  -9.166  11.193  1.00  0.00     0.020 C 
BRANCH  11  12
HETATM   12  C   UNL     1      42.970  -8.711  12.371  1.00  0.00    -0.003 A 
HETATM   13  C   UNL     1      41.698  -9.221  12.693  1.00  0.00     0.078 A 
HETATM   14  C   UNL     1      41.031  -8.730  13.822  1.00  0.00     0.037 A 
HETATM   15  C   UNL     1      41.630  -7.761  14.634  1.00  0.00     0.003 A 
HETATM   16  C   UNL     1      42.895  -7.271  14.323  1.00  0.00     0.001 A 
HETATM   17  C   UNL     1      43.562  -7.741  13.193  1.00  0.00     0.014 A 
BRANCH  13  18
HETATM   18  O   UNL     1      41.185 -10.165  11.841  1.00  0.00    -0.355 OA
HETATM   19  C   UNL     1      40.041  -9.800  11.083  1.00  0.00     0.210 C 
ENDBRANCH  13  18
ENDBRANCH  11  12
ENDBRANCH   7  10
ENDBRANCH   5   6
ENDBRANCH   1   5
BRANCH   2  20
HETATM   20  N   UNL     1      42.939 -12.209   5.510  1.00  0.00    -0.166 NA
HETATM   21  C   UNL     1      42.490 -13.421   5.503  1.00  0.00     0.157 A 
HETATM   22  C   UNL     1      42.616 -14.497   6.585  1.00  0.00     0.277 A 
HETATM   23  C   UNL     1      41.777 -14.046   4.397  1.00  0.00     0.028 A 
HETATM   24  O   UNL     1      43.155 -14.341   7.662  1.00  0.00    -0.266 OA
HETATM   25  N   UNL     1      42.015 -15.621   6.059  1.00  0.00    -0.321 N 
HETATM   26  C   UNL     1      41.524 -15.363   4.780  1.00  0.00     0.048 A 
HETATM   27  H   UNL     1      41.953 -16.500   6.549  1.00  0.00     0.169 HD
HETATM   28  C   UNL     1      40.868 -16.238   3.939  1.00  0.00     0.032 A 
HETATM   29  C   UNL     1      40.466 -15.747   2.689  1.00  0.00     0.021 A 
HETATM   30  C   UNL     1      40.726 -14.411   2.317  1.00  0.00     0.012 A 
HETATM   31 BR   UNL     1      40.158 -13.798   0.620  1.00  0.00    -0.051 Br
HETATM   32  C   UNL     1      41.393 -13.536   3.173  1.00  0.00     0.035 A 
ENDBRANCH   2  20
TORSDOF 6
ENDMDL
MODEL 5
REMARK VINA RESULT:      -8.3      4.248      7.482
REMARK  6 active torsions:
REMARK  status: ('A' for Active; 'I' for Inactive)
REMARK    1  A    between atoms: O_2  and  C_3 
REMARK    2  A    between atoms: C_4  and  C_5 
REMARK    3  A    between atoms: C_6  and  C_7 
REMARK       I    between atoms: C_7  and  N_8 
REMARK    4  A    between atoms: N_8  and  C_9 
REMARK    5  A    between atoms: C_9  and  C_10 
REMARK       I    between atoms: C_10  and  N_11 
REMARK    6  A    between atoms: N_11  and  N_12 
ROOT
HETATM    1  C   UNL     1      41.840 -11.835   4.507  1.00  0.00     0.255 C 
HETATM    2  N   UNL     1      40.829 -12.349   3.711  1.00  0.00    -0.245 N 
HETATM    3  O   UNL     1      42.779 -11.153   4.094  1.00  0.00    -0.270 OA
HETATM    4  H   UNL     1      40.095 -12.919   4.134  1.00  0.00     0.192 HD
ENDROOT
BRANCH   1   5
HETATM    5  C   UNL     1      41.810 -12.346   5.949  1.00  0.00     0.227 C 
BRANCH   5   6
HETATM    6  N   UNL     1      42.190 -13.741   6.138  1.00  0.00    -0.349 N 
HETATM    7  C   UNL     1      43.495 -14.075   6.405  1.00  0.00     0.241 C 
HETATM    8  O   UNL     1      44.371 -13.256   6.644  1.00  0.00    -0.269 OA
HETATM    9  H   UNL     1      41.525 -14.460   5.882  1.00  0.00     0.163 HD
BRANCH   7  10
HETATM   10  C   UNL     1      43.752 -15.532   6.321  1.00  0.00     0.075 C 
HETATM   11  C   UNL     1      43.379 -16.202   5.221  1.00  0.00     0.020 C 
BRANCH  11  12
HETATM   12  C   UNL     1      43.572 -17.651   5.093  1.00  0.00    -0.003 A 
HETATM   13  C   UNL     1      43.834 -18.267   3.854  1.00  0.00     0.078 A 
HETATM   14  C   UNL     1      43.990 -19.657   3.801  1.00  0.00     0.037 A 
HETATM   15  C   UNL     1      43.910 -20.425   4.968  1.00  0.00     0.003 A 
HETATM   16  C   UNL     1      43.668 -19.812   6.194  1.00  0.00     0.001 A 
HETATM   17  C   UNL     1      43.495 -18.431   6.257  1.00  0.00     0.014 A 
BRANCH  13  18
HETATM   18  O   UNL     1      43.892 -17.439   2.762  1.00  0.00    -0.355 OA
HETATM   19  C   UNL     1      42.718 -17.327   1.971  1.00  0.00     0.210 C 
ENDBRANCH  13  18
ENDBRANCH  11  12
ENDBRANCH   7  10
ENDBRANCH   5   6
ENDBRANCH   1   5
BRANCH   2  20
HETATM   20  N   UNL     1      40.805 -12.079   2.374  1.00  0.00    -0.166 NA
HETATM   21  C   UNL     1      40.435 -13.037   1.590  1.00  0.00     0.157 A 
HETATM   22  C   UNL     1      40.054 -14.476   1.947  1.00  0.00     0.277 A 
HETATM   23  C   UNL     1      40.341 -12.946   0.139  1.00  0.00     0.028 A 
HETATM   24  O   UNL     1      40.018 -14.928   3.073  1.00  0.00    -0.266 OA
HETATM   25  N   UNL     1      39.793 -15.098   0.744  1.00  0.00    -0.321 N 
HETATM   26  C   UNL     1      39.961 -14.208  -0.316  1.00  0.00     0.048 A 
HETATM   27  H   UNL     1      39.523 -16.067   0.665  1.00  0.00     0.169 HD
HETATM   28  C   UNL     1      39.796 -14.463  -1.661  1.00  0.00     0.032 A 
HETATM   29  C   UNL     1      40.023 -13.402  -2.548  1.00  0.00     0.021 A 
HETATM   30  C   UNL     1      40.404 -12.129  -2.073  1.00  0.00     0.012 A 
HETATM   31 BR   UNL     1      40.695 -10.729  -3.312  1.00  0.00    -0.051 Br
HETATM   32  C   UNL     1      40.572 -11.883  -0.711  1.00  0.00     0.035 A 
ENDBRANCH   2  20
TORSDOF 6
ENDMDL
MODEL 6
REMARK VINA RESULT:      -8.3      2.842      4.806
REMARK  6 active torsions:
REMARK  status: ('A' for Active; 'I' for Inactive)
REMARK    1  A    between atoms: O_2  and  C_3 
REMARK    2  A    between atoms: C_4  and  C_5 
REMARK    3  A    between atoms: C_6  and  C_7 
REMARK       I    between atoms: C_7  and  N_8 
REMARK    4  A    between atoms: N_8  and  C_9 
REMARK    5  A    between atoms: C_9  and  C_10 
REMARK       I    between atoms: C_10  and  N_11 
REMARK    6  A    between atoms: N_11  and  N_12 
ROOT
HETATM    1  C   UNL     1      45.617  -9.612   8.116  1.00  0.00     0.255 C 
HETATM    2  N   UNL     1      44.572  -9.880   8.985  1.00  0.00    -0.245 N 
HETATM    3  O   UNL     1      46.080  -8.492   7.903  1.00  0.00    -0.270 OA
HETATM    4  H   UNL     1      44.238 -10.840   9.091  1.00  0.00     0.192 HD
ENDROOT
BRANCH   1   5
HETATM    5  C   UNL     1      46.044 -10.816   7.275  1.00  0.00     0.227 C 
BRANCH   5   6
HETATM    6  N   UNL     1      45.057 -11.311   6.323  1.00  0.00    -0.349 N 
HETATM    7  C   UNL     1      44.146 -12.266   6.702  1.00  0.00     0.241 C 
HETATM    8  O   UNL     1      44.000 -12.649   7.854  1.00  0.00    -0.269 OA
HETATM    9  H   UNL     1      45.176 -11.084   5.344  1.00  0.00     0.163 HD
BRANCH   7  10
HETATM   10  C   UNL     1      43.388 -12.832   5.561  1.00  0.00     0.075 C 
HETATM   11  C   UNL     1      42.980 -14.109   5.612  1.00  0.00     0.020 C 
BRANCH  11  12
HETATM   12  C   UNL     1      42.259 -14.738   4.500  1.00  0.00    -0.003 A 
HETATM   13  C   UNL     1      42.704 -15.930   3.896  1.00  0.00     0.078 A 
HETATM   14  C   UNL     1      41.977 -16.467   2.827  1.00  0.00     0.037 A 
HETATM   15  C   UNL     1      40.809 -15.841   2.378  1.00  0.00     0.003 A 
HETATM   16  C   UNL     1      40.361 -14.673   2.988  1.00  0.00     0.001 A 
HETATM   17  C   UNL     1      41.086 -14.120   4.043  1.00  0.00     0.014 A 
BRANCH  13  18
HETATM   18  O   UNL     1      43.859 -16.474   4.397  1.00  0.00    -0.355 OA
HETATM   19  C   UNL     1      43.764 -17.757   4.998  1.00  0.00     0.210 C 
ENDBRANCH  13  18
ENDBRANCH  11  12
ENDBRANCH   7  10
ENDBRANCH   5   6
ENDBRANCH   1   5
BRANCH   2  20
HETATM   20  N   UNL     1      44.004  -8.872   9.707  1.00  0.00    -0.166 NA
HETATM   21  C   UNL     1      43.550  -9.174  10.879  1.00  0.00     0.157 A 
HETATM   22  C   UNL     1      43.516 -10.539  11.572  1.00  0.00     0.277 A 
HETATM   23  C   UNL     1      42.915  -8.240  11.800  1.00  0.00     0.028 A 
HETATM   24  O   UNL     1      43.958 -11.568  11.105  1.00  0.00    -0.266 OA
HETATM   25  N   UNL     1      42.883 -10.324  12.778  1.00  0.00    -0.321 N 
HETATM   26  C   UNL     1      42.529  -8.983  12.915  1.00  0.00     0.048 A 
HETATM   27  H   UNL     1      42.707 -11.053  13.453  1.00  0.00     0.169 HD
HETATM   28  C   UNL     1      41.879  -8.390  13.978  1.00  0.00     0.032 A 
HETATM   29  C   UNL     1      41.628  -7.013  13.889  1.00  0.00     0.021 A 
HETATM   30  C   UNL     1      42.028  -6.275  12.755  1.00  0.00     0.012 A 
HETATM   31 BR   UNL     1      41.668  -4.419  12.687  1.00  0.00    -0.051 Br
HETATM   32  C   UNL     1      42.681  -6.886  11.685  1.00  0.00     0.035 A 
ENDBRANCH   2  20
TORSDOF 6
ENDMDL
MODEL 7
REMARK VINA RESULT:      -8.1      4.394      7.312
REMARK  6 active torsions:
REMARK  status: ('A' for Active; 'I' for Inactive)
REMARK    1  A    between atoms: O_2  and  C_3 
REMARK    2  A    between atoms: C_4  and  C_5 
REMARK    3  A    between atoms: C_6  and  C_7 
REMARK       I    between atoms: C_7  and  N_8 
REMARK    4  A    between atoms: N_8  and  C_9 
REMARK    5  A    between atoms: C_9  and  C_10 
REMARK       I    between atoms: C_10  and  N_11 
REMARK    6  A    between atoms: N_11  and  N_12 
ROOT
HETATM    1  C   UNL     1      41.920 -10.656   3.789  1.00  0.00     0.255 C 
HETATM    2  N   UNL     1      42.045 -11.234   2.536  1.00  0.00    -0.245 N 
HETATM    3  O   UNL     1      41.751  -9.454   3.993  1.00  0.00    -0.270 OA
HETATM    4  H   UNL     1      42.198 -12.240   2.458  1.00  0.00     0.192 HD
ENDROOT
BRANCH   1   5
HETATM    5  C   UNL     1      42.199 -11.621   4.943  1.00  0.00     0.227 C 
BRANCH   5   6
HETATM    6  N   UNL     1      42.345 -13.025   4.578  1.00  0.00    -0.349 N 
HETATM    7  C   UNL     1      41.260 -13.867   4.612  1.00  0.00     0.241 C 
HETATM    8  O   UNL     1      40.111 -13.489   4.795  1.00  0.00    -0.269 OA
HETATM    9  H   UNL     1      43.278 -13.405   4.489  1.00  0.00     0.163 HD
BRANCH   7  10
HETATM   10  C   UNL     1      41.626 -15.294   4.457  1.00  0.00     0.075 C 
HETATM   11  C   UNL     1      42.786 -15.614   3.865  1.00  0.00     0.020 C 
BRANCH  11  12
HETATM   12  C   UNL     1      43.188 -17.009   3.648  1.00  0.00    -0.003 A 
HETATM   13  C   UNL     1      43.968 -17.718   4.580  1.00  0.00     0.078 A 
HETATM   14  C   UNL     1      44.330 -19.042   4.303  1.00  0.00     0.037 A 
HETATM   15  C   UNL     1      43.903 -19.661   3.123  1.00  0.00     0.003 A 
HETATM   16  C   UNL     1      43.117 -18.964   2.211  1.00  0.00     0.001 A 
HETATM   17  C   UNL     1      42.764 -17.641   2.470  1.00  0.00     0.014 A 
BRANCH  13  18
HETATM   18  O   UNL     1      44.346 -17.033   5.708  1.00  0.00    -0.355 OA
HETATM   19  C   UNL     1      43.672 -17.354   6.916  1.00  0.00     0.210 C 
ENDBRANCH  13  18
ENDBRANCH  11  12
ENDBRANCH   7  10
ENDBRANCH   5   6
ENDBRANCH   1   5
BRANCH   2  20
HETATM   20  N   UNL     1      41.947 -10.465   1.414  1.00  0.00    -0.166 NA
HETATM   21  C   UNL     1      41.535 -11.049   0.337  1.00  0.00     0.157 A 
HETATM   22  C   UNL     1      41.174 -12.521   0.123  1.00  0.00     0.277 A 
HETATM   23  C   UNL     1      41.361 -10.401  -0.956  1.00  0.00     0.028 A 
HETATM   24  O   UNL     1      41.200 -13.377   0.984  1.00  0.00    -0.266 OA
HETATM   25  N   UNL     1      40.847 -12.630  -1.213  1.00  0.00    -0.321 N 
HETATM   26  C   UNL     1      40.956 -11.394  -1.847  1.00  0.00     0.048 A 
HETATM   27  H   UNL     1      40.573 -13.497  -1.650  1.00  0.00     0.169 HD
HETATM   28  C   UNL     1      40.717 -11.107  -3.175  1.00  0.00     0.032 A 
HETATM   29  C   UNL     1      40.895  -9.779  -3.587  1.00  0.00     0.021 A 
HETATM   30  C   UNL     1      41.302  -8.785  -2.673  1.00  0.00     0.012 A 
HETATM   31 BR   UNL     1      41.523  -7.007  -3.280  1.00  0.00    -0.051 Br
HETATM   32  C   UNL     1      41.544  -9.087  -1.333  1.00  0.00     0.035 A 
ENDBRANCH   2  20
TORSDOF 6
ENDMDL
MODEL 8
REMARK VINA RESULT:      -8.1      3.523      8.982
REMARK  6 active torsions:
REMARK  status: ('A' for Active; 'I' for Inactive)
REMARK    1  A    between atoms: O_2  and  C_3 
REMARK    2  A    between atoms: C_4  and  C_5 
REMARK    3  A    between atoms: C_6  and  C_7 
REMARK       I    between atoms: C_7  and  N_8 
REMARK    4  A    between atoms: N_8  and  C_9 
REMARK    5  A    between atoms: C_9  and  C_10 
REMARK       I    between atoms: C_10  and  N_11 
REMARK    6  A    between atoms: N_11  and  N_12 
ROOT
HETATM    1  C   UNL     1      40.882 -13.026   3.137  1.00  0.00     0.255 C 
HETATM    2  N   UNL     1      42.199 -13.456   3.163  1.00  0.00    -0.245 N 
HETATM    3  O   UNL     1      39.916 -13.744   2.877  1.00  0.00    -0.270 OA
HETATM    4  H   UNL     1      42.942 -12.788   3.375  1.00  0.00     0.192 HD
ENDROOT
BRANCH   1   5
HETATM    5  C   UNL     1      40.724 -11.511   3.277  1.00  0.00     0.227 C 
BRANCH   5   6
HETATM    6  N   UNL     1      40.943 -10.968   4.612  1.00  0.00    -0.349 N 
HETATM    7  C   UNL     1      42.211 -10.645   5.030  1.00  0.00     0.241 C 
HETATM    8  O   UNL     1      43.190 -10.644   4.297  1.00  0.00    -0.269 OA
HETATM    9  H   UNL     1      40.186 -11.015   5.281  1.00  0.00     0.163 HD
BRANCH   7  10
HETATM   10  C   UNL     1      42.287 -10.347   6.480  1.00  0.00     0.075 C 
HETATM   11  C   UNL     1      43.433  -9.876   6.994  1.00  0.00     0.020 C 
BRANCH  11  12
HETATM   12  C   UNL     1      43.584  -9.598   8.427  1.00  0.00    -0.003 A 
HETATM   13  C   UNL     1      43.549  -8.289   8.944  1.00  0.00     0.078 A 
HETATM   14  C   UNL     1      43.717  -8.093  10.320  1.00  0.00     0.037 A 
HETATM   15  C   UNL     1      43.894  -9.186  11.175  1.00  0.00     0.003 A 
HETATM   16  C   UNL     1      43.911 -10.480  10.664  1.00  0.00     0.001 A 
HETATM   17  C   UNL     1      43.761 -10.686   9.294  1.00  0.00     0.014 A 
BRANCH  13  18
HETATM   18  O   UNL     1      43.374  -7.277   8.035  1.00  0.00    -0.355 OA
HETATM   19  C   UNL     1      42.184  -6.509   8.140  1.00  0.00     0.210 C 
ENDBRANCH  13  18
ENDBRANCH  11  12
ENDBRANCH   7  10
ENDBRANCH   5   6
ENDBRANCH   1   5
BRANCH   2  20
HETATM   20  N   UNL     1      42.498 -14.765   2.926  1.00  0.00    -0.166 NA
HETATM   21  C   UNL     1      42.889 -15.469   3.936  1.00  0.00     0.157 A 
HETATM   22  C   UNL     1      43.111 -15.027   5.385  1.00  0.00     0.277 A 
HETATM   23  C   UNL     1      43.249 -16.880   3.887  1.00  0.00     0.028 A 
HETATM   24  O   UNL     1      42.914 -13.907   5.809  1.00  0.00    -0.266 OA
HETATM   25  N   UNL     1      43.578 -16.146   6.044  1.00  0.00    -0.321 N 
HETATM   26  C   UNL     1      43.661 -17.230   5.173  1.00  0.00     0.048 A 
HETATM   27  H   UNL     1      43.822 -16.154   7.023  1.00  0.00     0.169 HD
HETATM   28  C   UNL     1      44.086 -18.510   5.463  1.00  0.00     0.032 A 
HETATM   29  C   UNL     1      44.083 -19.440   4.414  1.00  0.00     0.021 A 
HETATM   30  C   UNL     1      43.661 -19.072   3.119  1.00  0.00     0.012 A 
HETATM   31 BR   UNL     1      43.674 -20.367   1.740  1.00  0.00    -0.051 Br
HETATM   32  C   UNL     1      43.237 -17.774   2.837  1.00  0.00     0.035 A 
ENDBRANCH   2  20
TORSDOF 6
ENDMDL
MODEL 9
REMARK VINA RESULT:      -8.0      2.276      3.508
REMARK  6 active torsions:
REMARK  status: ('A' for Active; 'I' for Inactive)
REMARK    1  A    between atoms: O_2  and  C_3 
REMARK    2  A    between atoms: C_4  and  C_5 
REMARK    3  A    between atoms: C_6  and  C_7 
REMARK       I    between atoms: C_7  and  N_8 
REMARK    4  A    between atoms: N_8  and  C_9 
REMARK    5  A    between atoms: C_9  and  C_10 
REMARK       I    between atoms: C_10  and  N_11 
REMARK    6  A    between atoms: N_11  and  N_12 
ROOT
HETATM    1  C   UNL     1      42.371 -10.569   6.392  1.00  0.00     0.255 C 
HETATM    2  N   UNL     1      42.953  -9.972   7.499  1.00  0.00    -0.245 N 
HETATM    3  O   UNL     1      41.164 -10.765   6.256  1.00  0.00    -0.270 OA
HETATM    4  H   UNL     1      43.968  -9.862   7.537  1.00  0.00     0.192 HD
ENDROOT
BRANCH   1   5
HETATM    5  C   UNL     1      43.382 -11.154   5.404  1.00  0.00     0.227 C 
BRANCH   5   6
HETATM    6  N   UNL     1      43.282 -12.589   5.165  1.00  0.00    -0.349 N 
HETATM    7  C   UNL     1      43.509 -13.480   6.185  1.00  0.00     0.241 C 
HETATM    8  O   UNL     1      43.656 -13.153   7.354  1.00  0.00    -0.269 OA
HETATM    9  H   UNL     1      43.234 -12.915   4.208  1.00  0.00     0.163 HD
BRANCH   7  10
HETATM   10  C   UNL     1      43.611 -14.883   5.720  1.00  0.00     0.075 C 
HETATM   11  C   UNL     1      43.385 -15.165   4.428  1.00  0.00     0.020 C 
BRANCH  11  12
HETATM   12  C   UNL     1      43.434 -16.539   3.913  1.00  0.00    -0.003 A 
HETATM   13  C   UNL     1      42.826 -16.907   2.699  1.00  0.00     0.078 A 
HETATM   14  C   UNL     1      42.896 -18.239   2.275  1.00  0.00     0.037 A 
HETATM   15  C   UNL     1      43.583 -19.190   3.037  1.00  0.00     0.003 A 
HETATM   16  C   UNL     1      44.199 -18.820   4.229  1.00  0.00     0.001 A 
HETATM   17  C   UNL     1      44.122 -17.500   4.669  1.00  0.00     0.014 A 
BRANCH  13  18
HETATM   18  O   UNL     1      42.171 -15.912   2.018  1.00  0.00    -0.355 OA
HETATM   19  C   UNL     1      40.755 -16.005   1.939  1.00  0.00     0.210 C 
ENDBRANCH  13  18
ENDBRANCH  11  12
ENDBRANCH   7  10
ENDBRANCH   5   6
ENDBRANCH   1   5
BRANCH   2  20
HETATM   20  N   UNL     1      42.174  -9.519   8.522  1.00  0.00    -0.166 NA
HETATM   21  C   UNL     1      42.593  -9.748   9.723  1.00  0.00     0.157 A 
HETATM   22  C   UNL     1      43.842 -10.510  10.175  1.00  0.00     0.277 A 
HETATM   23  C   UNL     1      41.907  -9.342  10.943  1.00  0.00     0.028 A 
HETATM   24  O   UNL     1      44.664 -11.002   9.430  1.00  0.00    -0.266 OA
HETATM   25  N   UNL     1      43.794 -10.512  11.553  1.00  0.00    -0.321 N 
HETATM   26  C   UNL     1      42.665  -9.831  12.007  1.00  0.00     0.048 A 
HETATM   27  H   UNL     1      44.491 -10.954  12.134  1.00  0.00     0.169 HD
HETATM   28  C   UNL     1      42.276  -9.628  13.314  1.00  0.00     0.032 A 
HETATM   29  C   UNL     1      41.092  -8.908  13.527  1.00  0.00     0.021 A 
HETATM   30  C   UNL     1      40.337  -8.416  12.441  1.00  0.00     0.012 A 
HETATM   31 BR   UNL     1      38.749  -7.448  12.782  1.00  0.00    -0.051 Br
HETATM   32  C   UNL     1      40.739  -8.632  11.123  1.00  0.00     0.035 A 
ENDBRANCH   2  20
TORSDOF 6
ENDMDL
MODEL 10
REMARK VINA RESULT:      -8.0      3.809     10.581
REMARK  6 active torsions:
REMARK  status: ('A' for Active; 'I' for Inactive)
REMARK    1  A    between atoms: O_2  and  C_3 
REMARK    2  A    between atoms: C_4  and  C_5 
REMARK    3  A    between atoms: C_6  and  C_7 
REMARK       I    between atoms: C_7  and  N_8 
REMARK    4  A    between atoms: N_8  and  C_9 
REMARK    5  A    between atoms: C_9  and  C_10 
REMARK       I    between atoms: C_10  and  N_11 
REMARK    6  A    between atoms: N_11  and  N_12 
ROOT
HETATM    1  C   UNL     1      43.432 -12.402   6.598  1.00  0.00     0.255 C 
HETATM    2  N   UNL     1      42.864 -13.140   5.573  1.00  0.00    -0.245 N 
HETATM    3  O   UNL     1      44.119 -12.874   7.504  1.00  0.00    -0.270 OA
HETATM    4  H   UNL     1      42.293 -12.669   4.869  1.00  0.00     0.192 HD
ENDROOT
BRANCH   1   5
HETATM    5  C   UNL     1      42.977 -10.941   6.632  1.00  0.00     0.227 C 
BRANCH   5   6
HETATM    6  N   UNL     1      42.593 -10.424   7.941  1.00  0.00    -0.349 N 
HETATM    7  C   UNL     1      41.815  -9.297   8.041  1.00  0.00     0.241 C 
HETATM    8  O   UNL     1      41.283  -8.751   7.085  1.00  0.00    -0.269 OA
HETATM    9  H   UNL     1      43.062 -10.791   8.759  1.00  0.00     0.163 HD
BRANCH   7  10
HETATM   10  C   UNL     1      41.728  -8.771   9.423  1.00  0.00     0.075 C 
HETATM   11  C   UNL     1      42.707  -7.979   9.887  1.00  0.00     0.020 C 
BRANCH  11  12
HETATM   12  C   UNL     1      42.697  -7.457  11.259  1.00  0.00    -0.003 A 
HETATM   13  C   UNL     1      42.158  -6.197  11.578  1.00  0.00     0.078 A 
HETATM   14  C   UNL     1      42.197  -5.753  12.905  1.00  0.00     0.037 A 
HETATM   15  C   UNL     1      42.745  -6.561  13.907  1.00  0.00     0.003 A 
HETATM   16  C   UNL     1      43.261  -7.814  13.593  1.00  0.00     0.001 A 
HETATM   17  C   UNL     1      43.242  -8.260  12.272  1.00  0.00     0.014 A 
BRANCH  13  18
HETATM   18  O   UNL     1      41.645  -5.470  10.534  1.00  0.00    -0.355 OA
HETATM   19  C   UNL     1      40.280  -5.086  10.621  1.00  0.00     0.210 C 
ENDBRANCH  13  18
ENDBRANCH  11  12
ENDBRANCH   7  10
ENDBRANCH   5   6
ENDBRANCH   1   5
BRANCH   2  20
HETATM   20  N   UNL     1      43.081 -14.484   5.494  1.00  0.00    -0.166 NA
HETATM   21  C   UNL     1      43.111 -15.004   4.311  1.00  0.00     0.157 A 
HETATM   22  C   UNL     1      42.891 -14.323   2.958  1.00  0.00     0.277 A 
HETATM   23  C   UNL     1      43.332 -16.414   4.019  1.00  0.00     0.028 A 
HETATM   24  O   UNL     1      42.675 -13.139   2.801  1.00  0.00    -0.266 OA
HETATM   25  N   UNL     1      42.977 -15.331   2.020  1.00  0.00    -0.321 N 
HETATM   26  C   UNL     1      43.234 -16.554   2.635  1.00  0.00     0.048 A 
HETATM   27  H   UNL     1      42.863 -15.180   1.028  1.00  0.00     0.169 HD
HETATM   28  C   UNL     1      43.381 -17.785   2.030  1.00  0.00     0.032 A 
HETATM   29  C   UNL     1      43.637 -18.883   2.862  1.00  0.00     0.021 A 
HETATM   30  C   UNL     1      43.737 -18.726   4.261  1.00  0.00     0.012 A 
HETATM   31 BR   UNL     1      44.086 -20.240   5.339  1.00  0.00    -0.051 Br
HETATM   32  C   UNL     1      43.582 -17.477   4.863  1.00  0.00     0.035 A 
ENDBRANCH   2  20
TORSDOF 6
ENDMDL
