MODEL 1
REMARK VINA RESULT:      -8.5      0.000      0.000
REMARK  4 active torsions:
REMARK  status: ('A' for Active; 'I' for Inactive)
REMARK    1  A    between atoms: O_2  and  C_3 
REMARK    2  A    between atoms: C_6  and  C_7 
REMARK    3  A    between atoms: C_9  and  N_10 
REMARK       I    between atoms: N_10  and  C_11 
REMARK    4  A    between atoms: C_11  and  C_12 
ROOT
HETATM    1  C   UNL     1      43.249 -14.967   4.850  1.00  0.00     0.173 A 
HETATM    2  N   UNL     1      43.420 -14.449   6.054  1.00  0.00    -0.041 NA
HETATM    3  C   UNL     1      43.083 -13.130   5.901  1.00  0.00     0.748 A 
HETATM    4  N   UNL     1      42.712 -12.801   4.667  1.00  0.00     0.021 NA
HETATM    5  N   UNL     1      42.824 -13.964   4.023  1.00  0.00    -0.244 N 
HETATM    6  H   UNL     1      42.573 -14.008   3.043  1.00  0.00     0.191 HD
ENDROOT
BRANCH   3   7
HETATM    7  N   UNL     1      43.154 -12.327   7.005  1.00  0.00    -0.150 N 
HETATM    8  C   UNL     1      44.182 -11.458   7.283  1.00  0.00     0.270 C 
HETATM    9  O   UNL     1      45.199 -11.294   6.617  1.00  0.00    -0.267 OA
HETATM   10  H   UNL     1      42.375 -12.457   7.628  1.00  0.00     0.188 HD
BRANCH   8  11
HETATM   11  C   UNL     1      44.041 -10.656   8.540  1.00  0.00     0.035 A 
HETATM   12  C   UNL     1      42.830 -10.081   8.946  1.00  0.00     0.056 A 
HETATM   13  C   UNL     1      42.774  -9.344  10.131  1.00  0.00     0.103 A 
HETATM   14  C   UNL     1      43.928  -9.136  10.894  1.00  0.00     0.102 A 
HETATM   15  O   UNL     1      41.546  -8.838  10.479  1.00  0.00    -0.346 OA
HETATM   16  O   UNL     1      43.947  -8.388  12.042  1.00  0.00    -0.346 OA
HETATM   17  C   UNL     1      45.134  -9.702  10.496  1.00  0.00     0.040 A 
HETATM   18  C   UNL     1      42.770  -7.581  12.159  1.00  0.00     0.202 C 
HETATM   19  C   UNL     1      41.529  -8.401  11.844  1.00  0.00     0.202 C 
HETATM   20  C   UNL     1      45.191 -10.457   9.322  1.00  0.00     0.020 A 
ENDBRANCH   8  11
ENDBRANCH   3   7
BRANCH   1  21
HETATM   21  C   UNL     1      43.420 -16.363   4.449  1.00  0.00     0.012 A 
HETATM   22  C   UNL     1      43.083 -16.753   3.147  1.00  0.00     0.018 A 
HETATM   23  C   UNL     1      43.274 -18.073   2.723  1.00  0.00     0.037 A 
HETATM   24  C   UNL     1      43.801 -19.029   3.590  1.00  0.00     0.068 A 
HETATM   25  C   UNL     1      44.115 -18.659   4.897  1.00  0.00     0.037 A 
HETATM   26  C   UNL     1      43.926 -17.337   5.323  1.00  0.00     0.018 A 
BRANCH  24  27
HETATM   27  O   UNL     1      43.952 -20.276   3.050  1.00  0.00    -0.356 OA
HETATM   28  C   UNL     1      43.571 -20.436   1.689  1.00  0.00     0.210 C 
ENDBRANCH  24  27
ENDBRANCH   1  21
TORSDOF 4
ENDMDL
MODEL 2
REMARK VINA RESULT:      -8.1      7.036      8.955
REMARK  4 active torsions:
REMARK  status: ('A' for Active; 'I' for Inactive)
REMARK    1  A    between atoms: O_2  and  C_3 
REMARK    2  A    between atoms: C_6  and  C_7 
REMARK    3  A    between atoms: C_9  and  N_10 
REMARK       I    between atoms: N_10  and  C_11 
REMARK    4  A    between atoms: C_11  and  C_12 
ROOT
HETATM    1  C   UNL     1      41.693 -15.977   1.949  1.00  0.00     0.173 A 
HETATM    2  N   UNL     1      42.140 -14.872   1.379  1.00  0.00    -0.041 NA
HETATM    3  C   UNL     1      41.031 -14.326   0.790  1.00  0.00     0.748 A 
HETATM    4  N   UNL     1      39.917 -15.033   0.964  1.00  0.00     0.021 NA
HETATM    5  N   UNL     1      40.353 -16.064   1.691  1.00  0.00    -0.244 N 
HETATM    6  H   UNL     1      39.688 -16.765   1.994  1.00  0.00     0.191 HD
ENDROOT
BRANCH   3   7
HETATM    7  N   UNL     1      41.186 -13.145   0.120  1.00  0.00    -0.150 N 
HETATM    8  C   UNL     1      40.660 -12.866  -1.118  1.00  0.00     0.270 C 
HETATM    9  O   UNL     1      40.011 -13.631  -1.824  1.00  0.00    -0.267 OA
HETATM   10  H   UNL     1      41.763 -12.490   0.620  1.00  0.00     0.188 HD
BRANCH   8  11
HETATM   11  C   UNL     1      40.936 -11.496  -1.655  1.00  0.00     0.035 A 
HETATM   12  C   UNL     1      41.726 -10.557  -0.979  1.00  0.00     0.056 A 
HETATM   13  C   UNL     1      41.939  -9.296  -1.541  1.00  0.00     0.103 A 
HETATM   14  C   UNL     1      41.333  -8.945  -2.752  1.00  0.00     0.102 A 
HETATM   15  O   UNL     1      42.751  -8.441  -0.836  1.00  0.00    -0.346 OA
HETATM   16  O   UNL     1      41.469  -7.711  -3.333  1.00  0.00    -0.346 OA
HETATM   17  C   UNL     1      40.546  -9.872  -3.428  1.00  0.00     0.040 A 
HETATM   18  C   UNL     1      41.987  -6.752  -2.405  1.00  0.00     0.202 C 
HETATM   19  C   UNL     1      43.167  -7.331  -1.642  1.00  0.00     0.202 C 
HETATM   20  C   UNL     1      40.346 -11.141  -2.880  1.00  0.00     0.020 A 
ENDBRANCH   8  11
ENDBRANCH   3   7
BRANCH   1  21
HETATM   21  C   UNL     1      42.450 -16.930   2.760  1.00  0.00     0.012 A 
HETATM   22  C   UNL     1      42.893 -18.127   2.184  1.00  0.00     0.018 A 
HETATM   23  C   UNL     1      43.653 -19.040   2.924  1.00  0.00     0.037 A 
HETATM   24  C   UNL     1      43.983 -18.777   4.253  1.00  0.00     0.068 A 
HETATM   25  C   UNL     1      43.525 -17.601   4.846  1.00  0.00     0.037 A 
HETATM   26  C   UNL     1      42.764 -16.685   4.105  1.00  0.00     0.018 A 
BRANCH  24  27
HETATM   27  O   UNL     1      44.742 -19.739   4.859  1.00  0.00    -0.356 OA
HETATM   28  C   UNL     1      44.066 -20.914   5.288  1.00  0.00     0.210 C 
ENDBRANCH  24  27
ENDBRANCH   1  21
TORSDOF 4
ENDMDL
MODEL 3
REMARK VINA RESULT:      -7.8      7.155      9.871
REMARK  4 active torsions:
REMARK  status: ('A' for Active; 'I' for Inactive)
REMARK    1  A    between atoms: O_2  and  C_3 
REMARK    2  A    between atoms: C_6  and  C_7 
REMARK    3  A    between atoms: C_9  and  N_10 
REMARK       I    between atoms: N_10  and  C_11 
REMARK    4  A    between atoms: C_11  and  C_12 
ROOT
HETATM    1  C   UNL     1      41.299 -15.891   2.400  1.00  0.00     0.173 A 
HETATM    2  N   UNL     1      41.482 -15.074   1.376  1.00  0.00    -0.041 NA
HETATM    3  C   UNL     1      40.337 -14.324   1.337  1.00  0.00     0.748 A 
HETATM    4  N   UNL     1      39.451 -14.631   2.281  1.00  0.00     0.021 NA
HETATM    5  N   UNL     1      40.071 -15.615   2.935  1.00  0.00    -0.244 N 
HETATM    6  H   UNL     1      39.618 -16.029   3.740  1.00  0.00     0.191 HD
ENDROOT
BRANCH   3   7
HETATM    7  N   UNL     1      40.242 -13.366   0.367  1.00  0.00    -0.150 N 
HETATM    8  C   UNL     1      39.614 -13.530  -0.844  1.00  0.00     0.270 C 
HETATM    9  O   UNL     1      39.083 -14.555  -1.258  1.00  0.00    -0.267 OA
HETATM   10  H   UNL     1      40.712 -12.513   0.619  1.00  0.00     0.188 HD
BRANCH   8  11
HETATM   11  C   UNL     1      39.609 -12.336  -1.748  1.00  0.00     0.035 A 
HETATM   12  C   UNL     1      38.436 -11.795  -2.290  1.00  0.00     0.056 A 
HETATM   13  C   UNL     1      38.508 -10.679  -3.127  1.00  0.00     0.103 A 
HETATM   14  C   UNL     1      39.747 -10.124  -3.467  1.00  0.00     0.102 A 
HETATM   15  O   UNL     1      37.315 -10.186  -3.593  1.00  0.00    -0.346 OA
HETATM   16  O   UNL     1      39.887  -9.057  -4.316  1.00  0.00    -0.346 OA
HETATM   17  C   UNL     1      40.916 -10.658  -2.934  1.00  0.00     0.040 A 
HETATM   18  C   UNL     1      38.688  -8.824  -5.063  1.00  0.00     0.202 C 
HETATM   19  C   UNL     1      37.473  -8.875  -4.151  1.00  0.00     0.202 C 
HETATM   20  C   UNL     1      40.847 -11.761  -2.080  1.00  0.00     0.020 A 
ENDBRANCH   8  11
ENDBRANCH   3   7
BRANCH   1  21
HETATM   21  C   UNL     1      42.235 -16.883   2.926  1.00  0.00     0.012 A 
HETATM   22  C   UNL     1      42.771 -16.714   4.208  1.00  0.00     0.018 A 
HETATM   23  C   UNL     1      43.638 -17.667   4.754  1.00  0.00     0.037 A 
HETATM   24  C   UNL     1      43.990 -18.805   4.029  1.00  0.00     0.068 A 
HETATM   25  C   UNL     1      43.484 -18.971   2.741  1.00  0.00     0.037 A 
HETATM   26  C   UNL     1      42.614 -18.018   2.194  1.00  0.00     0.018 A 
BRANCH  24  27
HETATM   27  O   UNL     1      44.830 -19.665   4.680  1.00  0.00    -0.356 OA
HETATM   28  C   UNL     1      44.240 -20.816   5.270  1.00  0.00     0.210 C 
ENDBRANCH  24  27
ENDBRANCH   1  21
TORSDOF 4
ENDMDL
MODEL 4
REMARK VINA RESULT:      -7.8      6.868     10.557
REMARK  4 active torsions:
REMARK  status: ('A' for Active; 'I' for Inactive)
REMARK    1  A    between atoms: O_2  and  C_3 
REMARK    2  A    between atoms: C_6  and  C_7 
REMARK    3  A    between atoms: C_9  and  N_10 
REMARK       I    between atoms: N_10  and  C_11 
REMARK    4  A    between atoms: C_11  and  C_12 
ROOT
HETATM    1  C   UNL     1      42.427  -8.965  12.394  1.00  0.00     0.173 A 
HETATM    2  N   UNL     1      42.544  -8.430  13.597  1.00  0.00    -0.041 NA
HETATM    3  C   UNL     1      41.458  -8.905  14.282  1.00  0.00     0.748 A 
HETATM    4  N   UNL     1      40.671  -9.707  13.570  1.00  0.00     0.021 NA
HETATM    5  N   UNL     1      41.294  -9.731  12.389  1.00  0.00    -0.244 N 
HETATM    6  H   UNL     1      40.913 -10.302  11.646  1.00  0.00     0.191 HD
ENDROOT
BRANCH   3   7
HETATM    7  N   UNL     1      41.315  -8.522  15.586  1.00  0.00    -0.150 N 
HETATM    8  C   UNL     1      40.725  -7.353  16.004  1.00  0.00     0.270 C 
HETATM    9  O   UNL     1      40.275  -6.466  15.287  1.00  0.00    -0.267 OA
HETATM   10  H   UNL     1      41.720  -9.181  16.230  1.00  0.00     0.188 HD
BRANCH   8  11
HETATM   11  C   UNL     1      40.655  -7.147  17.486  1.00  0.00     0.035 A 
HETATM   12  C   UNL     1      39.975  -8.019  18.346  1.00  0.00     0.056 A 
HETATM   13  C   UNL     1      39.951  -7.762  19.718  1.00  0.00     0.103 A 
HETATM   14  C   UNL     1      40.560  -6.615  20.238  1.00  0.00     0.102 A 
HETATM   15  O   UNL     1      39.293  -8.679  20.500  1.00  0.00    -0.346 OA
HETATM   16  O   UNL     1      40.534  -6.285  21.568  1.00  0.00    -0.346 OA
HETATM   17  C   UNL     1      41.234  -5.743  19.390  1.00  0.00     0.040 A 
HETATM   18  C   UNL     1      39.540  -7.037  22.273  1.00  0.00     0.202 C 
HETATM   19  C   UNL     1      39.609  -8.505  21.888  1.00  0.00     0.202 C 
HETATM   20  C   UNL     1      41.279  -6.006  18.019  1.00  0.00     0.020 A 
ENDBRANCH   8  11
ENDBRANCH   3   7
BRANCH   1  21
HETATM   21  C   UNL     1      43.347  -8.829  11.266  1.00  0.00     0.012 A 
HETATM   22  C   UNL     1      44.415  -9.725  11.135  1.00  0.00     0.018 A 
HETATM   23  C   UNL     1      45.289  -9.645  10.045  1.00  0.00     0.037 A 
HETATM   24  C   UNL     1      45.115  -8.667   9.066  1.00  0.00     0.068 A 
HETATM   25  C   UNL     1      44.072  -7.752   9.199  1.00  0.00     0.037 A 
HETATM   26  C   UNL     1      43.195  -7.833  10.290  1.00  0.00     0.018 A 
BRANCH  24  27
HETATM   27  O   UNL     1      46.024  -8.705   8.046  1.00  0.00    -0.356 OA
HETATM   28  C   UNL     1      46.446  -9.991   7.609  1.00  0.00     0.210 C 
ENDBRANCH  24  27
ENDBRANCH   1  21
TORSDOF 4
ENDMDL
MODEL 5
REMARK VINA RESULT:      -7.8      7.070     11.043
REMARK  4 active torsions:
REMARK  status: ('A' for Active; 'I' for Inactive)
REMARK    1  A    between atoms: O_2  and  C_3 
REMARK    2  A    between atoms: C_6  and  C_7 
REMARK    3  A    between atoms: C_9  and  N_10 
REMARK       I    between atoms: N_10  and  C_11 
REMARK    4  A    between atoms: C_11  and  C_12 
ROOT
HETATM    1  C   UNL     1      42.331  -8.495  13.100  1.00  0.00     0.173 A 
HETATM    2  N   UNL     1      42.237  -8.957  14.335  1.00  0.00    -0.041 NA
HETATM    3  C   UNL     1      41.391  -8.078  14.958  1.00  0.00     0.748 A 
HETATM    4  N   UNL     1      40.955  -7.093  14.177  1.00  0.00     0.021 NA
HETATM    5  N   UNL     1      41.556  -7.371  13.018  1.00  0.00    -0.244 N 
HETATM    6  H   UNL     1      41.375  -6.777  12.218  1.00  0.00     0.191 HD
ENDROOT
BRANCH   3   7
HETATM    7  N   UNL     1      41.091  -8.312  16.271  1.00  0.00    -0.150 N 
HETATM    8  C   UNL     1      41.506  -7.533  17.325  1.00  0.00     0.270 C 
HETATM    9  O   UNL     1      42.228  -6.544  17.262  1.00  0.00    -0.267 OA
HETATM   10  H   UNL     1      40.547  -9.148  16.400  1.00  0.00     0.188 HD
BRANCH   8  11
HETATM   11  C   UNL     1      41.038  -7.962  18.681  1.00  0.00     0.035 A 
HETATM   12  C   UNL     1      41.914  -8.209  19.747  1.00  0.00     0.056 A 
HETATM   13  C   UNL     1      41.405  -8.608  20.985  1.00  0.00     0.103 A 
HETATM   14  C   UNL     1      40.031  -8.809  21.158  1.00  0.00     0.102 A 
HETATM   15  O   UNL     1      42.322  -8.800  21.989  1.00  0.00    -0.346 OA
HETATM   16  O   UNL     1      39.476  -9.240  22.335  1.00  0.00    -0.346 OA
HETATM   17  C   UNL     1      39.157  -8.567  20.104  1.00  0.00     0.040 A 
HETATM   18  C   UNL     1      40.468  -9.785  23.212  1.00  0.00     0.202 C 
HETATM   19  C   UNL     1      41.685  -8.875  23.271  1.00  0.00     0.202 C 
HETATM   20  C   UNL     1      39.659  -8.148  18.870  1.00  0.00     0.020 A 
ENDBRANCH   8  11
ENDBRANCH   3   7
BRANCH   1  21
HETATM   21  C   UNL     1      43.075  -9.079  11.985  1.00  0.00     0.012 A 
HETATM   22  C   UNL     1      43.319 -10.457  11.966  1.00  0.00     0.018 A 
HETATM   23  C   UNL     1      43.994 -11.051  10.893  1.00  0.00     0.037 A 
HETATM   24  C   UNL     1      44.440 -10.279   9.820  1.00  0.00     0.068 A 
HETATM   25  C   UNL     1      44.227  -8.902   9.841  1.00  0.00     0.037 A 
HETATM   26  C   UNL     1      43.550  -8.307  10.915  1.00  0.00     0.018 A 
BRANCH  24  27
HETATM   27  O   UNL     1      45.069 -10.980   8.830  1.00  0.00    -0.356 OA
HETATM   28  C   UNL     1      45.935 -10.246   7.974  1.00  0.00     0.210 C 
ENDBRANCH  24  27
ENDBRANCH   1  21
TORSDOF 4
ENDMDL
MODEL 6
REMARK VINA RESULT:      -7.7      2.283     10.216
REMARK  4 active torsions:
REMARK  status: ('A' for Active; 'I' for Inactive)
REMARK    1  A    between atoms: O_2  and  C_3 
REMARK    2  A    between atoms: C_6  and  C_7 
REMARK    3  A    between atoms: C_9  and  N_10 
REMARK       I    between atoms: N_10  and  C_11 
REMARK    4  A    between atoms: C_11  and  C_12 
ROOT
HETATM    1  C   UNL     1      44.033  -9.139   9.580  1.00  0.00     0.173 A 
HETATM    2  N   UNL     1      43.596 -10.311   9.153  1.00  0.00    -0.041 NA
HETATM    3  C   UNL     1      44.459 -10.641   8.141  1.00  0.00     0.748 A 
HETATM    4  N   UNL     1      45.408  -9.737   7.916  1.00  0.00     0.021 NA
HETATM    5  N   UNL     1      45.124  -8.803   8.827  1.00  0.00    -0.244 N 
HETATM    6  H   UNL     1      45.722  -7.988   8.896  1.00  0.00     0.191 HD
ENDROOT
BRANCH   3   7
HETATM    7  N   UNL     1      44.258 -11.833   7.503  1.00  0.00    -0.150 N 
HETATM    8  C   UNL     1      43.363 -12.038   6.481  1.00  0.00     0.270 C 
HETATM    9  O   UNL     1      42.589 -11.211   6.011  1.00  0.00    -0.267 OA
HETATM   10  H   UNL     1      44.822 -12.574   7.882  1.00  0.00     0.188 HD
BRANCH   8  11
HETATM   11  C   UNL     1      43.326 -13.422   5.910  1.00  0.00     0.035 A 
HETATM   12  C   UNL     1      43.686 -14.560   6.644  1.00  0.00     0.056 A 
HETATM   13  C   UNL     1      43.628 -15.820   6.044  1.00  0.00     0.103 A 
HETATM   14  C   UNL     1      43.256 -15.952   4.702  1.00  0.00     0.102 A 
HETATM   15  O   UNL     1      43.965 -16.890   6.836  1.00  0.00    -0.346 OA
HETATM   16  O   UNL     1      43.220 -17.155   4.045  1.00  0.00    -0.346 OA
HETATM   17  C   UNL     1      42.899 -14.827   3.967  1.00  0.00     0.040 A 
HETATM   18  C   UNL     1      43.930 -18.166   4.770  1.00  0.00     0.202 C 
HETATM   19  C   UNL     1      43.556 -18.129   6.242  1.00  0.00     0.202 C 
HETATM   20  C   UNL     1      42.936 -13.567   4.568  1.00  0.00     0.020 A 
ENDBRANCH   8  11
ENDBRANCH   3   7
BRANCH   1  21
HETATM   21  C   UNL     1      43.507  -8.342  10.688  1.00  0.00     0.012 A 
HETATM   22  C   UNL     1      42.885  -7.116  10.421  1.00  0.00     0.018 A 
HETATM   23  C   UNL     1      42.337  -6.350  11.456  1.00  0.00     0.037 A 
HETATM   24  C   UNL     1      42.401  -6.792  12.777  1.00  0.00     0.068 A 
HETATM   25  C   UNL     1      43.041  -7.998  13.059  1.00  0.00     0.037 A 
HETATM   26  C   UNL     1      43.590  -8.766  12.022  1.00  0.00     0.018 A 
BRANCH  24  27
HETATM   27  O   UNL     1      41.814  -5.962  13.691  1.00  0.00    -0.356 OA
HETATM   28  C   UNL     1      41.958  -6.310  15.062  1.00  0.00     0.210 C 
ENDBRANCH  24  27
ENDBRANCH   1  21
TORSDOF 4
ENDMDL
MODEL 7
REMARK VINA RESULT:      -7.7      2.931     10.488
REMARK  4 active torsions:
REMARK  status: ('A' for Active; 'I' for Inactive)
REMARK    1  A    between atoms: O_2  and  C_3 
REMARK    2  A    between atoms: C_6  and  C_7 
REMARK    3  A    between atoms: C_9  and  N_10 
REMARK       I    between atoms: N_10  and  C_11 
REMARK    4  A    between atoms: C_11  and  C_12 
ROOT
HETATM    1  C   UNL     1      43.814  -9.138  10.506  1.00  0.00     0.173 A 
HETATM    2  N   UNL     1      43.174  -9.842   9.589  1.00  0.00    -0.041 NA
HETATM    3  C   UNL     1      44.123 -10.703   9.103  1.00  0.00     0.748 A 
HETATM    4  N   UNL     1      45.319 -10.571   9.670  1.00  0.00     0.021 NA
HETATM    5  N   UNL     1      45.106  -9.585  10.544  1.00  0.00    -0.244 N 
HETATM    6  H   UNL     1      45.866  -9.290  11.145  1.00  0.00     0.191 HD
ENDROOT
BRANCH   3   7
HETATM    7  N   UNL     1      43.741 -11.581   8.129  1.00  0.00    -0.150 N 
HETATM    8  C   UNL     1      44.370 -11.735   6.916  1.00  0.00     0.270 C 
HETATM    9  O   UNL     1      45.333 -11.096   6.507  1.00  0.00    -0.267 OA
HETATM   10  H   UNL     1      42.914 -12.099   8.376  1.00  0.00     0.188 HD
BRANCH   8  11
HETATM   11  C   UNL     1      43.794 -12.776   6.006  1.00  0.00     0.035 A 
HETATM   12  C   UNL     1      43.377 -12.499   4.698  1.00  0.00     0.056 A 
HETATM   13  C   UNL     1      42.848 -13.522   3.907  1.00  0.00     0.103 A 
HETATM   14  C   UNL     1      42.688 -14.811   4.425  1.00  0.00     0.102 A 
HETATM   15  O   UNL     1      42.491 -13.181   2.625  1.00  0.00    -0.346 OA
HETATM   16  O   UNL     1      42.137 -15.846   3.715  1.00  0.00    -0.346 OA
HETATM   17  C   UNL     1      43.098 -15.093   5.724  1.00  0.00     0.040 A 
HETATM   18  C   UNL     1      41.443 -15.371   2.555  1.00  0.00     0.202 C 
HETATM   19  C   UNL     1      42.284 -14.344   1.814  1.00  0.00     0.202 C 
HETATM   20  C   UNL     1      43.646 -14.079   6.512  1.00  0.00     0.020 A 
ENDBRANCH   8  11
ENDBRANCH   3   7
BRANCH   1  21
HETATM   21  C   UNL     1      43.264  -8.101  11.377  1.00  0.00     0.012 A 
HETATM   22  C   UNL     1      43.365  -8.242  12.766  1.00  0.00     0.018 A 
HETATM   23  C   UNL     1      42.883  -7.247  13.625  1.00  0.00     0.037 A 
HETATM   24  C   UNL     1      42.289  -6.094  13.113  1.00  0.00     0.068 A 
HETATM   25  C   UNL     1      42.159  -5.954  11.732  1.00  0.00     0.037 A 
HETATM   26  C   UNL     1      42.642  -6.950  10.871  1.00  0.00     0.018 A 
BRANCH  24  27
HETATM   27  O   UNL     1      41.875  -5.193  14.054  1.00  0.00    -0.356 OA
HETATM   28  C   UNL     1      41.399  -5.723  15.284  1.00  0.00     0.210 C 
ENDBRANCH  24  27
ENDBRANCH   1  21
TORSDOF 4
ENDMDL
MODEL 8
REMARK VINA RESULT:      -7.6      2.704     10.573
REMARK  4 active torsions:
REMARK  status: ('A' for Active; 'I' for Inactive)
REMARK    1  A    between atoms: O_2  and  C_3 
REMARK    2  A    between atoms: C_6  and  C_7 
REMARK    3  A    between atoms: C_9  and  N_10 
REMARK       I    between atoms: N_10  and  C_11 
REMARK    4  A    between atoms: C_11  and  C_12 
ROOT
HETATM    1  C   UNL     1      43.743  -9.028  10.730  1.00  0.00     0.173 A 
HETATM    2  N   UNL     1      43.127  -9.699   9.772  1.00  0.00    -0.041 NA
HETATM    3  C   UNL     1      44.069 -10.589   9.328  1.00  0.00     0.748 A 
HETATM    4  N   UNL     1      45.238 -10.507   9.958  1.00  0.00     0.021 NA
HETATM    5  N   UNL     1      45.015  -9.522  10.831  1.00  0.00    -0.244 N 
HETATM    6  H   UNL     1      45.751  -9.261  11.474  1.00  0.00     0.191 HD
ENDROOT
BRANCH   3   7
HETATM    7  N   UNL     1      43.708 -11.443   8.324  1.00  0.00    -0.150 N 
HETATM    8  C   UNL     1      44.415 -11.636   7.161  1.00  0.00     0.270 C 
HETATM    9  O   UNL     1      45.443 -11.056   6.827  1.00  0.00    -0.267 OA
HETATM   10  H   UNL     1      42.836 -11.910   8.508  1.00  0.00     0.188 HD
BRANCH   8  11
HETATM   11  C   UNL     1      43.847 -12.641   6.207  1.00  0.00     0.035 A 
HETATM   12  C   UNL     1      43.689 -13.995   6.530  1.00  0.00     0.056 A 
HETATM   13  C   UNL     1      43.153 -14.876   5.588  1.00  0.00     0.103 A 
HETATM   14  C   UNL     1      42.815 -14.427   4.307  1.00  0.00     0.102 A 
HETATM   15  O   UNL     1      42.999 -16.180   5.989  1.00  0.00    -0.346 OA
HETATM   16  O   UNL     1      42.324 -15.249   3.326  1.00  0.00    -0.346 OA
HETATM   17  C   UNL     1      42.971 -13.084   3.979  1.00  0.00     0.040 A 
HETATM   18  C   UNL     1      42.537 -16.628   3.647  1.00  0.00     0.202 C 
HETATM   19  C   UNL     1      42.150 -16.906   5.090  1.00  0.00     0.202 C 
HETATM   20  C   UNL     1      43.487 -12.195   4.924  1.00  0.00     0.020 A 
ENDBRANCH   8  11
ENDBRANCH   3   7
BRANCH   1  21
HETATM   21  C   UNL     1      43.185  -7.980  11.583  1.00  0.00     0.012 A 
HETATM   22  C   UNL     1      43.295  -8.091  12.975  1.00  0.00     0.018 A 
HETATM   23  C   UNL     1      42.806  -7.085  13.815  1.00  0.00     0.037 A 
HETATM   24  C   UNL     1      42.195  -5.950  13.283  1.00  0.00     0.068 A 
HETATM   25  C   UNL     1      42.056  -5.840  11.900  1.00  0.00     0.037 A 
HETATM   26  C   UNL     1      42.547  -6.847  11.058  1.00  0.00     0.018 A 
BRANCH  24  27
HETATM   27  O   UNL     1      41.776  -5.035  14.208  1.00  0.00    -0.356 OA
HETATM   28  C   UNL     1      41.148  -3.860  13.711  1.00  0.00     0.210 C 
ENDBRANCH  24  27
ENDBRANCH   1  21
TORSDOF 4
ENDMDL
MODEL 9
REMARK VINA RESULT:      -7.6      2.003      3.137
REMARK  4 active torsions:
REMARK  status: ('A' for Active; 'I' for Inactive)
REMARK    1  A    between atoms: O_2  and  C_3 
REMARK    2  A    between atoms: C_6  and  C_7 
REMARK    3  A    between atoms: C_9  and  N_10 
REMARK       I    between atoms: N_10  and  C_11 
REMARK    4  A    between atoms: C_11  and  C_12 
ROOT
HETATM    1  C   UNL     1      44.034 -12.924   6.741  1.00  0.00     0.173 A 
HETATM    2  N   UNL     1      43.253 -12.373   7.654  1.00  0.00    -0.041 NA
HETATM    3  C   UNL     1      43.922 -11.238   8.026  1.00  0.00     0.748 A 
HETATM    4  N   UNL     1      45.078 -11.053   7.393  1.00  0.00     0.021 NA
HETATM    5  N   UNL     1      45.131 -12.121   6.593  1.00  0.00    -0.244 N 
HETATM    6  H   UNL     1      45.917 -12.223   5.964  1.00  0.00     0.191 HD
ENDROOT
BRANCH   3   7
HETATM    7  N   UNL     1      43.338 -10.440   8.970  1.00  0.00    -0.150 N 
HETATM    8  C   UNL     1      43.648 -10.448  10.309  1.00  0.00     0.270 C 
HETATM    9  O   UNL     1      44.455 -11.184  10.867  1.00  0.00    -0.267 OA
HETATM   10  H   UNL     1      42.619  -9.850   8.587  1.00  0.00     0.188 HD
BRANCH   8  11
HETATM   11  C   UNL     1      42.899  -9.471  11.161  1.00  0.00     0.035 A 
HETATM   12  C   UNL     1      41.506  -9.329  11.115  1.00  0.00     0.056 A 
HETATM   13  C   UNL     1      40.875  -8.394  11.939  1.00  0.00     0.103 A 
HETATM   14  C   UNL     1      41.627  -7.564  12.778  1.00  0.00     0.102 A 
HETATM   15  O   UNL     1      39.506  -8.335  11.860  1.00  0.00    -0.346 OA
HETATM   16  O   UNL     1      41.071  -6.600  13.578  1.00  0.00    -0.346 OA
HETATM   17  C   UNL     1      43.010  -7.699  12.828  1.00  0.00     0.040 A 
HETATM   18  C   UNL     1      39.722  -6.315  13.192  1.00  0.00     0.202 C 
HETATM   19  C   UNL     1      38.950  -7.604  12.961  1.00  0.00     0.202 C 
HETATM   20  C   UNL     1      43.644  -8.646  12.020  1.00  0.00     0.020 A 
ENDBRANCH   8  11
ENDBRANCH   3   7
BRANCH   1  21
HETATM   21  C   UNL     1      43.781 -14.140   5.969  1.00  0.00     0.012 A 
HETATM   22  C   UNL     1      43.114 -14.051   4.741  1.00  0.00     0.018 A 
HETATM   23  C   UNL     1      42.893 -15.193   3.961  1.00  0.00     0.037 A 
HETATM   24  C   UNL     1      43.330 -16.444   4.394  1.00  0.00     0.068 A 
HETATM   25  C   UNL     1      43.971 -16.549   5.628  1.00  0.00     0.037 A 
HETATM   26  C   UNL     1      44.194 -15.406   6.408  1.00  0.00     0.018 A 
BRANCH  24  27
HETATM   27  O   UNL     1      43.067 -17.474   3.535  1.00  0.00    -0.356 OA
HETATM   28  C   UNL     1      44.026 -18.523   3.476  1.00  0.00     0.210 C 
ENDBRANCH  24  27
ENDBRANCH   1  21
TORSDOF 4
ENDMDL
MODEL 10
REMARK VINA RESULT:      -7.5      6.270     10.243
REMARK  4 active torsions:
REMARK  status: ('A' for Active; 'I' for Inactive)
REMARK    1  A    between atoms: O_2  and  C_3 
REMARK    2  A    between atoms: C_6  and  C_7 
REMARK    3  A    between atoms: C_9  and  N_10 
REMARK       I    between atoms: N_10  and  C_11 
REMARK    4  A    between atoms: C_11  and  C_12 
ROOT
HETATM    1  C   UNL     1      39.250 -12.407   0.627  1.00  0.00     0.173 A 
HETATM    2  N   UNL     1      39.815 -13.598   0.718  1.00  0.00    -0.041 NA
HETATM    3  C   UNL     1      40.420 -13.589   1.948  1.00  0.00     0.748 A 
HETATM    4  N   UNL     1      40.261 -12.455   2.625  1.00  0.00     0.021 NA
HETATM    5  N   UNL     1      39.527 -11.727   1.781  1.00  0.00    -0.244 N 
HETATM    6  H   UNL     1      39.232 -10.800   2.061  1.00  0.00     0.191 HD
ENDROOT
BRANCH   3   7
HETATM    7  N   UNL     1      41.089 -14.716   2.332  1.00  0.00    -0.150 N 
HETATM    8  C   UNL     1      42.404 -14.756   2.728  1.00  0.00     0.270 C 
HETATM    9  O   UNL     1      43.185 -13.811   2.763  1.00  0.00    -0.267 OA
HETATM   10  H   UNL     1      40.520 -15.544   2.269  1.00  0.00     0.188 HD
BRANCH   8  11
HETATM   11  C   UNL     1      42.928 -16.100   3.132  1.00  0.00     0.035 A 
HETATM   12  C   UNL     1      42.766 -17.249   2.347  1.00  0.00     0.056 A 
HETATM   13  C   UNL     1      43.280 -18.470   2.789  1.00  0.00     0.103 A 
HETATM   14  C   UNL     1      43.916 -18.566   4.031  1.00  0.00     0.102 A 
HETATM   15  O   UNL     1      43.110 -19.544   1.950  1.00  0.00    -0.346 OA
HETATM   16  O   UNL     1      44.405 -19.741   4.538  1.00  0.00    -0.346 OA
HETATM   17  C   UNL     1      44.079 -17.429   4.816  1.00  0.00     0.040 A 
HETATM   18  C   UNL     1      43.880 -20.872   3.833  1.00  0.00     0.202 C 
HETATM   19  C   UNL     1      43.948 -20.643   2.332  1.00  0.00     0.202 C 
HETATM   20  C   UNL     1      43.585 -16.202   4.369  1.00  0.00     0.020 A 
ENDBRANCH   8  11
ENDBRANCH   3   7
BRANCH   1  21
HETATM   21  C   UNL     1      38.428 -11.893  -0.468  1.00  0.00     0.012 A 
HETATM   22  C   UNL     1      38.202 -12.693  -1.594  1.00  0.00     0.018 A 
HETATM   23  C   UNL     1      37.387 -12.244  -2.640  1.00  0.00     0.037 A 
HETATM   24  C   UNL     1      36.784 -10.988  -2.582  1.00  0.00     0.068 A 
HETATM   25  C   UNL     1      37.024 -10.171  -1.478  1.00  0.00     0.037 A 
HETATM   26  C   UNL     1      37.839 -10.621  -0.430  1.00  0.00     0.018 A 
BRANCH  24  27
HETATM   27  O   UNL     1      36.001 -10.676  -3.658  1.00  0.00    -0.356 OA
HETATM   28  C   UNL     1      34.773 -11.382  -3.785  1.00  0.00     0.210 C 
ENDBRANCH  24  27
ENDBRANCH   1  21
TORSDOF 4
ENDMDL
