MODEL 1
REMARK VINA RESULT:      -8.9      0.000      0.000
REMARK  7 active torsions:
REMARK  status: ('A' for Active; 'I' for Inactive)
REMARK    1  A    between atoms: C_7  and  C_8 
REMARK    2  A    between atoms: N_9  and  N_10 
REMARK       I    between atoms: N_10  and  C_11 
REMARK    3  A    between atoms: C_11  and  C_12 
REMARK    4  A    between atoms: C_12  and  N_13 
REMARK       I    between atoms: N_13  and  C_14 
REMARK    5  A    between atoms: C_14  and  C_15 
REMARK    6  A    between atoms: C_16  and  C_17 
REMARK    7  A    between atoms: C_18  and  O_19 
ROOT
HETATM    1  N   UNL     1      43.886 -11.838   7.162  1.00  0.00    -0.246 N 
HETATM    2  C   UNL     1      45.069 -11.206   6.806  1.00  0.00     0.255 C 
HETATM    3  O   UNL     1      45.464 -11.008   5.660  1.00  0.00    -0.270 OA
HETATM    4  H   UNL     1      43.695 -12.016   8.151  1.00  0.00     0.192 HD
ENDROOT
BRANCH   2   5
HETATM    5  C   UNL     1      45.871 -10.738   8.022  1.00  0.00     0.227 C 
BRANCH   5   6
HETATM    6  N   UNL     1      45.018 -10.142   9.037  1.00  0.00    -0.349 N 
HETATM    7  C   UNL     1      44.844  -8.787   9.118  1.00  0.00     0.241 C 
HETATM    8  O   UNL     1      45.362  -8.000   8.331  1.00  0.00    -0.269 OA
HETATM    9  H   UNL     1      44.469 -10.764   9.616  1.00  0.00     0.163 HD
BRANCH   7  10
HETATM   10  C   UNL     1      43.916  -8.374  10.192  1.00  0.00     0.075 C 
HETATM   11  C   UNL     1      43.856  -9.083  11.330  1.00  0.00     0.020 C 
BRANCH  11  12
HETATM   12  C   UNL     1      42.989  -8.669  12.438  1.00  0.00    -0.003 A 
HETATM   13  C   UNL     1      41.677  -9.157  12.592  1.00  0.00     0.078 A 
HETATM   14  C   UNL     1      40.905  -8.706  13.669  1.00  0.00     0.037 A 
HETATM   15  C   UNL     1      41.428  -7.785  14.581  1.00  0.00     0.003 A 
HETATM   16  C   UNL     1      42.724  -7.304  14.427  1.00  0.00     0.001 A 
HETATM   17  C   UNL     1      43.503  -7.744  13.359  1.00  0.00     0.014 A 
BRANCH  13  18
HETATM   18  O   UNL     1      41.246 -10.055  11.647  1.00  0.00    -0.355 OA
HETATM   19  C   UNL     1      40.251  -9.612  10.731  1.00  0.00     0.210 C 
ENDBRANCH  13  18
ENDBRANCH  11  12
ENDBRANCH   7  10
ENDBRANCH   5   6
ENDBRANCH   2   5
BRANCH   1  20
HETATM   20  N   UNL     1      43.055 -12.336   6.201  1.00  0.00    -0.184 NA
HETATM   21  C   UNL     1      42.826 -13.607   6.270  1.00  0.00     0.153 C 
BRANCH  21  22
HETATM   22  C   UNL     1      41.959 -14.245   5.297  1.00  0.00     0.018 A 
HETATM   23  C   UNL     1      40.626 -13.907   5.097  1.00  0.00     0.018 A 
HETATM   24  C   UNL     1      39.768 -12.886   5.755  1.00  0.00     0.069 C 
HETATM   25  N   UNL     1      40.133 -14.716   4.103  1.00  0.00    -0.358 N 
HETATM   26  H   UNL     1      39.188 -14.692   3.746  1.00  0.00     0.166 HD
HETATM   27  C   UNL     1      41.104 -15.574   3.649  1.00  0.00     0.043 A 
HETATM   28  C   UNL     1      42.263 -15.306   4.377  1.00  0.00     0.004 A 
HETATM   29  C   UNL     1      41.037 -16.559   2.654  1.00  0.00     0.030 A 
HETATM   30  C   UNL     1      43.416 -16.069   4.090  1.00  0.00     0.014 A 
HETATM   31  C   UNL     1      43.369 -17.058   3.100  1.00  0.00     0.001 A 
HETATM   32  C   UNL     1      42.195 -17.297   2.393  1.00  0.00     0.002 A 
ENDBRANCH  21  22
ENDBRANCH   1  20
TORSDOF 7
ENDMDL
MODEL 2
REMARK VINA RESULT:      -8.7      2.778     10.337
REMARK  7 active torsions:
REMARK  status: ('A' for Active; 'I' for Inactive)
REMARK    1  A    between atoms: C_7  and  C_8 
REMARK    2  A    between atoms: N_9  and  N_10 
REMARK       I    between atoms: N_10  and  C_11 
REMARK    3  A    between atoms: C_11  and  C_12 
REMARK    4  A    between atoms: C_12  and  N_13 
REMARK       I    between atoms: N_13  and  C_14 
REMARK    5  A    between atoms: C_14  and  C_15 
REMARK    6  A    between atoms: C_16  and  C_17 
REMARK    7  A    between atoms: C_18  and  O_19 
ROOT
HETATM    1  N   UNL     1      43.216 -12.399   5.295  1.00  0.00    -0.246 N 
HETATM    2  C   UNL     1      43.682 -11.997   4.051  1.00  0.00     0.255 C 
HETATM    3  O   UNL     1      44.647 -11.265   3.845  1.00  0.00    -0.270 OA
HETATM    4  H   UNL     1      42.354 -12.949   5.350  1.00  0.00     0.192 HD
ENDROOT
BRANCH   2   5
HETATM    5  C   UNL     1      42.862 -12.584   2.902  1.00  0.00     0.227 C 
BRANCH   5   6
HETATM    6  N   UNL     1      42.901 -14.038   2.895  1.00  0.00    -0.349 N 
HETATM    7  C   UNL     1      42.247 -14.765   1.937  1.00  0.00     0.241 C 
HETATM    8  O   UNL     1      41.623 -14.246   1.016  1.00  0.00    -0.269 OA
HETATM    9  H   UNL     1      43.515 -14.496   3.556  1.00  0.00     0.163 HD
BRANCH   7  10
HETATM   10  C   UNL     1      42.432 -16.225   2.077  1.00  0.00     0.075 C 
HETATM   11  C   UNL     1      43.330 -16.702   2.952  1.00  0.00     0.020 C 
BRANCH  11  12
HETATM   12  C   UNL     1      43.498 -18.145   3.158  1.00  0.00    -0.003 A 
HETATM   13  C   UNL     1      43.956 -18.685   4.375  1.00  0.00     0.078 A 
HETATM   14  C   UNL     1      44.103 -20.072   4.492  1.00  0.00     0.037 A 
HETATM   15  C   UNL     1      43.798 -20.911   3.416  1.00  0.00     0.003 A 
HETATM   16  C   UNL     1      43.346 -20.375   2.214  1.00  0.00     0.001 A 
HETATM   17  C   UNL     1      43.196 -18.996   2.085  1.00  0.00     0.014 A 
BRANCH  13  18
HETATM   18  O   UNL     1      44.235 -17.786   5.375  1.00  0.00    -0.355 OA
HETATM   19  C   UNL     1      43.416 -17.827   6.537  1.00  0.00     0.210 C 
ENDBRANCH  13  18
ENDBRANCH  11  12
ENDBRANCH   7  10
ENDBRANCH   5   6
ENDBRANCH   2   5
BRANCH   1  20
HETATM   20  N   UNL     1      43.820 -11.952   6.434  1.00  0.00    -0.184 NA
HETATM   21  C   UNL     1      43.340 -10.854   6.922  1.00  0.00     0.153 C 
BRANCH  21  22
HETATM   22  C   UNL     1      43.908 -10.285   8.131  1.00  0.00     0.018 A 
HETATM   23  C   UNL     1      45.272 -10.184   8.381  1.00  0.00     0.018 A 
HETATM   24  C   UNL     1      46.447 -10.586   7.564  1.00  0.00     0.069 C 
HETATM   25  N   UNL     1      45.429  -9.597   9.612  1.00  0.00    -0.358 N 
HETATM   26  H   UNL     1      46.315  -9.395  10.053  1.00  0.00     0.166 HD
HETATM   27  C   UNL     1      44.209  -9.314  10.175  1.00  0.00     0.043 A 
HETATM   28  C   UNL     1      43.232  -9.733   9.271  1.00  0.00     0.004 A 
HETATM   29  C   UNL     1      43.904  -8.721  11.408  1.00  0.00     0.030 A 
HETATM   30  C   UNL     1      41.878  -9.548   9.627  1.00  0.00     0.014 A 
HETATM   31  C   UNL     1      41.554  -8.958  10.855  1.00  0.00     0.001 A 
HETATM   32  C   UNL     1      42.555  -8.551  11.731  1.00  0.00     0.002 A 
ENDBRANCH  21  22
ENDBRANCH   1  20
TORSDOF 7
ENDMDL
MODEL 3
REMARK VINA RESULT:      -8.7      1.743      2.082
REMARK  7 active torsions:
REMARK  status: ('A' for Active; 'I' for Inactive)
REMARK    1  A    between atoms: C_7  and  C_8 
REMARK    2  A    between atoms: N_9  and  N_10 
REMARK       I    between atoms: N_10  and  C_11 
REMARK    3  A    between atoms: C_11  and  C_12 
REMARK    4  A    between atoms: C_12  and  N_13 
REMARK       I    between atoms: N_13  and  C_14 
REMARK    5  A    between atoms: C_14  and  C_15 
REMARK    6  A    between atoms: C_16  and  C_17 
REMARK    7  A    between atoms: C_18  and  O_19 
ROOT
HETATM    1  N   UNL     1      43.415 -11.519   6.445  1.00  0.00    -0.246 N 
HETATM    2  C   UNL     1      43.903 -10.856   7.563  1.00  0.00     0.255 C 
HETATM    3  O   UNL     1      44.623 -11.342   8.432  1.00  0.00    -0.270 OA
HETATM    4  H   UNL     1      42.759 -11.035   5.826  1.00  0.00     0.192 HD
ENDROOT
BRANCH   2   5
HETATM    5  C   UNL     1      43.460  -9.393   7.613  1.00  0.00     0.227 C 
BRANCH   5   6
HETATM    6  N   UNL     1      43.047  -8.997   8.950  1.00  0.00    -0.349 N 
HETATM    7  C   UNL     1      43.458  -7.814   9.503  1.00  0.00     0.241 C 
HETATM    8  O   UNL     1      44.164  -7.008   8.905  1.00  0.00    -0.269 OA
HETATM    9  H   UNL     1      42.358  -9.571   9.419  1.00  0.00     0.163 HD
BRANCH   7  10
HETATM   10  C   UNL     1      42.906  -7.573  10.854  1.00  0.00     0.075 C 
HETATM   11  C   UNL     1      43.185  -8.427  11.850  1.00  0.00     0.020 C 
BRANCH  11  12
HETATM   12  C   UNL     1      42.702  -8.187  13.214  1.00  0.00    -0.003 A 
HETATM   13  C   UNL     1      41.711  -8.987  13.815  1.00  0.00     0.078 A 
HETATM   14  C   UNL     1      41.293  -8.688  15.118  1.00  0.00     0.037 A 
HETATM   15  C   UNL     1      41.850  -7.612  15.813  1.00  0.00     0.003 A 
HETATM   16  C   UNL     1      42.829  -6.823  15.217  1.00  0.00     0.001 A 
HETATM   17  C   UNL     1      43.254  -7.108  13.922  1.00  0.00     0.014 A 
BRANCH  13  18
HETATM   18  O   UNL     1      41.217 -10.019  13.056  1.00  0.00    -0.355 OA
HETATM   19  C   UNL     1      39.871  -9.913  12.607  1.00  0.00     0.210 C 
ENDBRANCH  13  18
ENDBRANCH  11  12
ENDBRANCH   7  10
ENDBRANCH   5   6
ENDBRANCH   2   5
BRANCH   1  20
HETATM   20  N   UNL     1      43.697 -12.840   6.251  1.00  0.00    -0.184 NA
HETATM   21  C   UNL     1      42.763 -13.528   5.678  1.00  0.00     0.153 C 
BRANCH  21  22
HETATM   22  C   UNL     1      42.953 -14.944   5.424  1.00  0.00     0.018 A 
HETATM   23  C   UNL     1      43.044 -15.911   6.419  1.00  0.00     0.018 A 
HETATM   24  C   UNL     1      42.977 -15.799   7.900  1.00  0.00     0.069 C 
HETATM   25  N   UNL     1      43.219 -17.127   5.806  1.00  0.00    -0.358 N 
HETATM   26  H   UNL     1      43.314 -18.013   6.283  1.00  0.00     0.166 HD
HETATM   27  C   UNL     1      43.248 -16.984   4.440  1.00  0.00     0.043 A 
HETATM   28  C   UNL     1      43.084 -15.625   4.166  1.00  0.00     0.004 A 
HETATM   29  C   UNL     1      43.406 -17.951   3.439  1.00  0.00     0.030 A 
HETATM   30  C   UNL     1      43.079 -15.218   2.814  1.00  0.00     0.014 A 
HETATM   31  C   UNL     1      43.236 -16.170   1.799  1.00  0.00     0.001 A 
HETATM   32  C   UNL     1      43.396 -17.517   2.110  1.00  0.00     0.002 A 
ENDBRANCH  21  22
ENDBRANCH   1  20
TORSDOF 7
ENDMDL
MODEL 4
REMARK VINA RESULT:      -8.5      4.037      9.933
REMARK  7 active torsions:
REMARK  status: ('A' for Active; 'I' for Inactive)
REMARK    1  A    between atoms: C_7  and  C_8 
REMARK    2  A    between atoms: N_9  and  N_10 
REMARK       I    between atoms: N_10  and  C_11 
REMARK    3  A    between atoms: C_11  and  C_12 
REMARK    4  A    between atoms: C_12  and  N_13 
REMARK       I    between atoms: N_13  and  C_14 
REMARK    5  A    between atoms: C_14  and  C_15 
REMARK    6  A    between atoms: C_16  and  C_17 
REMARK    7  A    between atoms: C_18  and  O_19 
ROOT
HETATM    1  N   UNL     1      42.406 -12.190   3.082  1.00  0.00    -0.246 N 
HETATM    2  C   UNL     1      41.763 -11.788   1.920  1.00  0.00     0.255 C 
HETATM    3  O   UNL     1      41.392 -10.646   1.659  1.00  0.00    -0.270 OA
HETATM    4  H   UNL     1      42.601 -13.185   3.225  1.00  0.00     0.192 HD
ENDROOT
BRANCH   2   5
HETATM    5  C   UNL     1      41.561 -12.941   0.935  1.00  0.00     0.227 C 
BRANCH   5   6
HETATM    6  N   UNL     1      41.834 -14.231   1.547  1.00  0.00    -0.349 N 
HETATM    7  C   UNL     1      40.922 -15.251   1.499  1.00  0.00     0.241 C 
HETATM    8  O   UNL     1      39.845 -15.156   0.917  1.00  0.00    -0.269 OA
HETATM    9  H   UNL     1      42.762 -14.391   1.916  1.00  0.00     0.163 HD
BRANCH   7  10
HETATM   10  C   UNL     1      41.394 -16.495   2.146  1.00  0.00     0.075 C 
HETATM   11  C   UNL     1      42.705 -16.776   2.171  1.00  0.00     0.020 C 
BRANCH  11  12
HETATM   12  C   UNL     1      43.212 -17.971   2.854  1.00  0.00    -0.003 A 
HETATM   13  C   UNL     1      43.804 -17.916   4.131  1.00  0.00     0.078 A 
HETATM   14  C   UNL     1      44.276 -19.098   4.713  1.00  0.00     0.037 A 
HETATM   15  C   UNL     1      44.161 -20.317   4.040  1.00  0.00     0.003 A 
HETATM   16  C   UNL     1      43.575 -20.369   2.779  1.00  0.00     0.001 A 
HETATM   17  C   UNL     1      43.102 -19.200   2.187  1.00  0.00     0.014 A 
BRANCH  13  18
HETATM   18  O   UNL     1      43.879 -16.676   4.715  1.00  0.00    -0.355 OA
HETATM   19  C   UNL     1      44.430 -16.603   6.024  1.00  0.00     0.210 C 
ENDBRANCH  13  18
ENDBRANCH  11  12
ENDBRANCH   7  10
ENDBRANCH   5   6
ENDBRANCH   2   5
BRANCH   1  20
HETATM   20  N   UNL     1      42.651 -11.291   4.080  1.00  0.00    -0.184 NA
HETATM   21  C   UNL     1      42.419 -11.717   5.279  1.00  0.00     0.153 C 
BRANCH  21  22
HETATM   22  C   UNL     1      42.642 -10.845   6.417  1.00  0.00     0.018 A 
HETATM   23  C   UNL     1      41.640 -10.121   7.055  1.00  0.00     0.018 A 
HETATM   24  C   UNL     1      40.180 -10.033   6.791  1.00  0.00     0.069 C 
HETATM   25  N   UNL     1      42.221  -9.417   8.080  1.00  0.00    -0.358 N 
HETATM   26  H   UNL     1      41.732  -8.804   8.717  1.00  0.00     0.166 HD
HETATM   27  C   UNL     1      43.573  -9.657   8.130  1.00  0.00     0.043 A 
HETATM   28  C   UNL     1      43.870 -10.549   7.100  1.00  0.00     0.004 A 
HETATM   29  C   UNL     1      44.542  -9.152   9.007  1.00  0.00     0.030 A 
HETATM   30  C   UNL     1      45.214 -10.954   6.943  1.00  0.00     0.014 A 
HETATM   31  C   UNL     1      46.197 -10.460   7.809  1.00  0.00     0.001 A 
HETATM   32  C   UNL     1      45.863  -9.572   8.826  1.00  0.00     0.002 A 
ENDBRANCH  21  22
ENDBRANCH   1  20
TORSDOF 7
ENDMDL
MODEL 5
REMARK VINA RESULT:      -8.4      2.074      2.851
REMARK  7 active torsions:
REMARK  status: ('A' for Active; 'I' for Inactive)
REMARK    1  A    between atoms: C_7  and  C_8 
REMARK    2  A    between atoms: N_9  and  N_10 
REMARK       I    between atoms: N_10  and  C_11 
REMARK    3  A    between atoms: C_11  and  C_12 
REMARK    4  A    between atoms: C_12  and  N_13 
REMARK       I    between atoms: N_13  and  C_14 
REMARK    5  A    between atoms: C_14  and  C_15 
REMARK    6  A    between atoms: C_16  and  C_17 
REMARK    7  A    between atoms: C_18  and  O_19 
ROOT
HETATM    1  N   UNL     1      42.924 -13.026   5.678  1.00  0.00    -0.246 N 
HETATM    2  C   UNL     1      43.553 -12.294   6.676  1.00  0.00     0.255 C 
HETATM    3  O   UNL     1      44.590 -12.609   7.255  1.00  0.00    -0.270 OA
HETATM    4  H   UNL     1      42.020 -12.704   5.320  1.00  0.00     0.192 HD
ENDROOT
BRANCH   2   5
HETATM    5  C   UNL     1      42.819 -10.991   6.996  1.00  0.00     0.227 C 
BRANCH   5   6
HETATM    6  N   UNL     1      42.895 -10.660   8.410  1.00  0.00    -0.349 N 
HETATM    7  C   UNL     1      43.419  -9.470   8.837  1.00  0.00     0.241 C 
HETATM    8  O   UNL     1      43.824  -8.604   8.067  1.00  0.00    -0.269 OA
HETATM    9  H   UNL     1      42.448 -11.288   9.065  1.00  0.00     0.163 HD
BRANCH   7  10
HETATM   10  C   UNL     1      43.378  -9.301  10.306  1.00  0.00     0.075 C 
HETATM   11  C   UNL     1      42.495  -8.453  10.855  1.00  0.00     0.020 C 
BRANCH  11  12
HETATM   12  C   UNL     1      42.388  -8.305  12.310  1.00  0.00    -0.003 A 
HETATM   13  C   UNL     1      41.596  -9.161  13.100  1.00  0.00     0.078 A 
HETATM   14  C   UNL     1      41.535  -8.948  14.482  1.00  0.00     0.037 A 
HETATM   15  C   UNL     1      42.250  -7.903  15.073  1.00  0.00     0.003 A 
HETATM   16  C   UNL     1      43.032  -7.058  14.290  1.00  0.00     0.001 A 
HETATM   17  C   UNL     1      43.101  -7.258  12.913  1.00  0.00     0.014 A 
BRANCH  13  18
HETATM   18  O   UNL     1      40.926 -10.157  12.434  1.00  0.00    -0.355 OA
HETATM   19  C   UNL     1      39.589 -10.427  12.839  1.00  0.00     0.210 C 
ENDBRANCH  13  18
ENDBRANCH  11  12
ENDBRANCH   7  10
ENDBRANCH   5   6
ENDBRANCH   2   5
BRANCH   1  20
HETATM   20  N   UNL     1      43.433 -14.227   5.280  1.00  0.00    -0.184 NA
HETATM   21  C   UNL     1      42.644 -14.950   4.552  1.00  0.00     0.153 C 
BRANCH  21  22
HETATM   22  C   UNL     1      43.081 -16.249   4.075  1.00  0.00     0.018 A 
HETATM   23  C   UNL     1      43.370 -16.536   2.745  1.00  0.00     0.018 A 
HETATM   24  C   UNL     1      43.326 -15.681   1.529  1.00  0.00     0.069 C 
HETATM   25  N   UNL     1      43.750 -17.853   2.674  1.00  0.00    -0.358 N 
HETATM   26  H   UNL     1      44.020 -18.339   1.830  1.00  0.00     0.166 HD
HETATM   27  C   UNL     1      43.715 -18.437   3.917  1.00  0.00     0.043 A 
HETATM   28  C   UNL     1      43.299 -17.457   4.820  1.00  0.00     0.004 A 
HETATM   29  C   UNL     1      44.020 -19.749   4.302  1.00  0.00     0.030 A 
HETATM   30  C   UNL     1      43.183 -17.817   6.180  1.00  0.00     0.014 A 
HETATM   31  C   UNL     1      43.484 -19.124   6.584  1.00  0.00     0.001 A 
HETATM   32  C   UNL     1      43.896 -20.075   5.656  1.00  0.00     0.002 A 
ENDBRANCH  21  22
ENDBRANCH   1  20
TORSDOF 7
ENDMDL
MODEL 6
REMARK VINA RESULT:      -8.0      2.783      4.818
REMARK  7 active torsions:
REMARK  status: ('A' for Active; 'I' for Inactive)
REMARK    1  A    between atoms: C_7  and  C_8 
REMARK    2  A    between atoms: N_9  and  N_10 
REMARK       I    between atoms: N_10  and  C_11 
REMARK    3  A    between atoms: C_11  and  C_12 
REMARK    4  A    between atoms: C_12  and  N_13 
REMARK       I    between atoms: N_13  and  C_14 
REMARK    5  A    between atoms: C_14  and  C_15 
REMARK    6  A    between atoms: C_16  and  C_17 
REMARK    7  A    between atoms: C_18  and  O_19 
ROOT
HETATM    1  N   UNL     1      42.221 -13.897   3.876  1.00  0.00    -0.246 N 
HETATM    2  C   UNL     1      41.029 -13.301   3.491  1.00  0.00     0.255 C 
HETATM    3  O   UNL     1      39.953 -13.874   3.337  1.00  0.00    -0.270 OA
HETATM    4  H   UNL     1      43.075 -13.333   3.898  1.00  0.00     0.192 HD
ENDROOT
BRANCH   2   5
HETATM    5  C   UNL     1      41.170 -11.793   3.282  1.00  0.00     0.227 C 
BRANCH   5   6
HETATM    6  N   UNL     1      41.385 -11.089   4.536  1.00  0.00    -0.349 N 
HETATM    7  C   UNL     1      42.642 -10.737   4.951  1.00  0.00     0.241 C 
HETATM    8  O   UNL     1      43.649 -10.960   4.287  1.00  0.00    -0.269 OA
HETATM    9  H   UNL     1      40.570 -10.769   5.043  1.00  0.00     0.163 HD
BRANCH   7  10
HETATM   10  C   UNL     1      42.654  -9.999   6.233  1.00  0.00     0.075 C 
HETATM   11  C   UNL     1      43.198 -10.563   7.321  1.00  0.00     0.020 C 
BRANCH  11  12
HETATM   12  C   UNL     1      43.279  -9.837   8.593  1.00  0.00    -0.003 A 
HETATM   13  C   UNL     1      44.482  -9.711   9.314  1.00  0.00     0.078 A 
HETATM   14  C   UNL     1      44.477  -9.013  10.528  1.00  0.00     0.037 A 
HETATM   15  C   UNL     1      43.296  -8.448  11.018  1.00  0.00     0.003 A 
HETATM   16  C   UNL     1      42.109  -8.574  10.303  1.00  0.00     0.001 A 
HETATM   17  C   UNL     1      42.099  -9.267   9.095  1.00  0.00     0.014 A 
BRANCH  13  18
HETATM   18  O   UNL     1      45.590 -10.301   8.760  1.00  0.00    -0.355 OA
HETATM   19  C   UNL     1      46.459  -9.472   7.998  1.00  0.00     0.210 C 
ENDBRANCH  13  18
ENDBRANCH  11  12
ENDBRANCH   7  10
ENDBRANCH   5   6
ENDBRANCH   2   5
BRANCH   1  20
HETATM   20  N   UNL     1      42.281 -15.244   4.087  1.00  0.00    -0.184 NA
HETATM   21  C   UNL     1      43.399 -15.681   4.568  1.00  0.00     0.153 C 
BRANCH  21  22
HETATM   22  C   UNL     1      43.576 -17.098   4.829  1.00  0.00     0.018 A 
HETATM   23  C   UNL     1      43.770 -17.641   6.095  1.00  0.00     0.018 A 
HETATM   24  C   UNL     1      43.845 -16.997   7.433  1.00  0.00     0.069 C 
HETATM   25  N   UNL     1      43.895 -19.000   5.952  1.00  0.00    -0.358 N 
HETATM   26  H   UNL     1      44.043 -19.655   6.707  1.00  0.00     0.166 HD
HETATM   27  C   UNL     1      43.791 -19.362   4.631  1.00  0.00     0.043 A 
HETATM   28  C   UNL     1      43.590 -18.191   3.899  1.00  0.00     0.004 A 
HETATM   29  C   UNL     1      43.859 -20.630   4.039  1.00  0.00     0.030 A 
HETATM   30  C   UNL     1      43.452 -18.302   2.498  1.00  0.00     0.014 A 
HETATM   31  C   UNL     1      43.518 -19.561   1.888  1.00  0.00     0.001 A 
HETATM   32  C   UNL     1      43.719 -20.708   2.651  1.00  0.00     0.002 A 
ENDBRANCH  21  22
ENDBRANCH   1  20
TORSDOF 7
ENDMDL
MODEL 7
REMARK VINA RESULT:      -8.0      7.101     10.996
REMARK  7 active torsions:
REMARK  status: ('A' for Active; 'I' for Inactive)
REMARK    1  A    between atoms: C_7  and  C_8 
REMARK    2  A    between atoms: N_9  and  N_10 
REMARK       I    between atoms: N_10  and  C_11 
REMARK    3  A    between atoms: C_11  and  C_12 
REMARK    4  A    between atoms: C_12  and  N_13 
REMARK       I    between atoms: N_13  and  C_14 
REMARK    5  A    between atoms: C_14  and  C_15 
REMARK    6  A    between atoms: C_16  and  C_17 
REMARK    7  A    between atoms: C_18  and  O_19 
ROOT
HETATM    1  N   UNL     1      41.213 -14.373   0.494  1.00  0.00    -0.246 N 
HETATM    2  C   UNL     1      39.996 -14.805  -0.017  1.00  0.00     0.255 C 
HETATM    3  O   UNL     1      39.490 -15.910   0.165  1.00  0.00    -0.270 OA
HETATM    4  H   UNL     1      41.573 -13.457   0.212  1.00  0.00     0.192 HD
ENDROOT
BRANCH   2   5
HETATM    5  C   UNL     1      39.298 -13.731  -0.851  1.00  0.00     0.227 C 
BRANCH   5   6
HETATM    6  N   UNL     1      40.170 -12.599  -1.119  1.00  0.00    -0.349 N 
HETATM    7  C   UNL     1      40.744 -12.416  -2.349  1.00  0.00     0.241 C 
HETATM    8  O   UNL     1      40.536 -13.164  -3.299  1.00  0.00    -0.269 OA
HETATM    9  H   UNL     1      40.255 -11.890  -0.403  1.00  0.00     0.163 HD
BRANCH   7  10
HETATM   10  C   UNL     1      41.569 -11.192  -2.437  1.00  0.00     0.075 C 
HETATM   11  C   UNL     1      40.977  -9.999  -2.592  1.00  0.00     0.020 C 
BRANCH  11  12
HETATM   12  C   UNL     1      41.762  -8.760  -2.625  1.00  0.00    -0.003 A 
HETATM   13  C   UNL     1      41.763  -7.897  -3.739  1.00  0.00     0.078 A 
HETATM   14  C   UNL     1      42.547  -6.739  -3.701  1.00  0.00     0.037 A 
HETATM   15  C   UNL     1      43.319  -6.440  -2.575  1.00  0.00     0.003 A 
HETATM   16  C   UNL     1      43.317  -7.294  -1.476  1.00  0.00     0.001 A 
HETATM   17  C   UNL     1      42.542  -8.451  -1.501  1.00  0.00     0.014 A 
BRANCH  13  18
HETATM   18  O   UNL     1      40.979  -8.273  -4.801  1.00  0.00    -0.355 OA
HETATM   19  C   UNL     1      40.380  -7.236  -5.569  1.00  0.00     0.210 C 
ENDBRANCH  13  18
ENDBRANCH  11  12
ENDBRANCH   7  10
ENDBRANCH   5   6
ENDBRANCH   2   5
BRANCH   1  20
HETATM   20  N   UNL     1      41.981 -15.213   1.247  1.00  0.00    -0.184 NA
HETATM   21  C   UNL     1      41.852 -15.084   2.527  1.00  0.00     0.153 C 
BRANCH  21  22
HETATM   22  C   UNL     1      42.623 -15.923   3.425  1.00  0.00     0.018 A 
HETATM   23  C   UNL     1      43.119 -15.503   4.654  1.00  0.00     0.018 A 
HETATM   24  C   UNL     1      43.017 -14.196   5.354  1.00  0.00     0.069 C 
HETATM   25  N   UNL     1      43.790 -16.560   5.218  1.00  0.00    -0.358 N 
HETATM   26  H   UNL     1      44.254 -16.546   6.115  1.00  0.00     0.166 HD
HETATM   27  C   UNL     1      43.750 -17.657   4.392  1.00  0.00     0.043 A 
HETATM   28  C   UNL     1      43.025 -17.292   3.258  1.00  0.00     0.004 A 
HETATM   29  C   UNL     1      44.299 -18.935   4.569  1.00  0.00     0.030 A 
HETATM   30  C   UNL     1      42.843 -18.262   2.248  1.00  0.00     0.014 A 
HETATM   31  C   UNL     1      43.384 -19.543   2.406  1.00  0.00     0.001 A 
HETATM   32  C   UNL     1      44.101 -19.873   3.552  1.00  0.00     0.002 A 
ENDBRANCH  21  22
ENDBRANCH   1  20
TORSDOF 7
ENDMDL
MODEL 8
REMARK VINA RESULT:      -8.0      1.833      2.215
REMARK  7 active torsions:
REMARK  status: ('A' for Active; 'I' for Inactive)
REMARK    1  A    between atoms: C_7  and  C_8 
REMARK    2  A    between atoms: N_9  and  N_10 
REMARK       I    between atoms: N_10  and  C_11 
REMARK    3  A    between atoms: C_11  and  C_12 
REMARK    4  A    between atoms: C_12  and  N_13 
REMARK       I    between atoms: N_13  and  C_14 
REMARK    5  A    between atoms: C_14  and  C_15 
REMARK    6  A    between atoms: C_16  and  C_17 
REMARK    7  A    between atoms: C_18  and  O_19 
ROOT
HETATM    1  N   UNL     1      43.454 -13.373   7.206  1.00  0.00    -0.246 N 
HETATM    2  C   UNL     1      43.587 -12.012   6.966  1.00  0.00     0.255 C 
HETATM    3  O   UNL     1      43.112 -11.399   6.013  1.00  0.00    -0.270 OA
HETATM    4  H   UNL     1      43.958 -13.790   7.993  1.00  0.00     0.192 HD
ENDROOT
BRANCH   2   5
HETATM    5  C   UNL     1      44.400 -11.303   8.050  1.00  0.00     0.227 C 
BRANCH   5   6
HETATM    6  N   UNL     1      43.549 -10.745   9.088  1.00  0.00    -0.349 N 
HETATM    7  C   UNL     1      44.059 -10.363  10.300  1.00  0.00     0.241 C 
HETATM    8  O   UNL     1      45.253 -10.435  10.573  1.00  0.00    -0.269 OA
HETATM    9  H   UNL     1      42.586 -10.545   8.852  1.00  0.00     0.163 HD
BRANCH   7  10
HETATM   10  C   UNL     1      43.046  -9.788  11.211  1.00  0.00     0.075 C 
HETATM   11  C   UNL     1      43.417  -8.900  12.145  1.00  0.00     0.020 C 
BRANCH  11  12
HETATM   12  C   UNL     1      42.430  -8.267  13.026  1.00  0.00    -0.003 A 
HETATM   13  C   UNL     1      41.837  -7.025  12.726  1.00  0.00     0.078 A 
HETATM   14  C   UNL     1      40.911  -6.479  13.623  1.00  0.00     0.037 A 
HETATM   15  C   UNL     1      40.579  -7.155  14.801  1.00  0.00     0.003 A 
HETATM   16  C   UNL     1      41.167  -8.381  15.095  1.00  0.00     0.001 A 
HETATM   17  C   UNL     1      42.090  -8.936  14.211  1.00  0.00     0.014 A 
BRANCH  13  18
HETATM   18  O   UNL     1      42.227  -6.431  11.552  1.00  0.00    -0.355 OA
HETATM   19  C   UNL     1      41.710  -5.136  11.272  1.00  0.00     0.210 C 
ENDBRANCH  13  18
ENDBRANCH  11  12
ENDBRANCH   7  10
ENDBRANCH   5   6
ENDBRANCH   2   5
BRANCH   1  20
HETATM   20  N   UNL     1      42.774 -14.164   6.327  1.00  0.00    -0.184 NA
HETATM   21  C   UNL     1      43.434 -14.516   5.273  1.00  0.00     0.153 C 
BRANCH  21  22
HETATM   22  C   UNL     1      42.807 -15.357   4.268  1.00  0.00     0.018 A 
HETATM   23  C   UNL     1      41.684 -14.992   3.535  1.00  0.00     0.018 A 
HETATM   24  C   UNL     1      40.865 -13.752   3.554  1.00  0.00     0.069 C 
HETATM   25  N   UNL     1      41.382 -16.030   2.688  1.00  0.00    -0.358 N 
HETATM   26  H   UNL     1      40.614 -16.044   2.033  1.00  0.00     0.166 HD
HETATM   27  C   UNL     1      42.274 -17.063   2.847  1.00  0.00     0.043 A 
HETATM   28  C   UNL     1      43.182 -16.673   3.832  1.00  0.00     0.004 A 
HETATM   29  C   UNL     1      42.340 -18.301   2.195  1.00  0.00     0.030 A 
HETATM   30  C   UNL     1      44.210 -17.576   4.180  1.00  0.00     0.014 A 
HETATM   31  C   UNL     1      44.292 -18.819   3.539  1.00  0.00     0.001 A 
HETATM   32  C   UNL     1      43.368 -19.174   2.561  1.00  0.00     0.002 A 
ENDBRANCH  21  22
ENDBRANCH   1  20
TORSDOF 7
ENDMDL
MODEL 9
REMARK VINA RESULT:      -8.0      7.151     10.827
REMARK  7 active torsions:
REMARK  status: ('A' for Active; 'I' for Inactive)
REMARK    1  A    between atoms: C_7  and  C_8 
REMARK    2  A    between atoms: N_9  and  N_10 
REMARK       I    between atoms: N_10  and  C_11 
REMARK    3  A    between atoms: C_11  and  C_12 
REMARK    4  A    between atoms: C_12  and  N_13 
REMARK       I    between atoms: N_13  and  C_14 
REMARK    5  A    between atoms: C_14  and  C_15 
REMARK    6  A    between atoms: C_16  and  C_17 
REMARK    7  A    between atoms: C_18  and  O_19 
ROOT
HETATM    1  N   UNL     1      39.968 -15.039   0.323  1.00  0.00    -0.246 N 
HETATM    2  C   UNL     1      39.736 -13.675   0.214  1.00  0.00     0.255 C 
HETATM    3  O   UNL     1      40.027 -12.825   1.053  1.00  0.00    -0.270 OA
HETATM    4  H   UNL     1      39.613 -15.664  -0.405  1.00  0.00     0.192 HD
ENDROOT
BRANCH   2   5
HETATM    5  C   UNL     1      39.071 -13.299  -1.110  1.00  0.00     0.227 C 
BRANCH   5   6
HETATM    6  N   UNL     1      39.646 -12.093  -1.683  1.00  0.00    -0.349 N 
HETATM    7  C   UNL     1      40.463 -12.144  -2.781  1.00  0.00     0.241 C 
HETATM    8  O   UNL     1      40.733 -13.189  -3.363  1.00  0.00    -0.269 OA
HETATM    9  H   UNL     1      39.337 -11.203  -1.314  1.00  0.00     0.163 HD
BRANCH   7  10
HETATM   10  C   UNL     1      40.921 -10.813  -3.236  1.00  0.00     0.075 C 
HETATM   11  C   UNL     1      41.052  -9.815  -2.350  1.00  0.00     0.020 C 
BRANCH  11  12
HETATM   12  C   UNL     1      41.559  -8.499  -2.757  1.00  0.00    -0.003 A 
HETATM   13  C   UNL     1      41.898  -7.500  -1.825  1.00  0.00     0.078 A 
HETATM   14  C   UNL     1      42.364  -6.265  -2.291  1.00  0.00     0.037 A 
HETATM   15  C   UNL     1      42.491  -6.025  -3.662  1.00  0.00     0.003 A 
HETATM   16  C   UNL     1      42.155  -7.014  -4.581  1.00  0.00     0.001 A 
HETATM   17  C   UNL     1      41.690  -8.248  -4.131  1.00  0.00     0.014 A 
BRANCH  13  18
HETATM   18  O   UNL     1      41.737  -7.822  -0.500  1.00  0.00    -0.355 OA
HETATM   19  C   UNL     1      41.154  -6.837   0.345  1.00  0.00     0.210 C 
ENDBRANCH  13  18
ENDBRANCH  11  12
ENDBRANCH   7  10
ENDBRANCH   5   6
ENDBRANCH   2   5
BRANCH   1  20
HETATM   20  N   UNL     1      40.539 -15.553   1.451  1.00  0.00    -0.184 NA
HETATM   21  C   UNL     1      41.832 -15.557   1.466  1.00  0.00     0.153 C 
BRANCH  21  22
HETATM   22  C   UNL     1      42.546 -16.083   2.616  1.00  0.00     0.018 A 
HETATM   23  C   UNL     1      42.910 -15.326   3.723  1.00  0.00     0.018 A 
HETATM   24  C   UNL     1      42.698 -13.888   4.036  1.00  0.00     0.069 C 
HETATM   25  N   UNL     1      43.563 -16.155   4.601  1.00  0.00    -0.358 N 
HETATM   26  H   UNL     1      43.940 -15.877   5.496  1.00  0.00     0.166 HD
HETATM   27  C   UNL     1      43.638 -17.432   4.100  1.00  0.00     0.043 A 
HETATM   28  C   UNL     1      43.009 -17.422   2.854  1.00  0.00     0.004 A 
HETATM   29  C   UNL     1      44.211 -18.583   4.656  1.00  0.00     0.030 A 
HETATM   30  C   UNL     1      42.955 -18.633   2.130  1.00  0.00     0.014 A 
HETATM   31  C   UNL     1      43.523 -19.793   2.669  1.00  0.00     0.001 A 
HETATM   32  C   UNL     1      44.142 -19.766   3.915  1.00  0.00     0.002 A 
ENDBRANCH  21  22
ENDBRANCH   1  20
TORSDOF 7
ENDMDL
MODEL 10
REMARK VINA RESULT:      -7.8      2.255      9.597
REMARK  7 active torsions:
REMARK  status: ('A' for Active; 'I' for Inactive)
REMARK    1  A    between atoms: C_7  and  C_8 
REMARK    2  A    between atoms: N_9  and  N_10 
REMARK       I    between atoms: N_10  and  C_11 
REMARK    3  A    between atoms: C_11  and  C_12 
REMARK    4  A    between atoms: C_12  and  N_13 
REMARK       I    between atoms: N_13  and  C_14 
REMARK    5  A    between atoms: C_14  and  C_15 
REMARK    6  A    between atoms: C_16  and  C_17 
REMARK    7  A    between atoms: C_18  and  O_19 
ROOT
HETATM    1  N   UNL     1      44.338  -9.963   9.206  1.00  0.00    -0.246 N 
HETATM    2  C   UNL     1      45.302  -9.390   8.388  1.00  0.00     0.255 C 
HETATM    3  O   UNL     1      45.530  -8.187   8.277  1.00  0.00    -0.270 OA
HETATM    4  H   UNL     1      44.185 -10.974   9.160  1.00  0.00     0.192 HD
ENDROOT
BRANCH   2   5
HETATM    5  C   UNL     1      46.107 -10.433   7.612  1.00  0.00     0.227 C 
BRANCH   5   6
HETATM    6  N   UNL     1      45.364 -10.958   6.478  1.00  0.00    -0.349 N 
HETATM    7  C   UNL     1      44.469 -11.984   6.623  1.00  0.00     0.241 C 
HETATM    8  O   UNL     1      44.215 -12.498   7.708  1.00  0.00    -0.269 OA
HETATM    9  H   UNL     1      45.446 -10.470   5.595  1.00  0.00     0.163 HD
BRANCH   7  10
HETATM   10  C   UNL     1      43.789 -12.355   5.364  1.00  0.00     0.075 C 
HETATM   11  C   UNL     1      43.067 -13.484   5.304  1.00  0.00     0.020 C 
BRANCH  11  12
HETATM   12  C   UNL     1      42.333 -13.853   4.089  1.00  0.00    -0.003 A 
HETATM   13  C   UNL     1      40.929 -13.966   4.062  1.00  0.00     0.078 A 
HETATM   14  C   UNL     1      40.300 -14.334   2.866  1.00  0.00     0.037 A 
HETATM   15  C   UNL     1      41.052 -14.586   1.716  1.00  0.00     0.003 A 
HETATM   16  C   UNL     1      42.439 -14.474   1.746  1.00  0.00     0.001 A 
HETATM   17  C   UNL     1      43.078 -14.109   2.929  1.00  0.00     0.014 A 
BRANCH  13  18
HETATM   18  O   UNL     1      40.273 -13.705   5.239  1.00  0.00    -0.355 OA
HETATM   19  C   UNL     1      39.452 -12.544   5.285  1.00  0.00     0.210 C 
ENDBRANCH  13  18
ENDBRANCH  11  12
ENDBRANCH   7  10
ENDBRANCH   5   6
ENDBRANCH   2   5
BRANCH   1  20
HETATM   20  N   UNL     1      43.515  -9.176   9.956  1.00  0.00    -0.184 NA
HETATM   21  C   UNL     1      42.708  -9.810  10.743  1.00  0.00     0.153 C 
BRANCH  21  22
HETATM   22  C   UNL     1      41.784  -9.072  11.586  1.00  0.00     0.018 A 
HETATM   23  C   UNL     1      40.404  -9.065  11.414  1.00  0.00     0.018 A 
HETATM   24  C   UNL     1      39.542  -9.746  10.413  1.00  0.00     0.069 C 
HETATM   25  N   UNL     1      39.865  -8.266  12.391  1.00  0.00    -0.358 N 
HETATM   26  H   UNL     1      38.880  -8.077  12.512  1.00  0.00     0.166 HD
HETATM   27  C   UNL     1      40.850  -7.749  13.196  1.00  0.00     0.043 A 
HETATM   28  C   UNL     1      42.068  -8.235  12.718  1.00  0.00     0.004 A 
HETATM   29  C   UNL     1      40.750  -6.895  14.302  1.00  0.00     0.030 A 
HETATM   30  C   UNL     1      43.247  -7.840  13.388  1.00  0.00     0.014 A 
HETATM   31  C   UNL     1      43.167  -6.986  14.495  1.00  0.00     0.001 A 
HETATM   32  C   UNL     1      41.935  -6.521  14.943  1.00  0.00     0.002 A 
ENDBRANCH  21  22
ENDBRANCH   1  20
TORSDOF 7
ENDMDL
