MODEL 1
REMARK VINA RESULT:      -7.2      0.000      0.000
REMARK  3 active torsions:
REMARK  status: ('A' for Active; 'I' for Inactive)
REMARK       I    between atoms: C_2  and  N_3 
REMARK    1  A    between atoms: N_3  and  C_4 
REMARK    2  A    between atoms: C_7  and  N_8 
REMARK       I    between atoms: N_8  and  C_9 
REMARK    3  A    between atoms: C_9  and  C_10 
ROOT
HETATM    1  C   UNL     1      43.163 -16.124   4.587  1.00  0.00     0.034 A 
HETATM    2  C   UNL     1      42.802 -14.866   4.095  1.00  0.00     0.032 A 
HETATM    3  C   UNL     1      42.867 -13.728   4.910  1.00  0.00     0.032 A 
HETATM    4  C   UNL     1      43.295 -13.831   6.232  1.00  0.00     0.035 A 
HETATM    5  C   UNL     1      43.628 -15.093   6.732  1.00  0.00     0.032 A 
HETATM    6  C   UNL     1      43.565 -16.230   5.917  1.00  0.00     0.032 A 
ENDROOT
BRANCH   4   7
HETATM    7  N   UNL     1      43.444 -12.734   7.096  1.00  0.00    -0.322 N 
HETATM    8  C   UNL     1      44.502 -11.851   7.185  1.00  0.00     0.274 C 
HETATM    9  O   UNL     1      45.493 -11.802   6.466  1.00  0.00    -0.266 OA
HETATM   10  H   UNL     1      42.720 -12.586   7.796  1.00  0.00     0.169 HD
BRANCH   8  11
HETATM   11  C   UNL     1      44.360 -10.890   8.328  1.00  0.00     0.126 A 
HETATM   12  N   UNL     1      45.372 -10.898   9.245  1.00  0.00    -0.255 NA
HETATM   13  C   UNL     1      45.276 -10.015  10.261  1.00  0.00     0.119 A 
HETATM   14  C   UNL     1      44.227  -9.125  10.405  1.00  0.00     0.043 A 
HETATM   15  C   UNL     1      43.217  -9.150   9.450  1.00  0.00     0.037 A 
HETATM   16 CL   UNL     1      41.896  -8.056   9.584  1.00  0.00    -0.084 Cl
HETATM   17  C   UNL     1      43.267 -10.041   8.390  1.00  0.00     0.061 A 
ENDBRANCH   8  11
ENDBRANCH   4   7
BRANCH   1  18
HETATM   18  N   UNL     1      43.114 -17.207   3.687  1.00  0.00    -0.328 N 
HETATM   19  C   UNL     1      43.896 -18.349   3.700  1.00  0.00     0.218 C 
HETATM   20  C   UNL     1      43.591 -19.249   2.528  1.00  0.00     0.117 C 
HETATM   21  O   UNL     1      44.758 -18.649   4.518  1.00  0.00    -0.274 OA
HETATM   22  H   UNL     1      42.452 -17.120   2.926  1.00  0.00     0.169 HD
ENDBRANCH   1  18
TORSDOF 3
ENDMDL
MODEL 2
REMARK VINA RESULT:      -7.2      6.886      8.298
REMARK  3 active torsions:
REMARK  status: ('A' for Active; 'I' for Inactive)
REMARK       I    between atoms: C_2  and  N_3 
REMARK    1  A    between atoms: N_3  and  C_4 
REMARK    2  A    between atoms: C_7  and  N_8 
REMARK       I    between atoms: N_8  and  C_9 
REMARK    3  A    between atoms: C_9  and  C_10 
ROOT
HETATM    1  C   UNL     1      43.004 -17.264   3.255  1.00  0.00     0.034 A 
HETATM    2  C   UNL     1      41.686 -16.828   3.425  1.00  0.00     0.032 A 
HETATM    3  C   UNL     1      41.104 -15.926   2.525  1.00  0.00     0.032 A 
HETATM    4  C   UNL     1      41.833 -15.445   1.439  1.00  0.00     0.035 A 
HETATM    5  C   UNL     1      43.159 -15.856   1.286  1.00  0.00     0.032 A 
HETATM    6  C   UNL     1      43.741 -16.760   2.185  1.00  0.00     0.032 A 
ENDROOT
BRANCH   4   7
HETATM    7  N   UNL     1      41.307 -14.585   0.461  1.00  0.00    -0.322 N 
HETATM    8  C   UNL     1      41.105 -13.221   0.539  1.00  0.00     0.274 C 
HETATM    9  O   UNL     1      41.422 -12.472   1.456  1.00  0.00    -0.266 OA
HETATM   10  H   UNL     1      40.970 -15.005  -0.402  1.00  0.00     0.169 HD
BRANCH   8  11
HETATM   11  C   UNL     1      40.392 -12.671  -0.661  1.00  0.00     0.126 A 
HETATM   12  N   UNL     1      41.031 -11.664  -1.327  1.00  0.00    -0.255 NA
HETATM   13  C   UNL     1      40.419 -11.182  -2.429  1.00  0.00     0.119 A 
HETATM   14  C   UNL     1      39.207 -11.656  -2.900  1.00  0.00     0.043 A 
HETATM   15  C   UNL     1      38.590 -12.681  -2.193  1.00  0.00     0.037 A 
HETATM   16 CL   UNL     1      37.086 -13.307  -2.746  1.00  0.00    -0.084 Cl
HETATM   17  C   UNL     1      39.176 -13.206  -1.052  1.00  0.00     0.061 A 
ENDBRANCH   8  11
ENDBRANCH   4   7
BRANCH   1  18
HETATM   18  N   UNL     1      43.495 -18.209   4.178  1.00  0.00    -0.328 N 
HETATM   19  C   UNL     1      43.868 -19.518   3.926  1.00  0.00     0.218 C 
HETATM   20  C   UNL     1      44.280 -20.235   5.188  1.00  0.00     0.117 C 
HETATM   21  O   UNL     1      43.870 -20.093   2.844  1.00  0.00    -0.274 OA
HETATM   22  H   UNL     1      43.550 -17.899   5.140  1.00  0.00     0.169 HD
ENDBRANCH   1  18
TORSDOF 3
ENDMDL
MODEL 3
REMARK VINA RESULT:      -7.1      6.474      8.197
REMARK  3 active torsions:
REMARK  status: ('A' for Active; 'I' for Inactive)
REMARK       I    between atoms: C_2  and  N_3 
REMARK    1  A    between atoms: N_3  and  C_4 
REMARK    2  A    between atoms: C_7  and  N_8 
REMARK       I    between atoms: N_8  and  C_9 
REMARK    3  A    between atoms: C_9  and  C_10 
ROOT
HETATM    1  C   UNL     1      43.089 -17.305   3.505  1.00  0.00     0.034 A 
HETATM    2  C   UNL     1      41.952 -16.601   3.914  1.00  0.00     0.032 A 
HETATM    3  C   UNL     1      41.376 -15.624   3.092  1.00  0.00     0.032 A 
HETATM    4  C   UNL     1      41.930 -15.334   1.847  1.00  0.00     0.035 A 
HETATM    5  C   UNL     1      43.084 -16.016   1.451  1.00  0.00     0.032 A 
HETATM    6  C   UNL     1      43.658 -16.995   2.272  1.00  0.00     0.032 A 
ENDROOT
BRANCH   4   7
HETATM    7  N   UNL     1      41.382 -14.412   0.940  1.00  0.00    -0.322 N 
HETATM    8  C   UNL     1      40.292 -14.573   0.107  1.00  0.00     0.274 C 
HETATM    9  O   UNL     1      39.532 -15.533   0.053  1.00  0.00    -0.266 OA
HETATM   10  H   UNL     1      41.868 -13.526   0.820  1.00  0.00     0.169 HD
BRANCH   8  11
HETATM   11  C   UNL     1      40.095 -13.411  -0.821  1.00  0.00     0.126 A 
HETATM   12  N   UNL     1      39.033 -13.501  -1.674  1.00  0.00    -0.255 NA
HETATM   13  C   UNL     1      38.821 -12.448  -2.492  1.00  0.00     0.119 A 
HETATM   14  C   UNL     1      39.612 -11.313  -2.498  1.00  0.00     0.043 A 
HETATM   15  C   UNL     1      40.683 -11.262  -1.614  1.00  0.00     0.037 A 
HETATM   16 CL   UNL     1      41.690  -9.867  -1.581  1.00  0.00    -0.084 Cl
HETATM   17  C   UNL     1      40.945 -12.320  -0.757  1.00  0.00     0.061 A 
ENDBRANCH   8  11
ENDBRANCH   4   7
BRANCH   1  18
HETATM   18  N   UNL     1      43.575 -18.305   4.371  1.00  0.00    -0.328 N 
HETATM   19  C   UNL     1      43.900 -19.611   4.051  1.00  0.00     0.218 C 
HETATM   20  C   UNL     1      44.323 -20.397   5.268  1.00  0.00     0.117 C 
HETATM   21  O   UNL     1      43.856 -20.137   2.945  1.00  0.00    -0.274 OA
HETATM   22  H   UNL     1      43.665 -18.040   5.345  1.00  0.00     0.169 HD
ENDBRANCH   1  18
TORSDOF 3
ENDMDL
MODEL 4
REMARK VINA RESULT:      -7.0      5.960      9.032
REMARK  3 active torsions:
REMARK  status: ('A' for Active; 'I' for Inactive)
REMARK       I    between atoms: C_2  and  N_3 
REMARK    1  A    between atoms: N_3  and  C_4 
REMARK    2  A    between atoms: C_7  and  N_8 
REMARK       I    between atoms: N_8  and  C_9 
REMARK    3  A    between atoms: C_9  and  C_10 
ROOT
HETATM    1  C   UNL     1      42.136 -16.489   4.184  1.00  0.00     0.034 A 
HETATM    2  C   UNL     1      42.862 -16.494   2.989  1.00  0.00     0.032 A 
HETATM    3  C   UNL     1      42.265 -16.108   1.781  1.00  0.00     0.032 A 
HETATM    4  C   UNL     1      40.930 -15.712   1.751  1.00  0.00     0.035 A 
HETATM    5  C   UNL     1      40.196 -15.735   2.939  1.00  0.00     0.032 A 
HETATM    6  C   UNL     1      40.793 -16.118   4.147  1.00  0.00     0.032 A 
ENDROOT
BRANCH   4   7
HETATM    7  N   UNL     1      40.273 -15.257   0.595  1.00  0.00    -0.322 N 
HETATM    8  C   UNL     1      40.255 -13.981   0.066  1.00  0.00     0.274 C 
HETATM    9  O   UNL     1      40.880 -13.003   0.460  1.00  0.00    -0.266 OA
HETATM   10  H   UNL     1      39.680 -15.919   0.100  1.00  0.00     0.169 HD
BRANCH   8  11
HETATM   11  C   UNL     1      39.327 -13.852  -1.105  1.00  0.00     0.126 A 
HETATM   12  N   UNL     1      39.278 -14.923  -1.950  1.00  0.00    -0.255 NA
HETATM   13  C   UNL     1      38.421 -14.837  -2.990  1.00  0.00     0.119 A 
HETATM   14  C   UNL     1      37.611 -13.741  -3.225  1.00  0.00     0.043 A 
HETATM   15  C   UNL     1      37.692 -12.671  -2.340  1.00  0.00     0.037 A 
HETATM   16 CL   UNL     1      36.697 -11.289  -2.588  1.00  0.00    -0.084 Cl
HETATM   17  C   UNL     1      38.559 -12.709  -1.260  1.00  0.00     0.061 A 
ENDBRANCH   8  11
ENDBRANCH   4   7
BRANCH   1  18
HETATM   18  N   UNL     1      42.826 -16.844   5.360  1.00  0.00    -0.328 N 
HETATM   19  C   UNL     1      43.452 -15.997   6.258  1.00  0.00     0.218 C 
HETATM   20  C   UNL     1      44.142 -16.762   7.360  1.00  0.00     0.117 C 
HETATM   21  O   UNL     1      43.498 -14.774   6.215  1.00  0.00    -0.274 OA
HETATM   22  H   UNL     1      42.895 -17.836   5.548  1.00  0.00     0.169 HD
ENDBRANCH   1  18
TORSDOF 3
ENDMDL
MODEL 5
REMARK VINA RESULT:      -7.0      6.694      9.254
REMARK  3 active torsions:
REMARK  status: ('A' for Active; 'I' for Inactive)
REMARK       I    between atoms: C_2  and  N_3 
REMARK    1  A    between atoms: N_3  and  C_4 
REMARK    2  A    between atoms: C_7  and  N_8 
REMARK       I    between atoms: N_8  and  C_9 
REMARK    3  A    between atoms: C_9  and  C_10 
ROOT
HETATM    1  C   UNL     1      39.567 -12.268  -0.467  1.00  0.00     0.034 A 
HETATM    2  C   UNL     1      39.301 -13.585  -0.856  1.00  0.00     0.032 A 
HETATM    3  C   UNL     1      39.996 -14.659  -0.286  1.00  0.00     0.032 A 
HETATM    4  C   UNL     1      40.971 -14.432   0.683  1.00  0.00     0.035 A 
HETATM    5  C   UNL     1      41.259 -13.115   1.050  1.00  0.00     0.032 A 
HETATM    6  C   UNL     1      40.562 -12.041   0.482  1.00  0.00     0.032 A 
ENDROOT
BRANCH   4   7
HETATM    7  N   UNL     1      41.673 -15.454   1.344  1.00  0.00    -0.322 N 
HETATM    8  C   UNL     1      41.345 -16.093   2.524  1.00  0.00     0.274 C 
HETATM    9  O   UNL     1      40.326 -15.950   3.191  1.00  0.00    -0.266 OA
HETATM   10  H   UNL     1      42.570 -15.735   0.956  1.00  0.00     0.169 HD
BRANCH   8  11
HETATM   11  C   UNL     1      42.415 -17.037   2.988  1.00  0.00     0.126 A 
HETATM   12  N   UNL     1      43.052 -16.696   4.147  1.00  0.00    -0.255 NA
HETATM   13  C   UNL     1      43.993 -17.552   4.597  1.00  0.00     0.119 A 
HETATM   14  C   UNL     1      44.327 -18.729   3.952  1.00  0.00     0.043 A 
HETATM   15  C   UNL     1      43.655 -19.039   2.775  1.00  0.00     0.037 A 
HETATM   16 CL   UNL     1      44.031 -20.498   1.943  1.00  0.00    -0.084 Cl
HETATM   17  C   UNL     1      42.683 -18.190   2.270  1.00  0.00     0.061 A 
ENDBRANCH   8  11
ENDBRANCH   4   7
BRANCH   1  18
HETATM   18  N   UNL     1      38.788 -11.251  -1.055  1.00  0.00    -0.328 N 
HETATM   19  C   UNL     1      37.597 -10.725  -0.586  1.00  0.00     0.218 C 
HETATM   20  C   UNL     1      37.029  -9.696  -1.532  1.00  0.00     0.117 C 
HETATM   21  O   UNL     1      37.010 -11.023   0.448  1.00  0.00    -0.274 OA
HETATM   22  H   UNL     1      39.127 -10.890  -1.938  1.00  0.00     0.169 HD
ENDBRANCH   1  18
TORSDOF 3
ENDMDL
MODEL 6
REMARK VINA RESULT:      -6.9     17.222     18.859
REMARK  3 active torsions:
REMARK  status: ('A' for Active; 'I' for Inactive)
REMARK       I    between atoms: C_2  and  N_3 
REMARK    1  A    between atoms: N_3  and  C_4 
REMARK    2  A    between atoms: C_7  and  N_8 
REMARK       I    between atoms: N_8  and  C_9 
REMARK    3  A    between atoms: C_9  and  C_10 
ROOT
HETATM    1  C   UNL     1      50.727 -30.668   4.510  1.00  0.00     0.034 A 
HETATM    2  C   UNL     1      51.143 -30.151   3.280  1.00  0.00     0.032 A 
HETATM    3  C   UNL     1      50.224 -29.912   2.250  1.00  0.00     0.032 A 
HETATM    4  C   UNL     1      48.871 -30.188   2.436  1.00  0.00     0.035 A 
HETATM    5  C   UNL     1      48.458 -30.733   3.654  1.00  0.00     0.032 A 
HETATM    6  C   UNL     1      49.377 -30.969   4.685  1.00  0.00     0.032 A 
ENDROOT
BRANCH   4   7
HETATM    7  N   UNL     1      47.878 -29.925   1.477  1.00  0.00    -0.322 N 
HETATM    8  C   UNL     1      47.206 -28.741   1.243  1.00  0.00     0.274 C 
HETATM    9  O   UNL     1      47.402 -27.656   1.777  1.00  0.00    -0.266 OA
HETATM   10  H   UNL     1      47.554 -30.705   0.910  1.00  0.00     0.169 HD
BRANCH   8  11
HETATM   11  C   UNL     1      46.114 -28.887   0.225  1.00  0.00     0.126 A 
HETATM   12  N   UNL     1      45.030 -29.622   0.612  1.00  0.00    -0.255 NA
HETATM   13  C   UNL     1      44.023 -29.733  -0.281  1.00  0.00     0.119 A 
HETATM   14  C   UNL     1      44.043 -29.147  -1.533  1.00  0.00     0.043 A 
HETATM   15  C   UNL     1      45.166 -28.408  -1.888  1.00  0.00     0.037 A 
HETATM   16 CL   UNL     1      45.231 -27.653  -3.433  1.00  0.00    -0.084 Cl
HETATM   17  C   UNL     1      46.228 -28.267  -1.009  1.00  0.00     0.061 A 
ENDBRANCH   8  11
ENDBRANCH   4   7
BRANCH   1  18
HETATM   18  N   UNL     1      51.708 -30.832   5.508  1.00  0.00    -0.328 N 
HETATM   19  C   UNL     1      52.364 -31.998   5.861  1.00  0.00     0.218 C 
HETATM   20  C   UNL     1      53.299 -31.785   7.025  1.00  0.00     0.117 C 
HETATM   21  O   UNL     1      52.238 -33.104   5.348  1.00  0.00    -0.274 OA
HETATM   22  H   UNL     1      51.932 -30.005   6.048  1.00  0.00     0.169 HD
ENDBRANCH   1  18
TORSDOF 3
ENDMDL
MODEL 7
REMARK VINA RESULT:      -6.8      1.793      2.056
REMARK  3 active torsions:
REMARK  status: ('A' for Active; 'I' for Inactive)
REMARK       I    between atoms: C_2  and  N_3 
REMARK    1  A    between atoms: N_3  and  C_4 
REMARK    2  A    between atoms: C_7  and  N_8 
REMARK       I    between atoms: N_8  and  C_9 
REMARK    3  A    between atoms: C_9  and  C_10 
ROOT
HETATM    1  C   UNL     1      43.529 -17.198   4.805  1.00  0.00     0.034 A 
HETATM    2  C   UNL     1      42.484 -16.344   4.439  1.00  0.00     0.032 A 
HETATM    3  C   UNL     1      42.316 -15.102   5.065  1.00  0.00     0.032 A 
HETATM    4  C   UNL     1      43.192 -14.694   6.069  1.00  0.00     0.035 A 
HETATM    5  C   UNL     1      44.218 -15.560   6.456  1.00  0.00     0.032 A 
HETATM    6  C   UNL     1      44.388 -16.801   5.829  1.00  0.00     0.032 A 
ENDROOT
BRANCH   4   7
HETATM    7  N   UNL     1      43.128 -13.444   6.706  1.00  0.00    -0.322 N 
HETATM    8  C   UNL     1      43.441 -12.202   6.188  1.00  0.00     0.274 C 
HETATM    9  O   UNL     1      43.762 -11.935   5.036  1.00  0.00    -0.266 OA
HETATM   10  H   UNL     1      42.879 -13.431   7.693  1.00  0.00     0.169 HD
BRANCH   8  11
HETATM   11  C   UNL     1      43.380 -11.113   7.218  1.00  0.00     0.126 A 
HETATM   12  N   UNL     1      42.294 -10.288   7.153  1.00  0.00    -0.255 NA
HETATM   13  C   UNL     1      42.207  -9.324   8.094  1.00  0.00     0.119 A 
HETATM   14  C   UNL     1      43.144  -9.146   9.095  1.00  0.00     0.043 A 
HETATM   15  C   UNL     1      44.235 -10.007   9.126  1.00  0.00     0.037 A 
HETATM   16 CL   UNL     1      45.422  -9.829  10.359  1.00  0.00    -0.084 Cl
HETATM   17  C   UNL     1      44.372 -11.010   8.179  1.00  0.00     0.061 A 
ENDBRANCH   8  11
ENDBRANCH   4   7
BRANCH   1  18
HETATM   18  N   UNL     1      43.655 -18.407   4.092  1.00  0.00    -0.328 N 
HETATM   19  C   UNL     1      43.469 -18.608   2.735  1.00  0.00     0.218 C 
HETATM   20  C   UNL     1      43.629 -20.060   2.358  1.00  0.00     0.117 C 
HETATM   21  O   UNL     1      43.190 -17.764   1.892  1.00  0.00    -0.274 OA
HETATM   22  H   UNL     1      43.876 -19.225   4.646  1.00  0.00     0.169 HD
ENDBRANCH   1  18
TORSDOF 3
ENDMDL
MODEL 8
REMARK VINA RESULT:      -6.8      4.728      9.719
REMARK  3 active torsions:
REMARK  status: ('A' for Active; 'I' for Inactive)
REMARK       I    between atoms: C_2  and  N_3 
REMARK    1  A    between atoms: N_3  and  C_4 
REMARK    2  A    between atoms: C_7  and  N_8 
REMARK       I    between atoms: N_8  and  C_9 
REMARK    3  A    between atoms: C_9  and  C_10 
ROOT
HETATM    1  C   UNL     1      42.031  -8.423  14.175  1.00  0.00     0.034 A 
HETATM    2  C   UNL     1      43.053  -7.783  13.468  1.00  0.00     0.032 A 
HETATM    3  C   UNL     1      43.451  -8.238  12.204  1.00  0.00     0.032 A 
HETATM    4  C   UNL     1      42.830  -9.343  11.626  1.00  0.00     0.035 A 
HETATM    5  C   UNL     1      41.829 -10.002  12.345  1.00  0.00     0.032 A 
HETATM    6  C   UNL     1      41.430  -9.546  13.608  1.00  0.00     0.032 A 
ENDROOT
BRANCH   4   7
HETATM    7  N   UNL     1      43.128  -9.828  10.342  1.00  0.00    -0.322 N 
HETATM    8  C   UNL     1      44.280 -10.455   9.909  1.00  0.00     0.274 C 
HETATM    9  O   UNL     1      45.246 -10.787  10.586  1.00  0.00    -0.266 OA
HETATM   10  H   UNL     1      42.448  -9.654   9.605  1.00  0.00     0.169 HD
BRANCH   8  11
HETATM   11  C   UNL     1      44.284 -10.703   8.430  1.00  0.00     0.126 A 
HETATM   12  N   UNL     1      45.404 -11.298   7.926  1.00  0.00    -0.255 NA
HETATM   13  C   UNL     1      45.409 -11.560   6.602  1.00  0.00     0.119 A 
HETATM   14  C   UNL     1      44.353 -11.262   5.760  1.00  0.00     0.043 A 
HETATM   15  C   UNL     1      43.231 -10.656   6.313  1.00  0.00     0.037 A 
HETATM   16 CL   UNL     1      41.890 -10.275   5.304  1.00  0.00    -0.084 Cl
HETATM   17  C   UNL     1      43.179 -10.363   7.666  1.00  0.00     0.061 A 
ENDBRANCH   8  11
ENDBRANCH   4   7
BRANCH   1  18
HETATM   18  N   UNL     1      41.660  -7.872  15.418  1.00  0.00    -0.328 N 
HETATM   19  C   UNL     1      40.609  -7.010  15.678  1.00  0.00     0.218 C 
HETATM   20  C   UNL     1      40.578  -6.586  17.125  1.00  0.00     0.117 C 
HETATM   21  O   UNL     1      39.781  -6.588  14.879  1.00  0.00    -0.274 OA
HETATM   22  H   UNL     1      42.255  -8.112  16.202  1.00  0.00     0.169 HD
ENDBRANCH   1  18
TORSDOF 3
ENDMDL
MODEL 9
REMARK VINA RESULT:      -6.6      4.796      8.466
REMARK  3 active torsions:
REMARK  status: ('A' for Active; 'I' for Inactive)
REMARK       I    between atoms: C_2  and  N_3 
REMARK    1  A    between atoms: N_3  and  C_4 
REMARK    2  A    between atoms: C_7  and  N_8 
REMARK       I    between atoms: N_8  and  C_9 
REMARK    3  A    between atoms: C_9  and  C_10 
ROOT
HETATM    1  C   UNL     1      40.896 -11.776   5.955  1.00  0.00     0.034 A 
HETATM    2  C   UNL     1      42.256 -11.847   5.638  1.00  0.00     0.032 A 
HETATM    3  C   UNL     1      42.871 -13.078   5.373  1.00  0.00     0.032 A 
HETATM    4  C   UNL     1      42.134 -14.258   5.423  1.00  0.00     0.035 A 
HETATM    5  C   UNL     1      40.782 -14.191   5.769  1.00  0.00     0.032 A 
HETATM    6  C   UNL     1      40.166 -12.960   6.031  1.00  0.00     0.032 A 
ENDROOT
BRANCH   4   7
HETATM    7  N   UNL     1      42.659 -15.525   5.116  1.00  0.00    -0.322 N 
HETATM    8  C   UNL     1      43.083 -16.002   3.892  1.00  0.00     0.274 C 
HETATM    9  O   UNL     1      43.161 -15.382   2.837  1.00  0.00    -0.266 OA
HETATM   10  H   UNL     1      42.684 -16.216   5.862  1.00  0.00     0.169 HD
BRANCH   8  11
HETATM   11  C   UNL     1      43.452 -17.456   3.933  1.00  0.00     0.126 A 
HETATM   12  N   UNL     1      43.771 -17.958   5.162  1.00  0.00    -0.255 NA
HETATM   13  C   UNL     1      44.071 -19.272   5.221  1.00  0.00     0.119 A 
HETATM   14  C   UNL     1      44.066 -20.108   4.119  1.00  0.00     0.043 A 
HETATM   15  C   UNL     1      43.736 -19.557   2.886  1.00  0.00     0.037 A 
HETATM   16 CL   UNL     1      43.708 -20.561   1.489  1.00  0.00    -0.084 Cl
HETATM   17  C   UNL     1      43.424 -18.212   2.772  1.00  0.00     0.061 A 
ENDBRANCH   8  11
ENDBRANCH   4   7
BRANCH   1  18
HETATM   18  N   UNL     1      40.347 -10.494   6.159  1.00  0.00    -0.328 N 
HETATM   19  C   UNL     1      39.425  -9.836   5.363  1.00  0.00     0.218 C 
HETATM   20  C   UNL     1      39.132  -8.448   5.877  1.00  0.00     0.117 C 
HETATM   21  O   UNL     1      38.888 -10.259   4.346  1.00  0.00    -0.274 OA
HETATM   22  H   UNL     1      40.694  -9.988   6.964  1.00  0.00     0.169 HD
ENDBRANCH   1  18
TORSDOF 3
ENDMDL
MODEL 10
REMARK VINA RESULT:      -6.6      6.621      8.530
REMARK  3 active torsions:
REMARK  status: ('A' for Active; 'I' for Inactive)
REMARK       I    between atoms: C_2  and  N_3 
REMARK    1  A    between atoms: N_3  and  C_4 
REMARK    2  A    between atoms: C_7  and  N_8 
REMARK       I    between atoms: N_8  and  C_9 
REMARK    3  A    between atoms: C_9  and  C_10 
ROOT
HETATM    1  C   UNL     1      42.206 -16.426   2.838  1.00  0.00     0.034 A 
HETATM    2  C   UNL     1      42.755 -15.610   1.844  1.00  0.00     0.032 A 
HETATM    3  C   UNL     1      41.950 -14.736   1.102  1.00  0.00     0.032 A 
HETATM    4  C   UNL     1      40.580 -14.665   1.343  1.00  0.00     0.035 A 
HETATM    5  C   UNL     1      40.025 -15.501   2.316  1.00  0.00     0.032 A 
HETATM    6  C   UNL     1      40.830 -16.374   3.059  1.00  0.00     0.032 A 
ENDROOT
BRANCH   4   7
HETATM    7  N   UNL     1      39.712 -13.777   0.685  1.00  0.00    -0.322 N 
HETATM    8  C   UNL     1      39.423 -13.704  -0.663  1.00  0.00     0.274 C 
HETATM    9  O   UNL     1      39.807 -14.458  -1.549  1.00  0.00    -0.266 OA
HETATM   10  H   UNL     1      39.275 -13.047   1.244  1.00  0.00     0.169 HD
BRANCH   8  11
HETATM   11  C   UNL     1      38.554 -12.530  -1.006  1.00  0.00     0.126 A 
HETATM   12  N   UNL     1      38.339 -12.313  -2.337  1.00  0.00    -0.255 NA
HETATM   13  C   UNL     1      37.531 -11.282  -2.661  1.00  0.00     0.119 A 
HETATM   14  C   UNL     1      36.925 -10.462  -1.726  1.00  0.00     0.043 A 
HETATM   15  C   UNL     1      37.170 -10.717  -0.382  1.00  0.00     0.037 A 
HETATM   16 CL   UNL     1      36.431  -9.727   0.817  1.00  0.00    -0.084 Cl
HETATM   17  C   UNL     1      37.996 -11.761   0.002  1.00  0.00     0.061 A 
ENDBRANCH   8  11
ENDBRANCH   4   7
BRANCH   1  18
HETATM   18  N   UNL     1      43.093 -17.240   3.570  1.00  0.00    -0.328 N 
HETATM   19  C   UNL     1      43.571 -18.491   3.222  1.00  0.00     0.218 C 
HETATM   20  C   UNL     1      44.450 -19.074   4.300  1.00  0.00     0.117 C 
HETATM   21  O   UNL     1      43.336 -19.114   2.193  1.00  0.00    -0.274 OA
HETATM   22  H   UNL     1      43.386 -16.876   4.468  1.00  0.00     0.169 HD
ENDBRANCH   1  18
TORSDOF 3
ENDMDL
