MODEL 1
REMARK VINA RESULT:      -8.9      0.000      0.000
REMARK  9 active torsions:
REMARK  status: ('A' for Active; 'I' for Inactive)
REMARK    1  A    between atoms: C_6  and  C_7 
REMARK    2  A    between atoms: C_7  and  C_8 
REMARK       I    between atoms: C_8  and  N_9 
REMARK    3  A    between atoms: N_9  and  C_10 
REMARK    4  A    between atoms: C_10  and  C_11 
REMARK    5  A    between atoms: C_11  and  N_12 
REMARK    6  A    between atoms: C_17  and  C_18 
REMARK    7  A    between atoms: C_21  and  C_22 
REMARK    8  A    between atoms: C_29  and  C_30 
REMARK       I    between atoms: C_30  and  N_31 
REMARK    9  A    between atoms: N_31  and  C_32 
ROOT
HETATM    1  C   UNL     1      40.644 -14.917   6.425  1.00  0.00     0.071 C 
HETATM    2  C   UNL     1      40.552 -13.961   5.262  1.00  0.00     0.047 C 
HETATM    3  N   UNL     1      40.045 -12.693   5.608  1.00  0.00    -0.229 NA
HETATM    4  C   UNL     1      40.471 -11.682   4.915  1.00  0.00     0.170 C 
HETATM    5  N   UNL     1      41.372 -11.872   3.606  1.00  0.00    -0.319 N 
HETATM    6  C   UNL     1      42.440 -11.217   3.961  1.00  0.00     0.011 C 
HETATM    7  C   UNL     1      40.873 -13.133   3.034  1.00  0.00     0.165 C 
HETATM    8  S   UNL     1      40.551 -10.038   5.463  1.00  0.00    -0.086 SA
HETATM    9  C   UNL     1      42.058  -9.803   4.410  1.00  0.00     0.135 C 
HETATM   10  C   UNL     1      41.063 -14.220   4.028  1.00  0.00     0.062 C 
ENDROOT
BRANCH   6  11
HETATM   11  C   UNL     1      43.595 -11.937   4.612  1.00  0.00     0.156 C 
BRANCH  11  12
HETATM   12  C   UNL     1      43.833 -11.791   6.086  1.00  0.00     0.223 C 
HETATM   13  N   UNL     1      44.942 -11.019   6.381  1.00  0.00    -0.359 N 
HETATM   14  H   UNL     1      45.068 -10.199   5.774  1.00  0.00     0.162 HD
HETATM   15  O   UNL     1      43.186 -12.419   6.910  1.00  0.00    -0.273 OA
BRANCH  13  16
HETATM   16  C   UNL     1      45.415 -10.839   7.754  1.00  0.00     0.150 C 
BRANCH  16  17
HETATM   17  C   UNL     1      44.668  -9.716   8.505  1.00  0.00     0.253 C 
BRANCH  17  18
HETATM   18  N   UNL     1      43.428 -10.255   9.219  1.00  0.00    -0.077 N 
HETATM   19  H   UNL     1      43.246 -11.176   8.803  1.00  0.00     0.279 HD
HETATM   20  C   UNL     1      43.614 -10.465  10.698  1.00  0.00     0.269 C 
HETATM   21  C   UNL     1      42.217  -9.398   8.953  1.00  0.00     0.269 C 
ENDBRANCH  17  18
ENDBRANCH  16  17
ENDBRANCH  13  16
ENDBRANCH  11  12
ENDBRANCH   6  11
BRANCH   7  22
HETATM   22  C   UNL     1      40.840 -13.341   1.535  1.00  0.00    -0.030 A 
HETATM   23  C   UNL     1      41.144 -12.359   0.589  1.00  0.00     0.010 A 
HETATM   24  C   UNL     1      40.750 -12.527  -0.752  1.00  0.00     0.008 A 
HETATM   25  C   UNL     1      40.064 -13.678  -1.181  1.00  0.00    -0.055 A 
HETATM   26  C   UNL     1      39.871 -14.707  -0.263  1.00  0.00     0.008 A 
HETATM   27  C   UNL     1      40.234 -14.535   1.071  1.00  0.00     0.010 A 
BRANCH  25  28
HETATM   28  C   UNL     1      39.515 -13.764  -2.600  1.00  0.00     0.010 C 
HETATM   29  C   UNL     1      38.726 -15.055  -2.808  1.00  0.00     0.015 C 
HETATM   30  C   UNL     1      38.656 -12.550  -2.993  1.00  0.00     0.015 C 
ENDBRANCH  25  28
ENDBRANCH   7  22
BRANCH  10  31
HETATM   31  C   UNL     1      42.165 -15.207   3.857  1.00  0.00     0.256 C 
HETATM   32  N   UNL     1      41.809 -16.528   3.905  1.00  0.00    -0.323 N 
HETATM   33  H   UNL     1      40.854 -16.788   4.115  1.00  0.00     0.169 HD
HETATM   34  O   UNL     1      43.255 -14.757   3.498  1.00  0.00    -0.267 OA
BRANCH  32  35
HETATM   35  C   UNL     1      42.629 -17.627   3.552  1.00  0.00     0.035 A 
HETATM   36  C   UNL     1      42.569 -18.279   2.318  1.00  0.00     0.029 A 
HETATM   37  C   UNL     1      43.399 -19.374   2.055  1.00  0.00     0.002 A 
HETATM   38  C   UNL     1      44.289 -19.828   3.024  1.00  0.00     0.000 A 
HETATM   39  C   UNL     1      44.364 -19.179   4.253  1.00  0.00     0.002 A 
HETATM   40  C   UNL     1      43.546 -18.075   4.512  1.00  0.00     0.029 A 
ENDBRANCH  32  35
ENDBRANCH  10  31
TORSDOF 9
ENDMDL
MODEL 2
REMARK VINA RESULT:      -8.6      2.577      6.346
REMARK  9 active torsions:
REMARK  status: ('A' for Active; 'I' for Inactive)
REMARK    1  A    between atoms: C_6  and  C_7 
REMARK    2  A    between atoms: C_7  and  C_8 
REMARK       I    between atoms: C_8  and  N_9 
REMARK    3  A    between atoms: N_9  and  C_10 
REMARK    4  A    between atoms: C_10  and  C_11 
REMARK    5  A    between atoms: C_11  and  N_12 
REMARK    6  A    between atoms: C_17  and  C_18 
REMARK    7  A    between atoms: C_21  and  C_22 
REMARK    8  A    between atoms: C_29  and  C_30 
REMARK       I    between atoms: C_30  and  N_31 
REMARK    9  A    between atoms: N_31  and  C_32 
ROOT
HETATM    1  C   UNL     1      41.648 -10.118   1.035  1.00  0.00     0.071 C 
HETATM    2  C   UNL     1      42.014 -11.183   2.038  1.00  0.00     0.047 C 
HETATM    3  N   UNL     1      42.664 -10.685   3.184  1.00  0.00    -0.229 NA
HETATM    4  C   UNL     1      42.476 -11.332   4.293  1.00  0.00     0.170 C 
HETATM    5  N   UNL     1      41.712 -12.737   4.334  1.00  0.00    -0.319 N 
HETATM    6  C   UNL     1      40.721 -12.440   5.126  1.00  0.00     0.011 C 
HETATM    7  C   UNL     1      42.077 -13.356   3.051  1.00  0.00     0.165 C 
HETATM    8  S   UNL     1      42.583 -10.662   5.890  1.00  0.00    -0.086 SA
HETATM    9  C   UNL     1      41.257 -11.840   6.429  1.00  0.00     0.135 C 
HETATM   10  C   UNL     1      41.613 -12.480   1.945  1.00  0.00     0.062 C 
ENDROOT
BRANCH   6  11
HETATM   11  C   UNL     1      39.404 -11.971   4.558  1.00  0.00     0.156 C 
BRANCH  11  12
HETATM   12  C   UNL     1      38.956 -10.557   4.776  1.00  0.00     0.223 C 
HETATM   13  N   UNL     1      39.589  -9.654   3.941  1.00  0.00    -0.359 N 
HETATM   14  H   UNL     1      39.734  -9.986   2.979  1.00  0.00     0.162 HD
HETATM   15  O   UNL     1      38.218 -10.248   5.698  1.00  0.00    -0.273 OA
BRANCH  13  16
HETATM   16  C   UNL     1      39.378  -8.211   4.061  1.00  0.00     0.150 C 
BRANCH  16  17
HETATM   17  C   UNL     1      40.590  -7.475   4.670  1.00  0.00     0.253 C 
BRANCH  17  18
HETATM   18  N   UNL     1      41.440  -6.814   3.586  1.00  0.00    -0.077 N 
HETATM   19  H   UNL     1      42.203  -7.473   3.390  1.00  0.00     0.279 HD
HETATM   20  C   UNL     1      40.711  -6.581   2.290  1.00  0.00     0.269 C 
HETATM   21  C   UNL     1      42.071  -5.535   4.076  1.00  0.00     0.269 C 
ENDBRANCH  17  18
ENDBRANCH  16  17
ENDBRANCH  13  16
ENDBRANCH  11  12
ENDBRANCH   6  11
BRANCH   7  22
HETATM   22  C   UNL     1      42.247 -14.857   2.938  1.00  0.00    -0.030 A 
HETATM   23  C   UNL     1      41.983 -15.766   3.965  1.00  0.00     0.010 A 
HETATM   24  C   UNL     1      42.497 -17.075   3.897  1.00  0.00     0.008 A 
HETATM   25  C   UNL     1      43.267 -17.509   2.803  1.00  0.00    -0.055 A 
HETATM   26  C   UNL     1      43.426 -16.639   1.726  1.00  0.00     0.008 A 
HETATM   27  C   UNL     1      42.943 -15.334   1.800  1.00  0.00     0.010 A 
BRANCH  25  28
HETATM   28  C   UNL     1      43.940 -18.876   2.827  1.00  0.00     0.010 C 
HETATM   29  C   UNL     1      44.282 -19.296   4.256  1.00  0.00     0.015 C 
HETATM   30  C   UNL     1      43.111 -19.973   2.138  1.00  0.00     0.015 C 
ENDBRANCH  25  28
ENDBRANCH   7  22
BRANCH  10  31
HETATM   31  C   UNL     1      40.402 -12.843   1.159  1.00  0.00     0.256 C 
HETATM   32  N   UNL     1      40.514 -12.757  -0.203  1.00  0.00    -0.323 N 
HETATM   33  H   UNL     1      41.364 -12.397  -0.620  1.00  0.00     0.169 HD
HETATM   34  O   UNL     1      39.478 -13.368   1.783  1.00  0.00    -0.267 OA
BRANCH  32  35
HETATM   35  C   UNL     1      39.588 -13.254  -1.151  1.00  0.00     0.035 A 
HETATM   36  C   UNL     1      39.718 -14.487  -1.795  1.00  0.00     0.029 A 
HETATM   37  C   UNL     1      38.769 -14.897  -2.737  1.00  0.00     0.002 A 
HETATM   38  C   UNL     1      37.688 -14.077  -3.047  1.00  0.00     0.000 A 
HETATM   39  C   UNL     1      37.543 -12.852  -2.402  1.00  0.00     0.002 A 
HETATM   40  C   UNL     1      38.482 -12.447  -1.449  1.00  0.00     0.029 A 
ENDBRANCH  32  35
ENDBRANCH  10  31
TORSDOF 9
ENDMDL
MODEL 3
REMARK VINA RESULT:      -8.5      2.376      6.329
REMARK  9 active torsions:
REMARK  status: ('A' for Active; 'I' for Inactive)
REMARK    1  A    between atoms: C_6  and  C_7 
REMARK    2  A    between atoms: C_7  and  C_8 
REMARK       I    between atoms: C_8  and  N_9 
REMARK    3  A    between atoms: N_9  and  C_10 
REMARK    4  A    between atoms: C_10  and  C_11 
REMARK    5  A    between atoms: C_11  and  N_12 
REMARK    6  A    between atoms: C_17  and  C_18 
REMARK    7  A    between atoms: C_21  and  C_22 
REMARK    8  A    between atoms: C_29  and  C_30 
REMARK       I    between atoms: C_30  and  N_31 
REMARK    9  A    between atoms: N_31  and  C_32 
ROOT
HETATM    1  C   UNL     1      39.787 -12.202   6.399  1.00  0.00     0.071 C 
HETATM    2  C   UNL     1      40.215 -12.954   5.163  1.00  0.00     0.047 C 
HETATM    3  N   UNL     1      39.360 -12.766   4.060  1.00  0.00    -0.229 NA
HETATM    4  C   UNL     1      39.901 -12.827   2.882  1.00  0.00     0.170 C 
HETATM    5  N   UNL     1      41.418 -13.289   2.670  1.00  0.00    -0.319 N 
HETATM    6  C   UNL     1      41.908 -12.226   2.099  1.00  0.00     0.011 C 
HETATM    7  C   UNL     1      41.622 -14.277   3.741  1.00  0.00     0.165 C 
HETATM    8  S   UNL     1      39.307 -12.045   1.451  1.00  0.00    -0.086 SA
HETATM    9  C   UNL     1      41.060 -11.852   0.879  1.00  0.00     0.135 C 
HETATM   10  C   UNL     1      41.398 -13.616   5.053  1.00  0.00     0.062 C 
ENDROOT
BRANCH   6  11
HETATM   11  C   UNL     1      42.565 -11.149   2.927  1.00  0.00     0.156 C 
BRANCH  11  12
HETATM   12  C   UNL     1      41.753  -9.994   3.434  1.00  0.00     0.223 C 
HETATM   13  N   UNL     1      41.331  -9.147   2.426  1.00  0.00    -0.359 N 
HETATM   14  H   UNL     1      41.037  -9.619   1.562  1.00  0.00     0.162 HD
HETATM   15  O   UNL     1      41.620  -9.773   4.627  1.00  0.00    -0.273 OA
BRANCH  13  16
HETATM   16  C   UNL     1      40.618  -7.901   2.712  1.00  0.00     0.150 C 
BRANCH  16  17
HETATM   17  C   UNL     1      39.114  -7.980   2.379  1.00  0.00     0.253 C 
BRANCH  17  18
HETATM   18  N   UNL     1      38.261  -7.930   3.648  1.00  0.00    -0.077 N 
HETATM   19  H   UNL     1      37.303  -7.741   3.331  1.00  0.00     0.279 HD
HETATM   20  C   UNL     1      38.228  -9.224   4.416  1.00  0.00     0.269 C 
HETATM   21  C   UNL     1      38.668  -6.790   4.547  1.00  0.00     0.269 C 
ENDBRANCH  17  18
ENDBRANCH  16  17
ENDBRANCH  13  16
ENDBRANCH  11  12
ENDBRANCH   6  11
BRANCH   7  22
HETATM   22  C   UNL     1      42.529 -15.470   3.529  1.00  0.00    -0.030 A 
HETATM   23  C   UNL     1      43.042 -15.869   2.292  1.00  0.00     0.010 A 
HETATM   24  C   UNL     1      43.570 -17.164   2.133  1.00  0.00     0.008 A 
HETATM   25  C   UNL     1      43.614 -18.079   3.200  1.00  0.00    -0.055 A 
HETATM   26  C   UNL     1      43.214 -17.638   4.460  1.00  0.00     0.008 A 
HETATM   27  C   UNL     1      42.665 -16.368   4.617  1.00  0.00     0.010 A 
BRANCH  25  28
HETATM   28  C   UNL     1      44.046 -19.521   2.961  1.00  0.00     0.010 C 
HETATM   29  C   UNL     1      44.022 -20.325   4.260  1.00  0.00     0.015 C 
HETATM   30  C   UNL     1      43.212 -20.234   1.884  1.00  0.00     0.015 C 
ENDBRANCH  25  28
ENDBRANCH   7  22
BRANCH  10  31
HETATM   31  C   UNL     1      42.556 -13.246   5.912  1.00  0.00     0.256 C 
HETATM   32  N   UNL     1      43.103 -12.011   5.694  1.00  0.00    -0.323 N 
HETATM   33  H   UNL     1      42.762 -11.432   4.937  1.00  0.00     0.169 HD
HETATM   34  O   UNL     1      42.795 -13.993   6.864  1.00  0.00    -0.267 OA
BRANCH  32  35
HETATM   35  C   UNL     1      44.050 -11.359   6.520  1.00  0.00     0.035 A 
HETATM   36  C   UNL     1      45.433 -11.466   6.353  1.00  0.00     0.029 A 
HETATM   37  C   UNL     1      46.304 -10.806   7.227  1.00  0.00     0.002 A 
HETATM   38  C   UNL     1      45.801 -10.042   8.275  1.00  0.00     0.000 A 
HETATM   39  C   UNL     1      44.425  -9.920   8.443  1.00  0.00     0.002 A 
HETATM   40  C   UNL     1      43.552 -10.566   7.562  1.00  0.00     0.029 A 
ENDBRANCH  32  35
ENDBRANCH  10  31
TORSDOF 9
ENDMDL
MODEL 4
REMARK VINA RESULT:      -8.2      3.571      6.974
REMARK  9 active torsions:
REMARK  status: ('A' for Active; 'I' for Inactive)
REMARK    1  A    between atoms: C_6  and  C_7 
REMARK    2  A    between atoms: C_7  and  C_8 
REMARK       I    between atoms: C_8  and  N_9 
REMARK    3  A    between atoms: N_9  and  C_10 
REMARK    4  A    between atoms: C_10  and  C_11 
REMARK    5  A    between atoms: C_11  and  N_12 
REMARK    6  A    between atoms: C_17  and  C_18 
REMARK    7  A    between atoms: C_21  and  C_22 
REMARK    8  A    between atoms: C_29  and  C_30 
REMARK       I    between atoms: C_30  and  N_31 
REMARK    9  A    between atoms: N_31  and  C_32 
ROOT
HETATM    1  C   UNL     1      38.563 -10.177   3.494  1.00  0.00     0.071 C 
HETATM    2  C   UNL     1      38.840 -11.362   2.604  1.00  0.00     0.047 C 
HETATM    3  N   UNL     1      38.011 -11.424   1.466  1.00  0.00    -0.229 NA
HETATM    4  C   UNL     1      38.516 -11.968   0.402  1.00  0.00     0.170 C 
HETATM    5  N   UNL     1      39.931 -12.714   0.422  1.00  0.00    -0.319 N 
HETATM    6  C   UNL     1      40.583 -12.002  -0.452  1.00  0.00     0.011 C 
HETATM    7  C   UNL     1      39.984 -13.299   1.772  1.00  0.00     0.165 C 
HETATM    8  S   UNL     1      38.039 -11.633  -1.233  1.00  0.00    -0.086 SA
HETATM    9  C   UNL     1      39.790 -11.933  -1.761  1.00  0.00     0.135 C 
HETATM   10  C   UNL     1      39.893 -12.205   2.773  1.00  0.00     0.062 C 
ENDROOT
BRANCH   6  11
HETATM   11  C   UNL     1      41.423 -10.830  -0.008  1.00  0.00     0.156 C 
BRANCH  11  12
HETATM   12  C   UNL     1      41.121  -9.454  -0.523  1.00  0.00     0.223 C 
HETATM   13  N   UNL     1      42.143  -8.929  -1.293  1.00  0.00    -0.359 N 
HETATM   14  H   UNL     1      42.602  -9.603  -1.918  1.00  0.00     0.162 HD
HETATM   15  O   UNL     1      40.133  -8.833  -0.165  1.00  0.00    -0.273 OA
BRANCH  13  16
HETATM   16  C   UNL     1      42.099  -7.558  -1.803  1.00  0.00     0.150 C 
BRANCH  16  17
HETATM   17  C   UNL     1      43.405  -6.778  -1.546  1.00  0.00     0.253 C 
BRANCH  17  18
HETATM   18  N   UNL     1      43.338  -6.000  -0.231  1.00  0.00    -0.077 N 
HETATM   19  H   UNL     1      43.677  -6.646   0.492  1.00  0.00     0.279 HD
HETATM   20  C   UNL     1      44.224  -4.784  -0.191  1.00  0.00     0.269 C 
HETATM   21  C   UNL     1      41.919  -5.634   0.126  1.00  0.00     0.269 C 
ENDBRANCH  17  18
ENDBRANCH  16  17
ENDBRANCH  13  16
ENDBRANCH  11  12
ENDBRANCH   6  11
BRANCH   7  22
HETATM   22  C   UNL     1      40.676 -14.624   2.013  1.00  0.00    -0.030 A 
HETATM   23  C   UNL     1      40.417 -15.471   3.092  1.00  0.00     0.010 A 
HETATM   24  C   UNL     1      41.335 -16.485   3.428  1.00  0.00     0.008 A 
HETATM   25  C   UNL     1      42.515 -16.685   2.691  1.00  0.00    -0.055 A 
HETATM   26  C   UNL     1      42.711 -15.919   1.544  1.00  0.00     0.008 A 
HETATM   27  C   UNL     1      41.821 -14.897   1.222  1.00  0.00     0.010 A 
BRANCH  25  28
HETATM   28  C   UNL     1      43.562 -17.684   3.169  1.00  0.00     0.010 C 
HETATM   29  C   UNL     1      43.555 -17.803   4.692  1.00  0.00     0.015 C 
HETATM   30  C   UNL     1      43.411 -19.074   2.529  1.00  0.00     0.015 C 
ENDBRANCH  25  28
ENDBRANCH   7  22
BRANCH  10  31
HETATM   31  C   UNL     1      41.110 -11.759   3.506  1.00  0.00     0.256 C 
HETATM   32  N   UNL     1      41.180 -12.099   4.830  1.00  0.00    -0.323 N 
HETATM   33  H   UNL     1      40.401 -12.568   5.274  1.00  0.00     0.169 HD
HETATM   34  O   UNL     1      42.025 -11.297   2.822  1.00  0.00    -0.267 OA
BRANCH  32  35
HETATM   35  C   UNL     1      42.318 -11.982   5.664  1.00  0.00     0.035 A 
HETATM   36  C   UNL     1      42.735 -10.784   6.248  1.00  0.00     0.029 A 
HETATM   37  C   UNL     1      43.886 -10.747   7.044  1.00  0.00     0.002 A 
HETATM   38  C   UNL     1      44.630 -11.905   7.254  1.00  0.00     0.000 A 
HETATM   39  C   UNL     1      44.216 -13.105   6.685  1.00  0.00     0.002 A 
HETATM   40  C   UNL     1      43.059 -13.147   5.903  1.00  0.00     0.029 A 
ENDBRANCH  32  35
ENDBRANCH  10  31
TORSDOF 9
ENDMDL
MODEL 5
REMARK VINA RESULT:      -8.2      3.087      7.586
REMARK  9 active torsions:
REMARK  status: ('A' for Active; 'I' for Inactive)
REMARK    1  A    between atoms: C_6  and  C_7 
REMARK    2  A    between atoms: C_7  and  C_8 
REMARK       I    between atoms: C_8  and  N_9 
REMARK    3  A    between atoms: N_9  and  C_10 
REMARK    4  A    between atoms: C_10  and  C_11 
REMARK    5  A    between atoms: C_11  and  N_12 
REMARK    6  A    between atoms: C_17  and  C_18 
REMARK    7  A    between atoms: C_21  and  C_22 
REMARK    8  A    between atoms: C_29  and  C_30 
REMARK       I    between atoms: C_30  and  N_31 
REMARK    9  A    between atoms: N_31  and  C_32 
ROOT
HETATM    1  C   UNL     1      38.876 -10.355   4.333  1.00  0.00     0.071 C 
HETATM    2  C   UNL     1      39.356 -11.453   3.417  1.00  0.00     0.047 C 
HETATM    3  N   UNL     1      38.493 -11.707   2.334  1.00  0.00    -0.229 NA
HETATM    4  C   UNL     1      39.039 -12.130   1.235  1.00  0.00     0.170 C 
HETATM    5  N   UNL     1      40.584 -12.537   1.160  1.00  0.00    -0.319 N 
HETATM    6  C   UNL     1      41.002 -11.702   0.253  1.00  0.00     0.011 C 
HETATM    7  C   UNL     1      40.853 -13.087   2.499  1.00  0.00     0.165 C 
HETATM    8  S   UNL     1      38.397 -11.921  -0.364  1.00  0.00    -0.086 SA
HETATM    9  C   UNL     1      40.133 -11.821  -1.003  1.00  0.00     0.135 C 
HETATM   10  C   UNL     1      40.582 -12.036   3.513  1.00  0.00     0.062 C 
ENDROOT
BRANCH   6  11
HETATM   11  C   UNL     1      41.583 -10.368   0.652  1.00  0.00     0.156 C 
BRANCH  11  12
HETATM   12  C   UNL     1      41.742  -9.284  -0.371  1.00  0.00     0.223 C 
HETATM   13  N   UNL     1      40.616  -8.489  -0.494  1.00  0.00    -0.359 N 
HETATM   14  H   UNL     1      40.145  -8.269   0.392  1.00  0.00     0.162 HD
HETATM   15  O   UNL     1      42.716  -9.224  -1.104  1.00  0.00    -0.273 OA
BRANCH  13  16
HETATM   16  C   UNL     1      40.519  -7.440  -1.511  1.00  0.00     0.150 C 
BRANCH  16  17
HETATM   17  C   UNL     1      39.442  -7.733  -2.576  1.00  0.00     0.253 C 
BRANCH  17  18
HETATM   18  N   UNL     1      39.639  -9.115  -3.200  1.00  0.00    -0.077 N 
HETATM   19  H   UNL     1      39.882  -9.739  -2.422  1.00  0.00     0.279 HD
HETATM   20  C   UNL     1      38.404  -9.677  -3.852  1.00  0.00     0.269 C 
HETATM   21  C   UNL     1      40.799  -9.129  -4.163  1.00  0.00     0.269 C 
ENDBRANCH  17  18
ENDBRANCH  16  17
ENDBRANCH  13  16
ENDBRANCH  11  12
ENDBRANCH   6  11
BRANCH   7  22
HETATM   22  C   UNL     1      41.839 -14.220   2.685  1.00  0.00    -0.030 A 
HETATM   23  C   UNL     1      42.914 -14.486   1.833  1.00  0.00     0.010 A 
HETATM   24  C   UNL     1      43.552 -15.741   1.875  1.00  0.00     0.008 A 
HETATM   25  C   UNL     1      43.146 -16.745   2.772  1.00  0.00    -0.055 A 
HETATM   26  C   UNL     1      42.156 -16.435   3.701  1.00  0.00     0.008 A 
HETATM   27  C   UNL     1      41.503 -15.206   3.646  1.00  0.00     0.010 A 
BRANCH  25  28
HETATM   28  C   UNL     1      43.750 -18.142   2.689  1.00  0.00     0.010 C 
HETATM   29  C   UNL     1      44.337 -18.569   4.033  1.00  0.00     0.015 C 
HETATM   30  C   UNL     1      42.757 -19.203   2.185  1.00  0.00     0.015 C 
ENDBRANCH  25  28
ENDBRANCH   7  22
BRANCH  10  31
HETATM   31  C   UNL     1      41.710 -11.322   4.171  1.00  0.00     0.256 C 
HETATM   32  N   UNL     1      42.036 -11.736   5.435  1.00  0.00    -0.323 N 
HETATM   33  H   UNL     1      41.477 -12.444   5.896  1.00  0.00     0.169 HD
HETATM   34  O   UNL     1      42.370 -10.563   3.460  1.00  0.00    -0.267 OA
BRANCH  32  35
HETATM   35  C   UNL     1      43.193 -11.368   6.163  1.00  0.00     0.035 A 
HETATM   36  C   UNL     1      44.471 -11.864   5.896  1.00  0.00     0.029 A 
HETATM   37  C   UNL     1      45.561 -11.466   6.678  1.00  0.00     0.002 A 
HETATM   38  C   UNL     1      45.381 -10.578   7.734  1.00  0.00     0.000 A 
HETATM   39  C   UNL     1      44.113 -10.069   8.000  1.00  0.00     0.002 A 
HETATM   40  C   UNL     1      43.025 -10.453   7.211  1.00  0.00     0.029 A 
ENDBRANCH  32  35
ENDBRANCH  10  31
TORSDOF 9
ENDMDL
MODEL 6
REMARK VINA RESULT:      -8.0      3.645      7.745
REMARK  9 active torsions:
REMARK  status: ('A' for Active; 'I' for Inactive)
REMARK    1  A    between atoms: C_6  and  C_7 
REMARK    2  A    between atoms: C_7  and  C_8 
REMARK       I    between atoms: C_8  and  N_9 
REMARK    3  A    between atoms: N_9  and  C_10 
REMARK    4  A    between atoms: C_10  and  C_11 
REMARK    5  A    between atoms: C_11  and  N_12 
REMARK    6  A    between atoms: C_17  and  C_18 
REMARK    7  A    between atoms: C_21  and  C_22 
REMARK    8  A    between atoms: C_29  and  C_30 
REMARK       I    between atoms: C_30  and  N_31 
REMARK    9  A    between atoms: N_31  and  C_32 
ROOT
HETATM    1  C   UNL     1      38.487 -10.243   3.351  1.00  0.00     0.071 C 
HETATM    2  C   UNL     1      38.797 -11.470   2.529  1.00  0.00     0.047 C 
HETATM    3  N   UNL     1      37.998 -11.597   1.376  1.00  0.00    -0.229 NA
HETATM    4  C   UNL     1      38.535 -12.191   0.354  1.00  0.00     0.170 C 
HETATM    5  N   UNL     1      39.955 -12.922   0.449  1.00  0.00    -0.319 N 
HETATM    6  C   UNL     1      40.624 -12.250  -0.444  1.00  0.00     0.011 C 
HETATM    7  C   UNL     1      39.977 -13.436   1.828  1.00  0.00     0.165 C 
HETATM    8  S   UNL     1      38.099 -11.944  -1.308  1.00  0.00    -0.086 SA
HETATM    9  C   UNL     1      39.866 -12.254  -1.775  1.00  0.00     0.135 C 
HETATM   10  C   UNL     1      39.852 -12.294   2.769  1.00  0.00     0.062 C 
ENDROOT
BRANCH   6  11
HETATM   11  C   UNL     1      41.443 -11.049  -0.039  1.00  0.00     0.156 C 
BRANCH  11  12
HETATM   12  C   UNL     1      41.128  -9.699  -0.613  1.00  0.00     0.223 C 
HETATM   13  N   UNL     1      41.991  -9.330  -1.629  1.00  0.00    -0.359 N 
HETATM   14  H   UNL     1      42.256 -10.091  -2.267  1.00  0.00     0.162 HD
HETATM   15  O   UNL     1      40.286  -8.968  -0.119  1.00  0.00    -0.273 OA
BRANCH  13  16
HETATM   16  C   UNL     1      41.928  -8.007  -2.253  1.00  0.00     0.150 C 
BRANCH  16  17
HETATM   17  C   UNL     1      40.973  -7.959  -3.464  1.00  0.00     0.253 C 
BRANCH  17  18
HETATM   18  N   UNL     1      41.738  -7.714  -4.765  1.00  0.00    -0.077 N 
HETATM   19  H   UNL     1      41.985  -8.645  -5.122  1.00  0.00     0.279 HD
HETATM   20  C   UNL     1      40.929  -7.029  -5.834  1.00  0.00     0.269 C 
HETATM   21  C   UNL     1      43.029  -6.973  -4.520  1.00  0.00     0.269 C 
ENDBRANCH  17  18
ENDBRANCH  16  17
ENDBRANCH  13  16
ENDBRANCH  11  12
ENDBRANCH   6  11
BRANCH   7  22
HETATM   22  C   UNL     1      40.673 -14.741   2.154  1.00  0.00    -0.030 A 
HETATM   23  C   UNL     1      40.541 -15.432   3.361  1.00  0.00     0.010 A 
HETATM   24  C   UNL     1      41.478 -16.423   3.711  1.00  0.00     0.008 A 
HETATM   25  C   UNL     1      42.550 -16.756   2.865  1.00  0.00    -0.055 A 
HETATM   26  C   UNL     1      42.610 -16.152   1.611  1.00  0.00     0.008 A 
HETATM   27  C   UNL     1      41.702 -15.151   1.270  1.00  0.00     0.010 A 
BRANCH  25  28
HETATM   28  C   UNL     1      43.634 -17.719   3.336  1.00  0.00     0.010 C 
HETATM   29  C   UNL     1      43.575 -17.916   4.850  1.00  0.00     0.015 C 
HETATM   30  C   UNL     1      43.588 -19.080   2.623  1.00  0.00     0.015 C 
ENDBRANCH  25  28
ENDBRANCH   7  22
BRANCH  10  31
HETATM   31  C   UNL     1      41.046 -11.799   3.509  1.00  0.00     0.256 C 
HETATM   32  N   UNL     1      41.169 -12.213   4.808  1.00  0.00    -0.323 N 
HETATM   33  H   UNL     1      40.437 -12.767   5.235  1.00  0.00     0.169 HD
HETATM   34  O   UNL     1      41.909 -11.227   2.840  1.00  0.00    -0.267 OA
BRANCH  32  35
HETATM   35  C   UNL     1      42.311 -12.058   5.630  1.00  0.00     0.035 A 
HETATM   36  C   UNL     1      43.233 -13.077   5.881  1.00  0.00     0.029 A 
HETATM   37  C   UNL     1      44.326 -12.851   6.724  1.00  0.00     0.002 A 
HETATM   38  C   UNL     1      44.502 -11.608   7.326  1.00  0.00     0.000 A 
HETATM   39  C   UNL     1      43.595 -10.583   7.073  1.00  0.00     0.002 A 
HETATM   40  C   UNL     1      42.511 -10.803   6.219  1.00  0.00     0.029 A 
ENDBRANCH  32  35
ENDBRANCH  10  31
TORSDOF 9
ENDMDL
MODEL 7
REMARK VINA RESULT:      -7.5     16.879     20.086
REMARK  9 active torsions:
REMARK  status: ('A' for Active; 'I' for Inactive)
REMARK    1  A    between atoms: C_6  and  C_7 
REMARK    2  A    between atoms: C_7  and  C_8 
REMARK       I    between atoms: C_8  and  N_9 
REMARK    3  A    between atoms: N_9  and  C_10 
REMARK    4  A    between atoms: C_10  and  C_11 
REMARK    5  A    between atoms: C_11  and  N_12 
REMARK    6  A    between atoms: C_17  and  C_18 
REMARK    7  A    between atoms: C_21  and  C_22 
REMARK    8  A    between atoms: C_29  and  C_30 
REMARK       I    between atoms: C_30  and  N_31 
REMARK    9  A    between atoms: N_31  and  C_32 
ROOT
HETATM    1  C   UNL     1      47.191 -28.144  -1.904  1.00  0.00     0.071 C 
HETATM    2  C   UNL     1      46.792 -28.670  -0.548  1.00  0.00     0.047 C 
HETATM    3  N   UNL     1      45.488 -28.307  -0.158  1.00  0.00    -0.229 NA
HETATM    4  C   UNL     1      44.853 -29.138   0.611  1.00  0.00     0.170 C 
HETATM    5  N   UNL     1      45.572 -30.414   1.254  1.00  0.00    -0.319 N 
HETATM    6  C   UNL     1      44.842 -31.370   0.754  1.00  0.00     0.011 C 
HETATM    7  C   UNL     1      46.950 -29.948   1.475  1.00  0.00     0.165 C 
HETATM    8  S   UNL     1      43.129 -29.301   0.725  1.00  0.00    -0.086 SA
HETATM    9  C   UNL     1      43.364 -31.109   1.058  1.00  0.00     0.135 C 
HETATM   10  C   UNL     1      47.539 -29.552   0.171  1.00  0.00     0.062 C 
ENDROOT
BRANCH   6  11
HETATM   11  C   UNL     1      45.246 -32.045  -0.533  1.00  0.00     0.156 C 
BRANCH  11  12
HETATM   12  C   UNL     1      44.454 -31.809  -1.784  1.00  0.00     0.223 C 
HETATM   13  N   UNL     1      44.682 -30.563  -2.340  1.00  0.00    -0.359 N 
HETATM   14  H   UNL     1      45.660 -30.248  -2.306  1.00  0.00     0.162 HD
HETATM   15  O   UNL     1      43.598 -32.592  -2.165  1.00  0.00    -0.273 OA
BRANCH  13  16
HETATM   16  C   UNL     1      43.930 -30.087  -3.503  1.00  0.00     0.150 C 
BRANCH  16  17
HETATM   17  C   UNL     1      44.835 -29.486  -4.598  1.00  0.00     0.253 C 
BRANCH  17  18
HETATM   18  N   UNL     1      45.122 -30.504  -5.702  1.00  0.00    -0.077 N 
HETATM   19  H   UNL     1      45.539 -29.969  -6.473  1.00  0.00     0.279 HD
HETATM   20  C   UNL     1      46.114 -31.568  -5.313  1.00  0.00     0.269 C 
HETATM   21  C   UNL     1      43.854 -31.129  -6.226  1.00  0.00     0.269 C 
ENDBRANCH  17  18
ENDBRANCH  16  17
ENDBRANCH  13  16
ENDBRANCH  11  12
ENDBRANCH   6  11
BRANCH   7  22
HETATM   22  C   UNL     1      47.753 -30.445   2.659  1.00  0.00    -0.030 A 
HETATM   23  C   UNL     1      48.556 -29.639   3.470  1.00  0.00     0.010 A 
HETATM   24  C   UNL     1      49.525 -30.226   4.306  1.00  0.00     0.008 A 
HETATM   25  C   UNL     1      49.703 -31.619   4.365  1.00  0.00    -0.055 A 
HETATM   26  C   UNL     1      48.821 -32.425   3.649  1.00  0.00     0.008 A 
HETATM   27  C   UNL     1      47.878 -31.850   2.799  1.00  0.00     0.010 A 
BRANCH  25  28
HETATM   28  C   UNL     1      50.860 -32.216   5.158  1.00  0.00     0.010 C 
HETATM   29  C   UNL     1      51.838 -31.131   5.605  1.00  0.00     0.015 C 
HETATM   30  C   UNL     1      50.402 -33.046   6.368  1.00  0.00     0.015 C 
ENDBRANCH  25  28
ENDBRANCH   7  22
BRANCH  10  31
HETATM   31  C   UNL     1      48.522 -30.439  -0.508  1.00  0.00     0.256 C 
HETATM   32  N   UNL     1      49.844 -30.169  -0.277  1.00  0.00    -0.323 N 
HETATM   33  H   UNL     1      50.108 -29.362   0.274  1.00  0.00     0.169 HD
HETATM   34  O   UNL     1      48.068 -31.446  -1.055  1.00  0.00    -0.267 OA
BRANCH  32  35
HETATM   35  C   UNL     1      50.940 -30.996  -0.626  1.00  0.00     0.035 A 
HETATM   36  C   UNL     1      51.681 -30.851  -1.801  1.00  0.00     0.029 A 
HETATM   37  C   UNL     1      52.737 -31.724  -2.083  1.00  0.00     0.002 A 
HETATM   38  C   UNL     1      53.055 -32.750  -1.198  1.00  0.00     0.000 A 
HETATM   39  C   UNL     1      52.329 -32.896  -0.019  1.00  0.00     0.002 A 
HETATM   40  C   UNL     1      51.284 -32.015   0.272  1.00  0.00     0.029 A 
ENDBRANCH  32  35
ENDBRANCH  10  31
TORSDOF 9
ENDMDL
MODEL 8
REMARK VINA RESULT:      -7.5      3.715      7.863
REMARK  9 active torsions:
REMARK  status: ('A' for Active; 'I' for Inactive)
REMARK    1  A    between atoms: C_6  and  C_7 
REMARK    2  A    between atoms: C_7  and  C_8 
REMARK       I    between atoms: C_8  and  N_9 
REMARK    3  A    between atoms: N_9  and  C_10 
REMARK    4  A    between atoms: C_10  and  C_11 
REMARK    5  A    between atoms: C_11  and  N_12 
REMARK    6  A    between atoms: C_17  and  C_18 
REMARK    7  A    between atoms: C_21  and  C_22 
REMARK    8  A    between atoms: C_29  and  C_30 
REMARK       I    between atoms: C_30  and  N_31 
REMARK    9  A    between atoms: N_31  and  C_32 
ROOT
HETATM    1  C   UNL     1      37.685 -10.698   1.675  1.00  0.00     0.071 C 
HETATM    2  C   UNL     1      38.421 -11.811   0.971  1.00  0.00     0.047 C 
HETATM    3  N   UNL     1      37.984 -12.034  -0.349  1.00  0.00    -0.229 NA
HETATM    4  C   UNL     1      38.866 -12.474  -1.192  1.00  0.00     0.170 C 
HETATM    5  N   UNL     1      40.326 -12.934  -0.727  1.00  0.00    -0.319 N 
HETATM    6  C   UNL     1      41.062 -12.113  -1.420  1.00  0.00     0.011 C 
HETATM    7  C   UNL     1      40.092 -13.493   0.614  1.00  0.00     0.165 C 
HETATM    8  S   UNL     1      38.832 -12.242  -2.912  1.00  0.00    -0.086 SA
HETATM    9  C   UNL     1      40.685 -12.201  -2.902  1.00  0.00     0.135 C 
HETATM   10  C   UNL     1      39.516 -12.435   1.482  1.00  0.00     0.062 C 
ENDROOT
BRANCH   6  11
HETATM   11  C   UNL     1      41.508 -10.799  -0.826  1.00  0.00     0.156 C 
BRANCH  11  12
HETATM   12  C   UNL     1      40.999  -9.509  -1.395  1.00  0.00     0.223 C 
HETATM   13  N   UNL     1      39.742  -9.171  -0.928  1.00  0.00    -0.359 N 
HETATM   14  H   UNL     1      39.584  -9.370   0.068  1.00  0.00     0.162 HD
HETATM   15  O   UNL     1      41.591  -8.916  -2.283  1.00  0.00    -0.273 OA
BRANCH  13  16
HETATM   16  C   UNL     1      39.016  -8.006  -1.437  1.00  0.00     0.150 C 
BRANCH  16  17
HETATM   17  C   UNL     1      37.502  -8.068  -1.148  1.00  0.00     0.253 C 
BRANCH  17  18
HETATM   18  N   UNL     1      36.685  -7.924  -2.432  1.00  0.00    -0.077 N 
HETATM   19  H   UNL     1      37.250  -7.337  -3.057  1.00  0.00     0.279 HD
HETATM   20  C   UNL     1      36.435  -9.224  -3.150  1.00  0.00     0.269 C 
HETATM   21  C   UNL     1      35.387  -7.196  -2.188  1.00  0.00     0.269 C 
ENDBRANCH  17  18
ENDBRANCH  16  17
ENDBRANCH  13  16
ENDBRANCH  11  12
ENDBRANCH   6  11
BRANCH   7  22
HETATM   22  C   UNL     1      40.915 -14.660   1.119  1.00  0.00    -0.030 A 
HETATM   23  C   UNL     1      40.392 -15.777   1.775  1.00  0.00     0.010 A 
HETATM   24  C   UNL     1      41.243 -16.623   2.512  1.00  0.00     0.008 A 
HETATM   25  C   UNL     1      42.626 -16.386   2.596  1.00  0.00    -0.055 A 
HETATM   26  C   UNL     1      43.161 -15.344   1.842  1.00  0.00     0.008 A 
HETATM   27  C   UNL     1      42.321 -14.487   1.134  1.00  0.00     0.010 A 
BRANCH  25  28
HETATM   28  C   UNL     1      43.497 -17.225   3.524  1.00  0.00     0.010 C 
HETATM   29  C   UNL     1      42.960 -17.200   4.954  1.00  0.00     0.015 C 
HETATM   30  C   UNL     1      43.667 -18.677   3.049  1.00  0.00     0.015 C 
ENDBRANCH  25  28
ENDBRANCH   7  22
BRANCH  10  31
HETATM   31  C   UNL     1      40.364 -11.761   2.503  1.00  0.00     0.256 C 
HETATM   32  N   UNL     1      40.578 -12.450   3.666  1.00  0.00    -0.323 N 
HETATM   33  H   UNL     1      40.115 -13.336   3.822  1.00  0.00     0.169 HD
HETATM   34  O   UNL     1      40.952 -10.740   2.141  1.00  0.00    -0.267 OA
BRANCH  32  35
HETATM   35  C   UNL     1      41.514 -12.118   4.675  1.00  0.00     0.035 A 
HETATM   36  C   UNL     1      41.318 -11.104   5.615  1.00  0.00     0.029 A 
HETATM   37  C   UNL     1      42.303 -10.822   6.568  1.00  0.00     0.002 A 
HETATM   38  C   UNL     1      43.492 -11.546   6.583  1.00  0.00     0.000 A 
HETATM   39  C   UNL     1      43.692 -12.566   5.657  1.00  0.00     0.002 A 
HETATM   40  C   UNL     1      42.703 -12.859   4.714  1.00  0.00     0.029 A 
ENDBRANCH  32  35
ENDBRANCH  10  31
TORSDOF 9
ENDMDL
MODEL 9
REMARK VINA RESULT:      -7.3      4.006      8.195
REMARK  9 active torsions:
REMARK  status: ('A' for Active; 'I' for Inactive)
REMARK    1  A    between atoms: C_6  and  C_7 
REMARK    2  A    between atoms: C_7  and  C_8 
REMARK       I    between atoms: C_8  and  N_9 
REMARK    3  A    between atoms: N_9  and  C_10 
REMARK    4  A    between atoms: C_10  and  C_11 
REMARK    5  A    between atoms: C_11  and  N_12 
REMARK    6  A    between atoms: C_17  and  C_18 
REMARK    7  A    between atoms: C_21  and  C_22 
REMARK    8  A    between atoms: C_29  and  C_30 
REMARK       I    between atoms: C_30  and  N_31 
REMARK    9  A    between atoms: N_31  and  C_32 
ROOT
HETATM    1  C   UNL     1      37.124 -11.168   1.426  1.00  0.00     0.071 C 
HETATM    2  C   UNL     1      38.163 -12.027   0.750  1.00  0.00     0.047 C 
HETATM    3  N   UNL     1      38.099 -11.993  -0.657  1.00  0.00    -0.229 NA
HETATM    4  C   UNL     1      39.216 -12.155  -1.298  1.00  0.00     0.170 C 
HETATM    5  N   UNL     1      40.568 -12.572  -0.551  1.00  0.00    -0.319 N 
HETATM    6  C   UNL     1      41.324 -11.556  -0.853  1.00  0.00     0.011 C 
HETATM    7  C   UNL     1      40.096 -13.432   0.545  1.00  0.00     0.165 C 
HETATM    8  S   UNL     1      39.570 -11.554  -2.887  1.00  0.00    -0.086 SA
HETATM    9  C   UNL     1      41.338 -11.349  -2.370  1.00  0.00     0.135 C 
HETATM   10  C   UNL     1      39.178 -12.647   1.410  1.00  0.00     0.062 C 
ENDROOT
BRANCH   6  11
HETATM   11  C   UNL     1      41.416 -10.371   0.077  1.00  0.00     0.156 C 
BRANCH  11  12
HETATM   12  C   UNL     1      41.642  -8.997  -0.480  1.00  0.00     0.223 C 
HETATM   13  N   UNL     1      40.464  -8.316  -0.733  1.00  0.00    -0.359 N 
HETATM   14  H   UNL     1      39.729  -8.451  -0.027  1.00  0.00     0.162 HD
HETATM   15  O   UNL     1      42.752  -8.605  -0.802  1.00  0.00    -0.273 OA
BRANCH  13  16
HETATM   16  C   UNL     1      40.455  -7.003  -1.378  1.00  0.00     0.150 C 
BRANCH  16  17
HETATM   17  C   UNL     1      40.736  -7.076  -2.894  1.00  0.00     0.253 C 
BRANCH  17  18
HETATM   18  N   UNL     1      42.121  -6.522  -3.229  1.00  0.00    -0.077 N 
HETATM   19  H   UNL     1      42.684  -6.650  -2.379  1.00  0.00     0.279 HD
HETATM   20  C   UNL     1      42.824  -7.255  -4.340  1.00  0.00     0.269 C 
HETATM   21  C   UNL     1      42.074  -5.043  -3.516  1.00  0.00     0.269 C 
ENDBRANCH  17  18
ENDBRANCH  16  17
ENDBRANCH  13  16
ENDBRANCH  11  12
ENDBRANCH   6  11
BRANCH   7  22
HETATM   22  C   UNL     1      40.930 -14.602   1.024  1.00  0.00    -0.030 A 
HETATM   23  C   UNL     1      40.410 -15.780   1.566  1.00  0.00     0.010 A 
HETATM   24  C   UNL     1      41.244 -16.646   2.298  1.00  0.00     0.008 A 
HETATM   25  C   UNL     1      42.608 -16.367   2.492  1.00  0.00    -0.055 A 
HETATM   26  C   UNL     1      43.149 -15.256   1.849  1.00  0.00     0.008 A 
HETATM   27  C   UNL     1      42.324 -14.381   1.146  1.00  0.00     0.010 A 
BRANCH  25  28
HETATM   28  C   UNL     1      43.450 -17.239   3.417  1.00  0.00     0.010 C 
HETATM   29  C   UNL     1      42.910 -17.205   4.846  1.00  0.00     0.015 C 
HETATM   30  C   UNL     1      43.575 -18.693   2.933  1.00  0.00     0.015 C 
ENDBRANCH  25  28
ENDBRANCH   7  22
BRANCH  10  31
HETATM   31  C   UNL     1      39.643 -12.140   2.730  1.00  0.00     0.256 C 
HETATM   32  N   UNL     1      40.000 -10.820   2.781  1.00  0.00    -0.323 N 
HETATM   33  H   UNL     1      40.004 -10.263   1.936  1.00  0.00     0.169 HD
HETATM   34  O   UNL     1      39.484 -12.891   3.695  1.00  0.00    -0.267 OA
BRANCH  32  35
HETATM   35  C   UNL     1      40.257 -10.068   3.953  1.00  0.00     0.035 A 
HETATM   36  C   UNL     1      41.531  -9.884   4.496  1.00  0.00     0.029 A 
HETATM   37  C   UNL     1      41.699  -9.144   5.672  1.00  0.00     0.002 A 
HETATM   38  C   UNL     1      40.596  -8.591   6.316  1.00  0.00     0.000 A 
HETATM   39  C   UNL     1      39.324  -8.760   5.777  1.00  0.00     0.002 A 
HETATM   40  C   UNL     1      39.156  -9.485   4.594  1.00  0.00     0.029 A 
ENDBRANCH  32  35
ENDBRANCH  10  31
TORSDOF 9
ENDMDL
MODEL 10
REMARK VINA RESULT:      -7.2     16.589     19.296
REMARK  9 active torsions:
REMARK  status: ('A' for Active; 'I' for Inactive)
REMARK    1  A    between atoms: C_6  and  C_7 
REMARK    2  A    between atoms: C_7  and  C_8 
REMARK       I    between atoms: C_8  and  N_9 
REMARK    3  A    between atoms: N_9  and  C_10 
REMARK    4  A    between atoms: C_10  and  C_11 
REMARK    5  A    between atoms: C_11  and  N_12 
REMARK    6  A    between atoms: C_17  and  C_18 
REMARK    7  A    between atoms: C_21  and  C_22 
REMARK    8  A    between atoms: C_29  and  C_30 
REMARK       I    between atoms: C_30  and  N_31 
REMARK    9  A    between atoms: N_31  and  C_32 
ROOT
HETATM    1  C   UNL     1      47.644 -27.520  -0.715  1.00  0.00     0.071 C 
HETATM    2  C   UNL     1      46.419 -28.371  -0.942  1.00  0.00     0.047 C 
HETATM    3  N   UNL     1      46.153 -28.631  -2.301  1.00  0.00    -0.229 NA
HETATM    4  C   UNL     1      45.572 -29.758  -2.579  1.00  0.00     0.170 C 
HETATM    5  N   UNL     1      45.002 -30.721  -1.436  1.00  0.00    -0.319 N 
HETATM    6  C   UNL     1      45.698 -31.797  -1.668  1.00  0.00     0.011 C 
HETATM    7  C   UNL     1      44.559 -29.781  -0.394  1.00  0.00     0.165 C 
HETATM    8  S   UNL     1      45.691 -30.618  -4.082  1.00  0.00    -0.086 SA
HETATM    9  C   UNL     1      45.549 -32.206  -3.137  1.00  0.00     0.135 C 
HETATM   10  C   UNL     1      45.725 -28.979   0.057  1.00  0.00     0.062 C 
ENDROOT
BRANCH   6  11
HETATM   11  C   UNL     1      46.997 -32.038  -0.939  1.00  0.00     0.156 C 
BRANCH  11  12
HETATM   12  C   UNL     1      48.302 -31.789  -1.634  1.00  0.00     0.223 C 
HETATM   13  N   UNL     1      48.811 -32.919  -2.248  1.00  0.00    -0.359 N 
HETATM   14  H   UNL     1      48.109 -33.511  -2.709  1.00  0.00     0.162 HD
HETATM   15  O   UNL     1      48.899 -30.729  -1.527  1.00  0.00    -0.273 OA
BRANCH  13  16
HETATM   16  C   UNL     1      50.127 -32.922  -2.890  1.00  0.00     0.150 C 
BRANCH  16  17
HETATM   17  C   UNL     1      51.228 -33.537  -2.002  1.00  0.00     0.253 C 
BRANCH  17  18
HETATM   18  N   UNL     1      52.171 -32.461  -1.462  1.00  0.00    -0.077 N 
HETATM   19  H   UNL     1      53.104 -32.890  -1.451  1.00  0.00     0.279 HD
HETATM   20  C   UNL     1      52.258 -31.231  -2.326  1.00  0.00     0.269 C 
HETATM   21  C   UNL     1      51.834 -32.088  -0.041  1.00  0.00     0.269 C 
ENDBRANCH  17  18
ENDBRANCH  16  17
ENDBRANCH  13  16
ENDBRANCH  11  12
ENDBRANCH   6  11
BRANCH   7  22
HETATM   22  C   UNL     1      43.353 -30.094   0.467  1.00  0.00    -0.030 A 
HETATM   23  C   UNL     1      42.592 -29.140   1.147  1.00  0.00     0.010 A 
HETATM   24  C   UNL     1      41.729 -29.537   2.186  1.00  0.00     0.008 A 
HETATM   25  C   UNL     1      41.594 -30.887   2.557  1.00  0.00    -0.055 A 
HETATM   26  C   UNL     1      42.260 -31.846   1.798  1.00  0.00     0.008 A 
HETATM   27  C   UNL     1      43.136 -31.458   0.787  1.00  0.00     0.010 A 
BRANCH  25  28
HETATM   28  C   UNL     1      40.774 -31.271   3.783  1.00  0.00     0.010 C 
HETATM   29  C   UNL     1      39.964 -32.540   3.529  1.00  0.00     0.015 C 
HETATM   30  C   UNL     1      41.624 -31.432   5.055  1.00  0.00     0.015 C 
ENDBRANCH  25  28
ENDBRANCH   7  22
BRANCH  10  31
HETATM   31  C   UNL     1      46.378 -29.275   1.361  1.00  0.00     0.256 C 
HETATM   32  N   UNL     1      47.463 -30.108   1.321  1.00  0.00    -0.323 N 
HETATM   33  H   UNL     1      47.740 -30.538   0.448  1.00  0.00     0.169 HD
HETATM   34  O   UNL     1      46.012 -28.600   2.326  1.00  0.00    -0.267 OA
BRANCH  32  35
HETATM   35  C   UNL     1      48.368 -30.353   2.382  1.00  0.00     0.035 A 
HETATM   36  C   UNL     1      48.007 -30.952   3.591  1.00  0.00     0.029 A 
HETATM   37  C   UNL     1      48.958 -31.140   4.600  1.00  0.00     0.002 A 
HETATM   38  C   UNL     1      50.273 -30.726   4.411  1.00  0.00     0.000 A 
HETATM   39  C   UNL     1      50.645 -30.138   3.205  1.00  0.00     0.002 A 
HETATM   40  C   UNL     1      49.700 -29.963   2.190  1.00  0.00     0.029 A 
ENDBRANCH  32  35
ENDBRANCH  10  31
TORSDOF 9
ENDMDL
