MODEL 1
REMARK VINA RESULT:      -8.6      0.000      0.000
REMARK  7 active torsions:
REMARK  status: ('A' for Active; 'I' for Inactive)
REMARK    1  A    between atoms: C_2  and  N_3 
REMARK    2  A    between atoms: C_2  and  C_19 
REMARK       I    between atoms: N_3  and  C_4 
REMARK       I    between atoms: C_4  and  N_5 
REMARK    3  A    between atoms: N_5  and  C_6 
REMARK    4  A    between atoms: N_8  and  C_9 
REMARK    5  A    between atoms: C_9  and  C_10 
REMARK    6  A    between atoms: C_19  and  C_20 
REMARK    7  A    between atoms: C_23  and  O_24 
ROOT
HETATM    1  N   UNL     1      41.629 -15.201   3.550  1.00  0.00    -0.338 N 
HETATM    2  C   UNL     1      41.008 -15.523   4.714  1.00  0.00     0.322 C 
HETATM    3  N   UNL     1      41.171 -14.659   5.755  1.00  0.00    -0.292 N 
HETATM    4  O   UNL     1      40.324 -16.533   4.865  1.00  0.00    -0.247 OA
HETATM    5  H   UNL     1      42.174 -14.342   3.579  1.00  0.00     0.164 HD
HETATM    6  H   UNL     1      40.707 -14.952   6.601  1.00  0.00     0.172 HD
ENDROOT
BRANCH   1   7
HETATM    7  C   UNL     1      41.731 -16.088   2.402  1.00  0.00     0.086 C 
HETATM    8  C   UNL     1      41.246 -15.352   1.155  1.00  0.00     0.032 C 
BRANCH   7   9
HETATM    9  C   UNL     1      43.182 -16.574   2.209  1.00  0.00     0.063 C 
BRANCH   9  10
HETATM   10  C   UNL     1      43.458 -17.922   2.837  1.00  0.00    -0.056 A 
HETATM   11  C   UNL     1      43.235 -19.102   2.112  1.00  0.00     0.010 A 
HETATM   12  C   UNL     1      43.475 -20.349   2.694  1.00  0.00     0.037 A 
HETATM   13  C   UNL     1      43.935 -20.415   4.005  1.00  0.00     0.065 A 
HETATM   14  C   UNL     1      44.155 -19.258   4.741  1.00  0.00     0.037 A 
HETATM   15  C   UNL     1      43.913 -18.013   4.160  1.00  0.00     0.010 A 
BRANCH  13  16
HETATM   16  O   UNL     1      44.179 -21.611   4.612  1.00  0.00    -0.361 OA
HETATM   17  H   UNL     1      44.497 -21.436   5.513  1.00  0.00     0.217 HD
ENDBRANCH  13  16
ENDBRANCH   9  10
ENDBRANCH   7   9
ENDBRANCH   1   7
BRANCH   3  18
HETATM   18  C   UNL     1      41.918 -13.504   5.807  1.00  0.00     0.153 A 
HETATM   19  N   UNL     1      43.218 -13.447   6.124  1.00  0.00    -0.154 NA
HETATM   20  N   UNL     1      43.522 -12.133   6.059  1.00  0.00    -0.275 N 
HETATM   21  C   UNL     1      42.461 -11.354   5.694  1.00  0.00     0.116 A 
HETATM   22  C   UNL     1      41.403 -12.216   5.527  1.00  0.00     0.071 A 
BRANCH  20  23
HETATM   23  C   UNL     1      44.887 -11.683   6.297  1.00  0.00     0.189 C 
BRANCH  23  24
HETATM   24  C   UNL     1      44.997 -10.876   7.565  1.00  0.00    -0.038 A 
HETATM   25  C   UNL     1      45.973  -9.874   7.686  1.00  0.00     0.009 A 
HETATM   26  C   UNL     1      46.082  -9.128   8.861  1.00  0.00     0.001 A 
HETATM   27  C   UNL     1      45.215  -9.372   9.924  1.00  0.00     0.000 A 
HETATM   28  C   UNL     1      44.241 -10.362   9.816  1.00  0.00     0.001 A 
HETATM   29  C   UNL     1      44.133 -11.113   8.644  1.00  0.00     0.009 A 
ENDBRANCH  23  24
ENDBRANCH  20  23
ENDBRANCH   3  18
TORSDOF 7
ENDMDL
MODEL 2
REMARK VINA RESULT:      -8.6      1.724      2.458
REMARK  7 active torsions:
REMARK  status: ('A' for Active; 'I' for Inactive)
REMARK    1  A    between atoms: C_2  and  N_3 
REMARK    2  A    between atoms: C_2  and  C_19 
REMARK       I    between atoms: N_3  and  C_4 
REMARK       I    between atoms: C_4  and  N_5 
REMARK    3  A    between atoms: N_5  and  C_6 
REMARK    4  A    between atoms: N_8  and  C_9 
REMARK    5  A    between atoms: C_9  and  C_10 
REMARK    6  A    between atoms: C_19  and  C_20 
REMARK    7  A    between atoms: C_23  and  O_24 
ROOT
HETATM    1  N   UNL     1      41.563 -14.511   3.165  1.00  0.00    -0.338 N 
HETATM    2  C   UNL     1      40.220 -14.610   2.987  1.00  0.00     0.322 C 
HETATM    3  N   UNL     1      39.445 -13.706   3.651  1.00  0.00    -0.292 N 
HETATM    4  O   UNL     1      39.687 -15.459   2.274  1.00  0.00    -0.247 OA
HETATM    5  H   UNL     1      41.857 -13.768   3.797  1.00  0.00     0.164 HD
HETATM    6  H   UNL     1      38.456 -13.834   3.501  1.00  0.00     0.172 HD
ENDROOT
BRANCH   1   7
HETATM    7  C   UNL     1      42.526 -15.496   2.702  1.00  0.00     0.086 C 
HETATM    8  C   UNL     1      43.506 -14.826   1.741  1.00  0.00     0.032 C 
BRANCH   7   9
HETATM    9  C   UNL     1      43.283 -16.127   3.889  1.00  0.00     0.063 C 
BRANCH   9  10
HETATM   10  C   UNL     1      43.495 -17.618   3.747  1.00  0.00    -0.056 A 
HETATM   11  C   UNL     1      44.043 -18.360   4.804  1.00  0.00     0.010 A 
HETATM   12  C   UNL     1      44.254 -19.734   4.671  1.00  0.00     0.037 A 
HETATM   13  C   UNL     1      43.919 -20.366   3.478  1.00  0.00     0.065 A 
HETATM   14  C   UNL     1      43.381 -19.647   2.418  1.00  0.00     0.037 A 
HETATM   15  C   UNL     1      43.173 -18.274   2.551  1.00  0.00     0.010 A 
BRANCH  13  16
HETATM   16  O   UNL     1      44.110 -21.705   3.306  1.00  0.00    -0.361 OA
HETATM   17  H   UNL     1      44.537 -22.057   4.105  1.00  0.00     0.217 HD
ENDBRANCH  13  16
ENDBRANCH   9  10
ENDBRANCH   7   9
ENDBRANCH   1   7
BRANCH   3  18
HETATM   18  C   UNL     1      39.834 -12.710   4.518  1.00  0.00     0.153 A 
HETATM   19  N   UNL     1      40.853 -11.867   4.306  1.00  0.00    -0.154 NA
HETATM   20  N   UNL     1      40.873 -11.084   5.406  1.00  0.00    -0.275 N 
HETATM   21  C   UNL     1      39.888 -11.390   6.302  1.00  0.00     0.116 A 
HETATM   22  C   UNL     1      39.199 -12.446   5.754  1.00  0.00     0.071 A 
BRANCH  20  23
HETATM   23  C   UNL     1      41.835  -9.995   5.513  1.00  0.00     0.189 C 
BRANCH  23  24
HETATM   24  C   UNL     1      43.065 -10.408   6.280  1.00  0.00    -0.038 A 
HETATM   25  C   UNL     1      43.253  -9.980   7.604  1.00  0.00     0.009 A 
HETATM   26  C   UNL     1      44.392 -10.356   8.316  1.00  0.00     0.001 A 
HETATM   27  C   UNL     1      45.353 -11.167   7.716  1.00  0.00     0.000 A 
HETATM   28  C   UNL     1      45.178 -11.600   6.403  1.00  0.00     0.001 A 
HETATM   29  C   UNL     1      44.041 -11.222   5.687  1.00  0.00     0.009 A 
ENDBRANCH  23  24
ENDBRANCH  20  23
ENDBRANCH   3  18
TORSDOF 7
ENDMDL
MODEL 3
REMARK VINA RESULT:      -8.3      4.537      7.507
REMARK  7 active torsions:
REMARK  status: ('A' for Active; 'I' for Inactive)
REMARK    1  A    between atoms: C_2  and  N_3 
REMARK    2  A    between atoms: C_2  and  C_19 
REMARK       I    between atoms: N_3  and  C_4 
REMARK       I    between atoms: C_4  and  N_5 
REMARK    3  A    between atoms: N_5  and  C_6 
REMARK    4  A    between atoms: N_8  and  C_9 
REMARK    5  A    between atoms: C_9  and  C_10 
REMARK    6  A    between atoms: C_19  and  C_20 
REMARK    7  A    between atoms: C_23  and  O_24 
ROOT
HETATM    1  N   UNL     1      40.703 -13.061   3.027  1.00  0.00    -0.338 N 
HETATM    2  C   UNL     1      39.821 -12.760   4.015  1.00  0.00     0.322 C 
HETATM    3  N   UNL     1      39.891 -13.511   5.150  1.00  0.00    -0.292 N 
HETATM    4  O   UNL     1      38.985 -11.862   3.932  1.00  0.00    -0.247 OA
HETATM    5  H   UNL     1      41.326 -13.840   3.232  1.00  0.00     0.164 HD
HETATM    6  H   UNL     1      39.204 -13.261   5.844  1.00  0.00     0.172 HD
ENDROOT
BRANCH   1   7
HETATM    7  C   UNL     1      40.651 -12.506   1.684  1.00  0.00     0.086 C 
HETATM    8  C   UNL     1      41.353 -11.149   1.675  1.00  0.00     0.032 C 
BRANCH   7   9
HETATM    9  C   UNL     1      41.312 -13.460   0.668  1.00  0.00     0.063 C 
BRANCH   9  10
HETATM   10  C   UNL     1      40.505 -13.650  -0.597  1.00  0.00    -0.056 A 
HETATM   11  C   UNL     1      39.682 -14.776  -0.752  1.00  0.00     0.010 A 
HETATM   12  C   UNL     1      38.947 -14.961  -1.924  1.00  0.00     0.037 A 
HETATM   13  C   UNL     1      39.037 -14.021  -2.946  1.00  0.00     0.065 A 
HETATM   14  C   UNL     1      39.852 -12.904  -2.814  1.00  0.00     0.037 A 
HETATM   15  C   UNL     1      40.588 -12.720  -1.643  1.00  0.00     0.010 A 
BRANCH  13  16
HETATM   16  O   UNL     1      38.339 -14.166  -4.107  1.00  0.00    -0.361 OA
HETATM   17  H   UNL     1      38.808 -14.805  -4.668  1.00  0.00     0.217 HD
ENDBRANCH  13  16
ENDBRANCH   9  10
ENDBRANCH   7   9
ENDBRANCH   1   7
BRANCH   3  18
HETATM   18  C   UNL     1      40.720 -14.575   5.429  1.00  0.00     0.153 A 
HETATM   19  N   UNL     1      41.945 -14.744   4.917  1.00  0.00    -0.154 NA
HETATM   20  N   UNL     1      42.373 -15.909   5.450  1.00  0.00    -0.275 N 
HETATM   21  C   UNL     1      41.466 -16.475   6.300  1.00  0.00     0.116 A 
HETATM   22  C   UNL     1      40.380 -15.633   6.303  1.00  0.00     0.071 A 
BRANCH  20  23
HETATM   23  C   UNL     1      43.712 -16.402   5.156  1.00  0.00     0.189 C 
BRANCH  23  24
HETATM   24  C   UNL     1      43.675 -17.665   4.334  1.00  0.00    -0.038 A 
HETATM   25  C   UNL     1      44.112 -18.881   4.882  1.00  0.00     0.009 A 
HETATM   26  C   UNL     1      44.084 -20.051   4.123  1.00  0.00     0.001 A 
HETATM   27  C   UNL     1      43.615 -20.021   2.811  1.00  0.00     0.000 A 
HETATM   28  C   UNL     1      43.178 -18.820   2.256  1.00  0.00     0.001 A 
HETATM   29  C   UNL     1      43.209 -17.647   3.011  1.00  0.00     0.009 A 
ENDBRANCH  23  24
ENDBRANCH  20  23
ENDBRANCH   3  18
TORSDOF 7
ENDMDL
MODEL 4
REMARK VINA RESULT:      -8.2      3.372      6.918
REMARK  7 active torsions:
REMARK  status: ('A' for Active; 'I' for Inactive)
REMARK    1  A    between atoms: C_2  and  N_3 
REMARK    2  A    between atoms: C_2  and  C_19 
REMARK       I    between atoms: N_3  and  C_4 
REMARK       I    between atoms: C_4  and  N_5 
REMARK    3  A    between atoms: N_5  and  C_6 
REMARK    4  A    between atoms: N_8  and  C_9 
REMARK    5  A    between atoms: C_9  and  C_10 
REMARK    6  A    between atoms: C_19  and  C_20 
REMARK    7  A    between atoms: C_23  and  O_24 
ROOT
HETATM    1  N   UNL     1      41.733 -14.195   3.859  1.00  0.00    -0.338 N 
HETATM    2  C   UNL     1      41.985 -13.134   4.668  1.00  0.00     0.322 C 
HETATM    3  N   UNL     1      41.706 -11.898   4.165  1.00  0.00    -0.292 N 
HETATM    4  O   UNL     1      42.444 -13.236   5.805  1.00  0.00    -0.247 OA
HETATM    5  H   UNL     1      41.369 -13.954   2.939  1.00  0.00     0.164 HD
HETATM    6  H   UNL     1      41.928 -11.144   4.797  1.00  0.00     0.172 HD
ENDROOT
BRANCH   1   7
HETATM    7  C   UNL     1      42.146 -15.559   4.143  1.00  0.00     0.086 C 
HETATM    8  C   UNL     1      40.905 -16.422   4.367  1.00  0.00     0.032 C 
BRANCH   7   9
HETATM    9  C   UNL     1      42.996 -16.130   2.990  1.00  0.00     0.063 C 
BRANCH   9  10
HETATM   10  C   UNL     1      43.300 -17.604   3.134  1.00  0.00    -0.056 A 
HETATM   11  C   UNL     1      43.956 -18.086   4.276  1.00  0.00     0.010 A 
HETATM   12  C   UNL     1      44.250 -19.445   4.405  1.00  0.00     0.037 A 
HETATM   13  C   UNL     1      43.891 -20.323   3.388  1.00  0.00     0.065 A 
HETATM   14  C   UNL     1      43.247 -19.864   2.246  1.00  0.00     0.037 A 
HETATM   15  C   UNL     1      42.955 -18.506   2.117  1.00  0.00     0.010 A 
BRANCH  13  16
HETATM   16  O   UNL     1      44.162 -21.656   3.473  1.00  0.00    -0.361 OA
HETATM   17  H   UNL     1      44.557 -21.833   4.342  1.00  0.00     0.217 HD
ENDBRANCH  13  16
ENDBRANCH   9  10
ENDBRANCH   7   9
ENDBRANCH   1   7
BRANCH   3  18
HETATM   18  C   UNL     1      41.228 -11.564   2.918  1.00  0.00     0.153 A 
HETATM   19  N   UNL     1      39.976 -11.782   2.495  1.00  0.00    -0.154 NA
HETATM   20  N   UNL     1      39.964 -11.312   1.229  1.00  0.00    -0.275 N 
HETATM   21  C   UNL     1      41.163 -10.785   0.840  1.00  0.00     0.116 A 
HETATM   22  C   UNL     1      42.005 -10.938   1.916  1.00  0.00     0.071 A 
BRANCH  20  23
HETATM   23  C   UNL     1      38.733 -11.334   0.450  1.00  0.00     0.189 C 
BRANCH  23  24
HETATM   24  C   UNL     1      38.730 -12.453  -0.560  1.00  0.00    -0.038 A 
HETATM   25  C   UNL     1      37.848 -12.420  -1.652  1.00  0.00     0.009 A 
HETATM   26  C   UNL     1      37.839 -13.456  -2.587  1.00  0.00     0.001 A 
HETATM   27  C   UNL     1      38.712 -14.532  -2.444  1.00  0.00     0.000 A 
HETATM   28  C   UNL     1      39.593 -14.575  -1.365  1.00  0.00     0.001 A 
HETATM   29  C   UNL     1      39.602 -13.543  -0.426  1.00  0.00     0.009 A 
ENDBRANCH  23  24
ENDBRANCH  20  23
ENDBRANCH   3  18
TORSDOF 7
ENDMDL
MODEL 5
REMARK VINA RESULT:      -8.0      1.718      2.953
REMARK  7 active torsions:
REMARK  status: ('A' for Active; 'I' for Inactive)
REMARK    1  A    between atoms: C_2  and  N_3 
REMARK    2  A    between atoms: C_2  and  C_19 
REMARK       I    between atoms: N_3  and  C_4 
REMARK       I    between atoms: C_4  and  N_5 
REMARK    3  A    between atoms: N_5  and  C_6 
REMARK    4  A    between atoms: N_8  and  C_9 
REMARK    5  A    between atoms: C_9  and  C_10 
REMARK    6  A    between atoms: C_19  and  C_20 
REMARK    7  A    between atoms: C_23  and  O_24 
ROOT
HETATM    1  N   UNL     1      43.179 -14.213   5.562  1.00  0.00    -0.338 N 
HETATM    2  C   UNL     1      42.256 -13.253   5.292  1.00  0.00     0.322 C 
HETATM    3  N   UNL     1      42.556 -11.984   5.692  1.00  0.00    -0.292 N 
HETATM    4  O   UNL     1      41.191 -13.472   4.720  1.00  0.00    -0.247 OA
HETATM    5  H   UNL     1      44.006 -13.884   6.056  1.00  0.00     0.164 HD
HETATM    6  H   UNL     1      41.832 -11.313   5.486  1.00  0.00     0.172 HD
ENDROOT
BRANCH   1   7
HETATM    7  C   UNL     1      42.952 -15.639   5.391  1.00  0.00     0.086 C 
HETATM    8  C   UNL     1      41.525 -15.975   5.817  1.00  0.00     0.032 C 
BRANCH   7   9
HETATM    9  C   UNL     1      43.190 -16.062   3.927  1.00  0.00     0.063 C 
BRANCH   9  10
HETATM   10  C   UNL     1      43.430 -17.545   3.757  1.00  0.00    -0.056 A 
HETATM   11  C   UNL     1      43.984 -18.299   4.802  1.00  0.00     0.010 A 
HETATM   12  C   UNL     1      44.220 -19.666   4.643  1.00  0.00     0.037 A 
HETATM   13  C   UNL     1      43.905 -20.280   3.435  1.00  0.00     0.065 A 
HETATM   14  C   UNL     1      43.361 -19.549   2.387  1.00  0.00     0.037 A 
HETATM   15  C   UNL     1      43.128 -18.183   2.545  1.00  0.00     0.010 A 
BRANCH  13  16
HETATM   16  O   UNL     1      44.121 -21.611   3.238  1.00  0.00    -0.361 OA
HETATM   17  H   UNL     1      43.816 -22.090   4.026  1.00  0.00     0.217 HD
ENDBRANCH  13  16
ENDBRANCH   9  10
ENDBRANCH   7   9
ENDBRANCH   1   7
BRANCH   3  18
HETATM   18  C   UNL     1      43.665 -11.535   6.373  1.00  0.00     0.153 A 
HETATM   19  N   UNL     1      43.664 -11.119   7.645  1.00  0.00    -0.154 NA
HETATM   20  N   UNL     1      44.946 -10.766   7.883  1.00  0.00    -0.275 N 
HETATM   21  C   UNL     1      45.766 -10.964   6.809  1.00  0.00     0.116 A 
HETATM   22  C   UNL     1      44.961 -11.459   5.811  1.00  0.00     0.071 A 
BRANCH  20  23
HETATM   23  C   UNL     1      45.346 -10.303   9.206  1.00  0.00     0.189 C 
BRANCH  23  24
HETATM   24  C   UNL     1      44.508  -9.137   9.666  1.00  0.00    -0.038 A 
HETATM   25  C   UNL     1      43.907  -9.153  10.935  1.00  0.00     0.009 A 
HETATM   26  C   UNL     1      43.126  -8.079  11.363  1.00  0.00     0.001 A 
HETATM   27  C   UNL     1      42.942  -6.976  10.532  1.00  0.00     0.000 A 
HETATM   28  C   UNL     1      43.535  -6.948   9.271  1.00  0.00     0.001 A 
HETATM   29  C   UNL     1      44.312  -8.023   8.838  1.00  0.00     0.009 A 
ENDBRANCH  23  24
ENDBRANCH  20  23
ENDBRANCH   3  18
TORSDOF 7
ENDMDL
MODEL 6
REMARK VINA RESULT:      -8.0      4.509     10.371
REMARK  7 active torsions:
REMARK  status: ('A' for Active; 'I' for Inactive)
REMARK    1  A    between atoms: C_2  and  N_3 
REMARK    2  A    between atoms: C_2  and  C_19 
REMARK       I    between atoms: N_3  and  C_4 
REMARK       I    between atoms: C_4  and  N_5 
REMARK    3  A    between atoms: N_5  and  C_6 
REMARK    4  A    between atoms: N_8  and  C_9 
REMARK    5  A    between atoms: C_9  and  C_10 
REMARK    6  A    between atoms: C_19  and  C_20 
REMARK    7  A    between atoms: C_23  and  O_24 
ROOT
HETATM    1  N   UNL     1      43.606  -9.899   8.979  1.00  0.00    -0.338 N 
HETATM    2  C   UNL     1      44.941  -9.997   8.751  1.00  0.00     0.322 C 
HETATM    3  N   UNL     1      45.338 -10.890   7.800  1.00  0.00    -0.292 N 
HETATM    4  O   UNL     1      45.786  -9.333   9.349  1.00  0.00    -0.247 OA
HETATM    5  H   UNL     1      43.029 -10.524   8.418  1.00  0.00     0.164 HD
HETATM    6  H   UNL     1      46.338 -10.939   7.682  1.00  0.00     0.172 HD
ENDROOT
BRANCH   1   7
HETATM    7  C   UNL     1      43.014  -9.153  10.077  1.00  0.00     0.086 C 
HETATM    8  C   UNL     1      41.556  -8.844   9.745  1.00  0.00     0.032 C 
BRANCH   7   9
HETATM    9  C   UNL     1      43.108  -9.948  11.396  1.00  0.00     0.063 C 
BRANCH   9  10
HETATM   10  C   UNL     1      42.826  -9.114  12.626  1.00  0.00    -0.056 A 
HETATM   11  C   UNL     1      41.841  -9.512  13.543  1.00  0.00     0.010 A 
HETATM   12  C   UNL     1      41.569  -8.737  14.672  1.00  0.00     0.037 A 
HETATM   13  C   UNL     1      42.280  -7.560  14.883  1.00  0.00     0.065 A 
HETATM   14  C   UNL     1      43.254  -7.147  13.983  1.00  0.00     0.037 A 
HETATM   15  C   UNL     1      43.524  -7.920  12.854  1.00  0.00     0.010 A 
BRANCH  13  16
HETATM   16  O   UNL     1      42.044  -6.773  15.971  1.00  0.00    -0.361 OA
HETATM   17  H   UNL     1      41.243  -7.098  16.414  1.00  0.00     0.217 HD
ENDBRANCH  13  16
ENDBRANCH   9  10
ENDBRANCH   7   9
ENDBRANCH   1   7
BRANCH   3  18
HETATM   18  C   UNL     1      44.566 -11.748   7.050  1.00  0.00     0.153 A 
HETATM   19  N   UNL     1      43.938 -12.830   7.529  1.00  0.00    -0.154 NA
HETATM   20  N   UNL     1      43.324 -13.365   6.452  1.00  0.00    -0.275 N 
HETATM   21  C   UNL     1      43.526 -12.648   5.307  1.00  0.00     0.116 A 
HETATM   22  C   UNL     1      44.333 -11.594   5.663  1.00  0.00     0.071 A 
BRANCH  20  23
HETATM   23  C   UNL     1      42.487 -14.549   6.598  1.00  0.00     0.189 C 
BRANCH  23  24
HETATM   24  C   UNL     1      42.909 -15.652   5.663  1.00  0.00    -0.038 A 
HETATM   25  C   UNL     1      42.186 -15.901   4.486  1.00  0.00     0.009 A 
HETATM   26  C   UNL     1      42.571 -16.925   3.620  1.00  0.00     0.001 A 
HETATM   27  C   UNL     1      43.684 -17.708   3.917  1.00  0.00     0.000 A 
HETATM   28  C   UNL     1      44.412 -17.470   5.081  1.00  0.00     0.001 A 
HETATM   29  C   UNL     1      44.027 -16.449   5.952  1.00  0.00     0.009 A 
ENDBRANCH  23  24
ENDBRANCH  20  23
ENDBRANCH   3  18
TORSDOF 7
ENDMDL
MODEL 7
REMARK VINA RESULT:      -7.8      4.719      7.428
REMARK  7 active torsions:
REMARK  status: ('A' for Active; 'I' for Inactive)
REMARK    1  A    between atoms: C_2  and  N_3 
REMARK    2  A    between atoms: C_2  and  C_19 
REMARK       I    between atoms: N_3  and  C_4 
REMARK       I    between atoms: C_4  and  N_5 
REMARK    3  A    between atoms: N_5  and  C_6 
REMARK    4  A    between atoms: N_8  and  C_9 
REMARK    5  A    between atoms: C_9  and  C_10 
REMARK    6  A    between atoms: C_19  and  C_20 
REMARK    7  A    between atoms: C_23  and  O_24 
ROOT
HETATM    1  N   UNL     1      41.836 -15.226   1.008  1.00  0.00    -0.338 N 
HETATM    2  C   UNL     1      40.556 -15.248   1.460  1.00  0.00     0.322 C 
HETATM    3  N   UNL     1      39.591 -14.834   0.591  1.00  0.00    -0.292 N 
HETATM    4  O   UNL     1      40.237 -15.613   2.590  1.00  0.00    -0.247 OA
HETATM    5  H   UNL     1      41.948 -14.883   0.056  1.00  0.00     0.164 HD
HETATM    6  H   UNL     1      38.661 -14.851   0.980  1.00  0.00     0.172 HD
ENDROOT
BRANCH   1   7
HETATM    7  C   UNL     1      43.005 -15.441   1.846  1.00  0.00     0.086 C 
HETATM    8  C   UNL     1      43.661 -14.094   2.147  1.00  0.00     0.032 C 
BRANCH   7   9
HETATM    9  C   UNL     1      42.620 -16.156   3.156  1.00  0.00     0.063 C 
BRANCH   9  10
HETATM   10  C   UNL     1      43.040 -17.609   3.199  1.00  0.00    -0.056 A 
HETATM   11  C   UNL     1      43.741 -18.113   4.305  1.00  0.00     0.010 A 
HETATM   12  C   UNL     1      44.142 -19.450   4.340  1.00  0.00     0.037 A 
HETATM   13  C   UNL     1      43.847 -20.283   3.267  1.00  0.00     0.065 A 
HETATM   14  C   UNL     1      43.160 -19.800   2.160  1.00  0.00     0.037 A 
HETATM   15  C   UNL     1      42.761 -18.464   2.124  1.00  0.00     0.010 A 
BRANCH  13  16
HETATM   16  O   UNL     1      44.223 -21.593   3.260  1.00  0.00    -0.361 OA
HETATM   17  H   UNL     1      44.762 -21.752   2.468  1.00  0.00     0.217 HD
ENDBRANCH  13  16
ENDBRANCH   9  10
ENDBRANCH   7   9
ENDBRANCH   1   7
BRANCH   3  18
HETATM   18  C   UNL     1      39.736 -14.356  -0.692  1.00  0.00     0.153 A 
HETATM   19  N   UNL     1      40.500 -13.312  -1.037  1.00  0.00    -0.154 NA
HETATM   20  N   UNL     1      40.329 -13.199  -2.372  1.00  0.00    -0.275 N 
HETATM   21  C   UNL     1      39.496 -14.150  -2.890  1.00  0.00     0.116 A 
HETATM   22  C   UNL     1      39.092 -14.914  -1.821  1.00  0.00     0.071 A 
BRANCH  20  23
HETATM   23  C   UNL     1      41.058 -12.184  -3.122  1.00  0.00     0.189 C 
BRANCH  23  24
HETATM   24  C   UNL     1      40.673 -10.790  -2.695  1.00  0.00    -0.038 A 
HETATM   25  C   UNL     1      39.471 -10.218  -3.142  1.00  0.00     0.009 A 
HETATM   26  C   UNL     1      39.114  -8.927  -2.754  1.00  0.00     0.001 A 
HETATM   27  C   UNL     1      39.949  -8.195  -1.913  1.00  0.00     0.000 A 
HETATM   28  C   UNL     1      41.144  -8.752  -1.461  1.00  0.00     0.001 A 
HETATM   29  C   UNL     1      41.507 -10.042  -1.851  1.00  0.00     0.009 A 
ENDBRANCH  23  24
ENDBRANCH  20  23
ENDBRANCH   3  18
TORSDOF 7
ENDMDL
MODEL 8
REMARK VINA RESULT:      -7.7      5.549      9.440
REMARK  7 active torsions:
REMARK  status: ('A' for Active; 'I' for Inactive)
REMARK    1  A    between atoms: C_2  and  N_3 
REMARK    2  A    between atoms: C_2  and  C_19 
REMARK       I    between atoms: N_3  and  C_4 
REMARK       I    between atoms: C_4  and  N_5 
REMARK    3  A    between atoms: N_5  and  C_6 
REMARK    4  A    between atoms: N_8  and  C_9 
REMARK    5  A    between atoms: C_9  and  C_10 
REMARK    6  A    between atoms: C_19  and  C_20 
REMARK    7  A    between atoms: C_23  and  O_24 
ROOT
HETATM    1  N   UNL     1      39.944 -12.271  -0.142  1.00  0.00    -0.338 N 
HETATM    2  C   UNL     1      39.403 -13.313  -0.825  1.00  0.00     0.322 C 
HETATM    3  N   UNL     1      39.548 -14.550  -0.272  1.00  0.00    -0.292 N 
HETATM    4  O   UNL     1      38.805 -13.192  -1.892  1.00  0.00    -0.247 OA
HETATM    5  H   UNL     1      40.423 -12.527   0.719  1.00  0.00     0.164 HD
HETATM    6  H   UNL     1      39.147 -15.291  -0.826  1.00  0.00     0.172 HD
ENDROOT
BRANCH   1   7
HETATM    7  C   UNL     1      40.060 -10.919  -0.665  1.00  0.00     0.086 C 
HETATM    8  C   UNL     1      39.024 -10.028   0.016  1.00  0.00     0.032 C 
BRANCH   7   9
HETATM    9  C   UNL     1      41.480 -10.362  -0.441  1.00  0.00     0.063 C 
BRANCH   9  10
HETATM   10  C   UNL     1      41.869  -9.281  -1.426  1.00  0.00    -0.056 A 
HETATM   11  C   UNL     1      41.296  -9.249  -2.706  1.00  0.00     0.010 A 
HETATM   12  C   UNL     1      41.663  -8.261  -3.622  1.00  0.00     0.037 A 
HETATM   13  C   UNL     1      42.608  -7.306  -3.259  1.00  0.00     0.065 A 
HETATM   14  C   UNL     1      43.191  -7.326  -1.998  1.00  0.00     0.037 A 
HETATM   15  C   UNL     1      42.825  -8.315  -1.084  1.00  0.00     0.010 A 
BRANCH  13  16
HETATM   16  O   UNL     1      42.996  -6.327  -4.123  1.00  0.00    -0.361 OA
HETATM   17  H   UNL     1      42.263  -5.697  -4.220  1.00  0.00     0.217 HD
ENDBRANCH  13  16
ENDBRANCH   9  10
ENDBRANCH   7   9
ENDBRANCH   1   7
BRANCH   3  18
HETATM   18  C   UNL     1      40.208 -14.906   0.883  1.00  0.00     0.153 A 
HETATM   19  N   UNL     1      41.539 -14.977   1.013  1.00  0.00    -0.154 NA
HETATM   20  N   UNL     1      41.730 -15.369   2.292  1.00  0.00    -0.275 N 
HETATM   21  C   UNL     1      40.563 -15.530   2.984  1.00  0.00     0.116 A 
HETATM   22  C   UNL     1      39.557 -15.240   2.094  1.00  0.00     0.071 A 
BRANCH  20  23
HETATM   23  C   UNL     1      43.080 -15.509   2.822  1.00  0.00     0.189 C 
BRANCH  23  24
HETATM   24  C   UNL     1      43.400 -16.941   3.166  1.00  0.00    -0.038 A 
HETATM   25  C   UNL     1      43.213 -17.958   2.216  1.00  0.00     0.009 A 
HETATM   26  C   UNL     1      43.503 -19.285   2.532  1.00  0.00     0.001 A 
HETATM   27  C   UNL     1      43.987 -19.611   3.797  1.00  0.00     0.000 A 
HETATM   28  C   UNL     1      44.179 -18.611   4.748  1.00  0.00     0.001 A 
HETATM   29  C   UNL     1      43.885 -17.283   4.437  1.00  0.00     0.009 A 
ENDBRANCH  23  24
ENDBRANCH  20  23
ENDBRANCH   3  18
TORSDOF 7
ENDMDL
MODEL 9
REMARK VINA RESULT:      -7.5      4.234      7.742
REMARK  7 active torsions:
REMARK  status: ('A' for Active; 'I' for Inactive)
REMARK    1  A    between atoms: C_2  and  N_3 
REMARK    2  A    between atoms: C_2  and  C_19 
REMARK       I    between atoms: N_3  and  C_4 
REMARK       I    between atoms: C_4  and  N_5 
REMARK    3  A    between atoms: N_5  and  C_6 
REMARK    4  A    between atoms: N_8  and  C_9 
REMARK    5  A    between atoms: C_9  and  C_10 
REMARK    6  A    between atoms: C_19  and  C_20 
REMARK    7  A    between atoms: C_23  and  O_24 
ROOT
HETATM    1  N   UNL     1      41.501 -12.589   2.434  1.00  0.00    -0.338 N 
HETATM    2  C   UNL     1      42.295 -11.534   2.751  1.00  0.00     0.322 C 
HETATM    3  N   UNL     1      42.127 -10.397   2.019  1.00  0.00    -0.292 N 
HETATM    4  O   UNL     1      43.139 -11.559   3.646  1.00  0.00    -0.247 OA
HETATM    5  H   UNL     1      40.860 -12.424   1.660  1.00  0.00     0.164 HD
HETATM    6  H   UNL     1      42.752  -9.650   2.280  1.00  0.00     0.172 HD
ENDROOT
BRANCH   1   7
HETATM    7  C   UNL     1      41.669 -13.931   2.967  1.00  0.00     0.086 C 
HETATM    8  C   UNL     1      40.330 -14.664   2.913  1.00  0.00     0.032 C 
BRANCH   7   9
HETATM    9  C   UNL     1      42.739 -14.708   2.174  1.00  0.00     0.063 C 
BRANCH   9  10
HETATM   10  C   UNL     1      43.154 -16.007   2.829  1.00  0.00    -0.056 A 
HETATM   11  C   UNL     1      43.180 -17.199   2.090  1.00  0.00     0.010 A 
HETATM   12  C   UNL     1      43.550 -18.401   2.696  1.00  0.00     0.037 A 
HETATM   13  C   UNL     1      43.889 -18.413   4.045  1.00  0.00     0.065 A 
HETATM   14  C   UNL     1      43.863 -17.244   4.795  1.00  0.00     0.037 A 
HETATM   15  C   UNL     1      43.492 -16.043   4.189  1.00  0.00     0.010 A 
BRANCH  13  16
HETATM   16  O   UNL     1      44.253 -19.565   4.676  1.00  0.00    -0.361 OA
HETATM   17  H   UNL     1      44.788 -19.332   5.452  1.00  0.00     0.217 HD
ENDBRANCH  13  16
ENDBRANCH   9  10
ENDBRANCH   7   9
ENDBRANCH   1   7
BRANCH   3  18
HETATM   18  C   UNL     1      41.274 -10.172   0.962  1.00  0.00     0.153 A 
HETATM   19  N   UNL     1      41.443 -10.661  -0.274  1.00  0.00    -0.154 NA
HETATM   20  N   UNL     1      40.390 -10.181  -0.970  1.00  0.00    -0.275 N 
HETATM   21  C   UNL     1      39.547  -9.418  -0.212  1.00  0.00     0.116 A 
HETATM   22  C   UNL     1      40.098  -9.391   1.047  1.00  0.00     0.071 A 
BRANCH  20  23
HETATM   23  C   UNL     1      40.205 -10.550  -2.368  1.00  0.00     0.189 C 
BRANCH  23  24
HETATM   24  C   UNL     1      39.571 -11.911  -2.508  1.00  0.00    -0.038 A 
HETATM   25  C   UNL     1      38.175 -12.052  -2.450  1.00  0.00     0.009 A 
HETATM   26  C   UNL     1      37.585 -13.310  -2.574  1.00  0.00     0.001 A 
HETATM   27  C   UNL     1      38.380 -14.438  -2.761  1.00  0.00     0.000 A 
HETATM   28  C   UNL     1      39.766 -14.311  -2.821  1.00  0.00     0.001 A 
HETATM   29  C   UNL     1      40.360 -13.055  -2.693  1.00  0.00     0.009 A 
ENDBRANCH  23  24
ENDBRANCH  20  23
ENDBRANCH   3  18
TORSDOF 7
ENDMDL
MODEL 10
REMARK VINA RESULT:      -7.5      2.736      5.123
REMARK  7 active torsions:
REMARK  status: ('A' for Active; 'I' for Inactive)
REMARK    1  A    between atoms: C_2  and  N_3 
REMARK    2  A    between atoms: C_2  and  C_19 
REMARK       I    between atoms: N_3  and  C_4 
REMARK       I    between atoms: C_4  and  N_5 
REMARK    3  A    between atoms: N_5  and  C_6 
REMARK    4  A    between atoms: N_8  and  C_9 
REMARK    5  A    between atoms: C_9  and  C_10 
REMARK    6  A    between atoms: C_19  and  C_20 
REMARK    7  A    between atoms: C_23  and  O_24 
ROOT
HETATM    1  N   UNL     1      42.061 -14.549   5.700  1.00  0.00    -0.338 N 
HETATM    2  C   UNL     1      42.711 -14.091   6.802  1.00  0.00     0.322 C 
HETATM    3  N   UNL     1      42.782 -12.739   6.954  1.00  0.00    -0.292 N 
HETATM    4  O   UNL     1      43.225 -14.825   7.644  1.00  0.00    -0.247 OA
HETATM    5  H   UNL     1      41.700 -13.823   5.084  1.00  0.00     0.164 HD
HETATM    6  H   UNL     1      43.290 -12.450   7.776  1.00  0.00     0.172 HD
ENDROOT
BRANCH   1   7
HETATM    7  C   UNL     1      42.053 -15.938   5.271  1.00  0.00     0.086 C 
HETATM    8  C   UNL     1      40.650 -16.307   4.791  1.00  0.00     0.032 C 
BRANCH   7   9
HETATM    9  C   UNL     1      43.084 -16.173   4.148  1.00  0.00     0.063 C 
BRANCH   9  10
HETATM   10  C   UNL     1      43.390 -17.634   3.903  1.00  0.00    -0.056 A 
HETATM   11  C   UNL     1      43.187 -18.199   2.635  1.00  0.00     0.010 A 
HETATM   12  C   UNL     1      43.455 -19.551   2.410  1.00  0.00     0.037 A 
HETATM   13  C   UNL     1      43.922 -20.340   3.455  1.00  0.00     0.065 A 
HETATM   14  C   UNL     1      44.123 -19.800   4.719  1.00  0.00     0.037 A 
HETATM   15  C   UNL     1      43.853 -18.450   4.944  1.00  0.00     0.010 A 
BRANCH  13  16
HETATM   16  O   UNL     1      44.194 -21.664   3.279  1.00  0.00    -0.361 OA
HETATM   17  H   UNL     1      44.273 -22.078   4.154  1.00  0.00     0.217 HD
ENDBRANCH  13  16
ENDBRANCH   9  10
ENDBRANCH   7   9
ENDBRANCH   1   7
BRANCH   3  18
HETATM   18  C   UNL     1      42.310 -11.752   6.118  1.00  0.00     0.153 A 
HETATM   19  N   UNL     1      41.017 -11.451   5.944  1.00  0.00    -0.154 NA
HETATM   20  N   UNL     1      41.026 -10.446   5.042  1.00  0.00    -0.275 N 
HETATM   21  C   UNL     1      42.284 -10.085   4.652  1.00  0.00     0.116 A 
HETATM   22  C   UNL     1      43.140 -10.919   5.332  1.00  0.00     0.071 A 
BRANCH  20  23
HETATM   23  C   UNL     1      39.777  -9.813   4.636  1.00  0.00     0.189 C 
BRANCH  23  24
HETATM   24  C   UNL     1      39.401 -10.175   3.222  1.00  0.00    -0.038 A 
HETATM   25  C   UNL     1      38.911 -11.456   2.924  1.00  0.00     0.009 A 
HETATM   26  C   UNL     1      38.567 -11.797   1.615  1.00  0.00     0.001 A 
HETATM   27  C   UNL     1      38.703 -10.860   0.593  1.00  0.00     0.000 A 
HETATM   28  C   UNL     1      39.187  -9.585   0.876  1.00  0.00     0.001 A 
HETATM   29  C   UNL     1      39.536  -9.243   2.183  1.00  0.00     0.009 A 
ENDBRANCH  23  24
ENDBRANCH  20  23
ENDBRANCH   3  18
TORSDOF 7
ENDMDL
