MODEL 1
REMARK VINA RESULT:      -9.1      0.000      0.000
REMARK  6 active torsions:
REMARK  status: ('A' for Active; 'I' for Inactive)
REMARK    1  A    between atoms: C_6  and  C_7 
REMARK    2  A    between atoms: C_10  and  O_11 
REMARK    3  A    between atoms: C_15  and  C_16 
REMARK    4  A    between atoms: C_16  and  C_17 
REMARK       I    between atoms: C_17  and  N_18 
REMARK    5  A    between atoms: N_18  and  C_19 
REMARK    6  A    between atoms: C_19  and  C_20 
ROOT
HETATM    1  C   UNL     1      42.753 -13.538   2.477  1.00  0.00     0.146 C 
ENDROOT
BRANCH   1   2
HETATM    2  C   UNL     1      41.636 -14.407   1.999  1.00  0.00     0.006 A 
HETATM    3  C   UNL     1      40.536 -13.974   1.275  1.00  0.00     0.033 A 
HETATM    4  C   UNL     1      40.137 -12.637   0.773  1.00  0.00     0.070 C 
HETATM    5  N   UNL     1      39.774 -15.082   1.056  1.00  0.00    -0.282 N 
HETATM    6  H   UNL     1      38.896 -15.152   0.552  1.00  0.00     0.189 HD
HETATM    7  N   UNL     1      40.276 -16.191   1.600  1.00  0.00    -0.173 NA
HETATM    8  C   UNL     1      41.438 -15.820   2.164  1.00  0.00     0.096 A 
BRANCH   8   9
HETATM    9  C   UNL     1      42.262 -16.832   2.845  1.00  0.00    -0.005 A 
HETATM   10  C   UNL     1      42.485 -16.817   4.225  1.00  0.00     0.016 A 
HETATM   11  C   UNL     1      43.290 -17.791   4.830  1.00  0.00     0.037 A 
HETATM   12  C   UNL     1      43.914 -18.777   4.066  1.00  0.00     0.068 A 
HETATM   13  C   UNL     1      43.700 -18.806   2.691  1.00  0.00     0.037 A 
HETATM   14  C   UNL     1      42.880 -17.842   2.091  1.00  0.00     0.016 A 
BRANCH  12  15
HETATM   15  O   UNL     1      44.693 -19.652   4.772  1.00  0.00    -0.356 OA
HETATM   16  C   UNL     1      44.051 -20.838   5.226  1.00  0.00     0.210 C 
ENDBRANCH  12  15
ENDBRANCH   8   9
ENDBRANCH   1   2
BRANCH   1  17
HETATM   17  C   UNL     1      42.581 -12.964   3.873  1.00  0.00     0.222 C 
HETATM   18  N   UNL     1      43.081 -13.716   4.909  1.00  0.00    -0.350 N 
HETATM   19  H   UNL     1      43.646 -14.535   4.716  1.00  0.00     0.163 HD
HETATM   20  O   UNL     1      41.944 -11.927   4.055  1.00  0.00    -0.273 OA
BRANCH  18  21
HETATM   21  C   UNL     1      42.742 -13.441   6.296  1.00  0.00     0.150 C 
HETATM   22  C   UNL     1      43.069 -14.667   7.145  1.00  0.00     0.040 C 
BRANCH  21  23
HETATM   23  C   UNL     1      43.478 -12.221   6.758  1.00  0.00     0.127 A 
HETATM   24  N   UNL     1      44.780 -12.090   6.927  1.00  0.00    -0.231 NA
HETATM   25  C   UNL     1      44.960 -10.861   7.509  1.00  0.00     0.085 A 
HETATM   26  C   UNL     1      43.745 -10.203   7.662  1.00  0.00     0.062 A 
HETATM   27  C   UNL     1      46.138 -10.244   7.954  1.00  0.00     0.034 A 
HETATM   28  N   UNL     1      42.819 -11.078   7.157  1.00  0.00    -0.341 N 
HETATM   29  C   UNL     1      43.630  -8.935   8.237  1.00  0.00     0.032 A 
HETATM   30  H   UNL     1      41.818 -10.938   7.122  1.00  0.00     0.167 HD
HETATM   31  C   UNL     1      44.817  -8.336   8.681  1.00  0.00     0.002 A 
HETATM   32  C   UNL     1      46.051  -8.978   8.544  1.00  0.00     0.002 A 
ENDBRANCH  21  23
ENDBRANCH  18  21
ENDBRANCH   1  17
TORSDOF 6
ENDMDL
MODEL 2
REMARK VINA RESULT:      -8.8      1.974      2.597
REMARK  6 active torsions:
REMARK  status: ('A' for Active; 'I' for Inactive)
REMARK    1  A    between atoms: C_6  and  C_7 
REMARK    2  A    between atoms: C_10  and  O_11 
REMARK    3  A    between atoms: C_15  and  C_16 
REMARK    4  A    between atoms: C_16  and  C_17 
REMARK       I    between atoms: C_17  and  N_18 
REMARK    5  A    between atoms: N_18  and  C_19 
REMARK    6  A    between atoms: C_19  and  C_20 
ROOT
HETATM    1  C   UNL     1      41.773 -14.087   5.503  1.00  0.00     0.146 C 
ENDROOT
BRANCH   1   2
HETATM    2  C   UNL     1      42.137 -13.931   4.062  1.00  0.00     0.006 A 
HETATM    3  C   UNL     1      41.989 -12.770   3.318  1.00  0.00     0.033 A 
HETATM    4  C   UNL     1      41.477 -11.423   3.666  1.00  0.00     0.070 C 
HETATM    5  N   UNL     1      42.436 -13.070   2.067  1.00  0.00    -0.282 N 
HETATM    6  H   UNL     1      42.486 -12.462   1.255  1.00  0.00     0.189 HD
HETATM    7  N   UNL     1      42.836 -14.334   1.931  1.00  0.00    -0.173 NA
HETATM    8  C   UNL     1      42.696 -14.888   3.147  1.00  0.00     0.096 A 
BRANCH   8   9
HETATM    9  C   UNL     1      43.074 -16.297   3.344  1.00  0.00    -0.005 A 
HETATM   10  C   UNL     1      43.693 -16.755   4.510  1.00  0.00     0.016 A 
HETATM   11  C   UNL     1      44.050 -18.103   4.647  1.00  0.00     0.037 A 
HETATM   12  C   UNL     1      43.829 -19.010   3.611  1.00  0.00     0.068 A 
HETATM   13  C   UNL     1      43.212 -18.569   2.444  1.00  0.00     0.037 A 
HETATM   14  C   UNL     1      42.839 -17.225   2.317  1.00  0.00     0.016 A 
BRANCH  12  15
HETATM   15  O   UNL     1      44.246 -20.288   3.860  1.00  0.00    -0.356 OA
HETATM   16  C   UNL     1      44.306 -20.674   5.229  1.00  0.00     0.210 C 
ENDBRANCH  12  15
ENDBRANCH   8   9
ENDBRANCH   1   2
BRANCH   1  17
HETATM   17  C   UNL     1      42.859 -13.705   6.493  1.00  0.00     0.222 C 
HETATM   18  N   UNL     1      43.365 -12.432   6.384  1.00  0.00    -0.350 N 
HETATM   19  H   UNL     1      42.929 -11.763   5.759  1.00  0.00     0.163 HD
HETATM   20  O   UNL     1      43.312 -14.531   7.284  1.00  0.00    -0.273 OA
BRANCH  18  21
HETATM   21  C   UNL     1      44.585 -12.026   7.062  1.00  0.00     0.150 C 
HETATM   22  C   UNL     1      45.553 -11.433   6.041  1.00  0.00     0.040 C 
BRANCH  21  23
HETATM   23  C   UNL     1      44.252 -11.058   8.154  1.00  0.00     0.127 A 
HETATM   24  N   UNL     1      45.004 -10.731   9.188  1.00  0.00    -0.231 NA
HETATM   25  C   UNL     1      44.217  -9.941   9.988  1.00  0.00     0.085 A 
HETATM   26  C   UNL     1      42.967  -9.743   9.413  1.00  0.00     0.062 A 
HETATM   27  C   UNL     1      44.498  -9.369  11.237  1.00  0.00     0.034 A 
HETATM   28  N   UNL     1      43.020 -10.445   8.237  1.00  0.00    -0.341 N 
HETATM   29  C   UNL     1      41.960  -8.986  10.016  1.00  0.00     0.032 A 
HETATM   30  H   UNL     1      42.273 -10.541   7.561  1.00  0.00     0.167 HD
HETATM   31  C   UNL     1      42.257  -8.427  11.266  1.00  0.00     0.002 A 
HETATM   32  C   UNL     1      43.503  -8.614  11.869  1.00  0.00     0.002 A 
ENDBRANCH  21  23
ENDBRANCH  18  21
ENDBRANCH   1  17
TORSDOF 6
ENDMDL
MODEL 3
REMARK VINA RESULT:      -8.7      2.675      5.733
REMARK  6 active torsions:
REMARK  status: ('A' for Active; 'I' for Inactive)
REMARK    1  A    between atoms: C_6  and  C_7 
REMARK    2  A    between atoms: C_10  and  O_11 
REMARK    3  A    between atoms: C_15  and  C_16 
REMARK    4  A    between atoms: C_16  and  C_17 
REMARK       I    between atoms: C_17  and  N_18 
REMARK    5  A    between atoms: N_18  and  C_19 
REMARK    6  A    between atoms: C_19  and  C_20 
ROOT
HETATM    1  C   UNL     1      44.200 -17.533   5.222  1.00  0.00     0.146 C 
ENDROOT
BRANCH   1   2
HETATM    2  C   UNL     1      43.809 -18.458   4.115  1.00  0.00     0.006 A 
HETATM    3  C   UNL     1      43.998 -19.831   4.111  1.00  0.00     0.033 A 
HETATM    4  C   UNL     1      44.589 -20.758   5.107  1.00  0.00     0.070 C 
HETATM    5  N   UNL     1      43.505 -20.272   2.921  1.00  0.00    -0.282 N 
HETATM    6  H   UNL     1      43.467 -21.224   2.571  1.00  0.00     0.189 HD
HETATM    7  N   UNL     1      43.036 -19.297   2.142  1.00  0.00    -0.173 NA
HETATM    8  C   UNL     1      43.178 -18.168   2.857  1.00  0.00     0.096 A 
BRANCH   8   9
HETATM    9  C   UNL     1      42.732 -16.890   2.278  1.00  0.00    -0.005 A 
HETATM   10  C   UNL     1      43.607 -15.827   2.037  1.00  0.00     0.016 A 
HETATM   11  C   UNL     1      43.135 -14.621   1.499  1.00  0.00     0.037 A 
HETATM   12  C   UNL     1      41.779 -14.443   1.227  1.00  0.00     0.068 A 
HETATM   13  C   UNL     1      40.897 -15.493   1.461  1.00  0.00     0.037 A 
HETATM   14  C   UNL     1      41.373 -16.703   1.980  1.00  0.00     0.016 A 
BRANCH  12  15
HETATM   15  O   UNL     1      41.444 -13.214   0.729  1.00  0.00    -0.356 OA
HETATM   16  C   UNL     1      40.455 -13.198  -0.293  1.00  0.00     0.210 C 
ENDBRANCH  12  15
ENDBRANCH   8   9
ENDBRANCH   1   2
BRANCH   1  17
HETATM   17  C   UNL     1      43.154 -16.503   5.610  1.00  0.00     0.222 C 
HETATM   18  N   UNL     1      43.582 -15.201   5.699  1.00  0.00    -0.350 N 
HETATM   19  H   UNL     1      44.513 -14.949   5.388  1.00  0.00     0.163 HD
HETATM   20  O   UNL     1      42.012 -16.847   5.914  1.00  0.00    -0.273 OA
BRANCH  18  21
HETATM   21  C   UNL     1      42.778 -14.166   6.328  1.00  0.00     0.150 C 
HETATM   22  C   UNL     1      43.690 -13.236   7.125  1.00  0.00     0.040 C 
BRANCH  21  23
HETATM   23  C   UNL     1      41.999 -13.432   5.280  1.00  0.00     0.127 A 
HETATM   24  N   UNL     1      42.304 -12.274   4.723  1.00  0.00    -0.231 NA
HETATM   25  C   UNL     1      41.221 -11.936   3.951  1.00  0.00     0.085 A 
HETATM   26  C   UNL     1      40.247 -12.926   4.000  1.00  0.00     0.062 A 
HETATM   27  C   UNL     1      40.991 -10.781   3.189  1.00  0.00     0.034 A 
HETATM   28  N   UNL     1      40.774 -13.877   4.834  1.00  0.00    -0.341 N 
HETATM   29  C   UNL     1      39.034 -12.839   3.314  1.00  0.00     0.032 A 
HETATM   30  H   UNL     1      40.327 -14.741   5.116  1.00  0.00     0.167 HD
HETATM   31  C   UNL     1      38.818 -11.676   2.563  1.00  0.00     0.002 A 
HETATM   32  C   UNL     1      39.778 -10.662   2.500  1.00  0.00     0.002 A 
ENDBRANCH  21  23
ENDBRANCH  18  21
ENDBRANCH   1  17
TORSDOF 6
ENDMDL
MODEL 4
REMARK VINA RESULT:      -8.5      3.044      4.644
REMARK  6 active torsions:
REMARK  status: ('A' for Active; 'I' for Inactive)
REMARK    1  A    between atoms: C_6  and  C_7 
REMARK    2  A    between atoms: C_10  and  O_11 
REMARK    3  A    between atoms: C_15  and  C_16 
REMARK    4  A    between atoms: C_16  and  C_17 
REMARK       I    between atoms: C_17  and  N_18 
REMARK    5  A    between atoms: N_18  and  C_19 
REMARK    6  A    between atoms: C_19  and  C_20 
ROOT
HETATM    1  C   UNL     1      43.371 -11.471   5.649  1.00  0.00     0.146 C 
ENDROOT
BRANCH   1   2
HETATM    2  C   UNL     1      42.046 -12.120   5.889  1.00  0.00     0.006 A 
HETATM    3  C   UNL     1      40.878 -11.458   6.232  1.00  0.00     0.033 A 
HETATM    4  C   UNL     1      40.574 -10.023   6.450  1.00  0.00     0.070 C 
HETATM    5  N   UNL     1      39.925 -12.423   6.356  1.00  0.00    -0.282 N 
HETATM    6  H   UNL     1      38.943 -12.311   6.591  1.00  0.00     0.189 HD
HETATM    7  N   UNL     1      40.383 -13.657   6.148  1.00  0.00    -0.173 NA
HETATM    8  C   UNL     1      41.680 -13.508   5.827  1.00  0.00     0.096 A 
BRANCH   8   9
HETATM    9  C   UNL     1      42.485 -14.701   5.516  1.00  0.00    -0.005 A 
HETATM   10  C   UNL     1      42.272 -15.477   4.374  1.00  0.00     0.016 A 
HETATM   11  C   UNL     1      43.052 -16.615   4.126  1.00  0.00     0.037 A 
HETATM   12  C   UNL     1      44.034 -17.018   5.031  1.00  0.00     0.068 A 
HETATM   13  C   UNL     1      44.259 -16.254   6.172  1.00  0.00     0.037 A 
HETATM   14  C   UNL     1      43.491 -15.107   6.408  1.00  0.00     0.016 A 
BRANCH  12  15
HETATM   15  O   UNL     1      44.707 -18.157   4.686  1.00  0.00    -0.356 OA
HETATM   16  C   UNL     1      44.184 -18.886   3.582  1.00  0.00     0.210 C 
ENDBRANCH  12  15
ENDBRANCH   8   9
ENDBRANCH   1   2
BRANCH   1  17
HETATM   17  C   UNL     1      44.300 -11.425   6.850  1.00  0.00     0.222 C 
HETATM   18  N   UNL     1      43.907 -10.627   7.897  1.00  0.00    -0.350 N 
HETATM   19  H   UNL     1      42.983 -10.211   7.900  1.00  0.00     0.163 HD
HETATM   20  O   UNL     1      45.385 -12.005   6.830  1.00  0.00    -0.273 OA
BRANCH  18  21
HETATM   21  C   UNL     1      44.814 -10.264   8.973  1.00  0.00     0.150 C 
HETATM   22  C   UNL     1      45.797  -9.211   8.466  1.00  0.00     0.040 C 
BRANCH  21  23
HETATM   23  C   UNL     1      44.026  -9.781  10.151  1.00  0.00     0.127 A 
HETATM   24  N   UNL     1      44.318  -8.770  10.947  1.00  0.00    -0.231 NA
HETATM   25  C   UNL     1      43.397  -8.816  11.962  1.00  0.00     0.085 A 
HETATM   26  C   UNL     1      42.492  -9.852  11.765  1.00  0.00     0.062 A 
HETATM   27  C   UNL     1      43.283  -8.011  13.106  1.00  0.00     0.034 A 
HETATM   28  N   UNL     1      42.899 -10.438  10.595  1.00  0.00    -0.341 N 
HETATM   29  C   UNL     1      41.450 -10.137  12.651  1.00  0.00     0.032 A 
HETATM   30  H   UNL     1      42.478 -11.244  10.150  1.00  0.00     0.167 HD
HETATM   31  C   UNL     1      41.355  -9.326  13.790  1.00  0.00     0.002 A 
HETATM   32  C   UNL     1      42.255  -8.281  14.016  1.00  0.00     0.002 A 
ENDBRANCH  21  23
ENDBRANCH  18  21
ENDBRANCH   1  17
TORSDOF 6
ENDMDL
MODEL 5
REMARK VINA RESULT:      -8.4      3.335      8.119
REMARK  6 active torsions:
REMARK  status: ('A' for Active; 'I' for Inactive)
REMARK    1  A    between atoms: C_6  and  C_7 
REMARK    2  A    between atoms: C_10  and  O_11 
REMARK    3  A    between atoms: C_15  and  C_16 
REMARK    4  A    between atoms: C_16  and  C_17 
REMARK       I    between atoms: C_17  and  N_18 
REMARK    5  A    between atoms: N_18  and  C_19 
REMARK    6  A    between atoms: C_19  and  C_20 
ROOT
HETATM    1  C   UNL     1      43.129 -16.498   1.982  1.00  0.00     0.146 C 
ENDROOT
BRANCH   1   2
HETATM    2  C   UNL     1      43.270 -17.112   3.337  1.00  0.00     0.006 A 
HETATM    3  C   UNL     1      43.739 -18.390   3.595  1.00  0.00     0.033 A 
HETATM    4  C   UNL     1      44.219 -19.473   2.703  1.00  0.00     0.070 C 
HETATM    5  N   UNL     1      43.698 -18.537   4.948  1.00  0.00    -0.282 N 
HETATM    6  H   UNL     1      43.972 -19.343   5.502  1.00  0.00     0.189 HD
HETATM    7  N   UNL     1      43.216 -17.471   5.587  1.00  0.00    -0.173 NA
HETATM    8  C   UNL     1      42.971 -16.560   4.630  1.00  0.00     0.096 A 
BRANCH   8   9
HETATM    9  C   UNL     1      42.439 -15.242   5.012  1.00  0.00    -0.005 A 
HETATM   10  C   UNL     1      41.107 -15.047   5.389  1.00  0.00     0.016 A 
HETATM   11  C   UNL     1      40.640 -13.770   5.729  1.00  0.00     0.037 A 
HETATM   12  C   UNL     1      41.482 -12.661   5.665  1.00  0.00     0.068 A 
HETATM   13  C   UNL     1      42.811 -12.839   5.292  1.00  0.00     0.037 A 
HETATM   14  C   UNL     1      43.281 -14.119   4.971  1.00  0.00     0.016 A 
BRANCH  12  15
HETATM   15  O   UNL     1      40.898 -11.470   5.997  1.00  0.00    -0.356 OA
HETATM   16  C   UNL     1      39.847 -11.026   5.146  1.00  0.00     0.210 C 
ENDBRANCH  12  15
ENDBRANCH   8   9
ENDBRANCH   1   2
BRANCH   1  17
HETATM   17  C   UNL     1      41.911 -15.611   1.793  1.00  0.00     0.222 C 
HETATM   18  N   UNL     1      42.155 -14.290   1.506  1.00  0.00    -0.350 N 
HETATM   19  H   UNL     1      43.098 -13.978   1.306  1.00  0.00     0.163 HD
HETATM   20  O   UNL     1      40.776 -16.049   1.979  1.00  0.00    -0.273 OA
BRANCH  18  21
HETATM   21  C   UNL     1      41.112 -13.279   1.581  1.00  0.00     0.150 C 
HETATM   22  C   UNL     1      41.755 -11.912   1.808  1.00  0.00     0.040 C 
BRANCH  21  23
HETATM   23  C   UNL     1      40.289 -13.316   0.331  1.00  0.00     0.127 A 
HETATM   24  N   UNL     1      39.267 -12.540   0.025  1.00  0.00    -0.231 NA
HETATM   25  C   UNL     1      38.743 -13.053  -1.135  1.00  0.00     0.085 A 
HETATM   26  C   UNL     1      39.484 -14.144  -1.574  1.00  0.00     0.062 A 
HETATM   27  C   UNL     1      37.615 -12.648  -1.864  1.00  0.00     0.034 A 
HETATM   28  N   UNL     1      40.475 -14.279  -0.638  1.00  0.00    -0.341 N 
HETATM   29  C   UNL     1      39.169 -14.867  -2.728  1.00  0.00     0.032 A 
HETATM   30  H   UNL     1      41.197 -14.988  -0.627  1.00  0.00     0.167 HD
HETATM   31  C   UNL     1      38.037 -14.452  -3.440  1.00  0.00     0.002 A 
HETATM   32  C   UNL     1      37.270 -13.362  -3.018  1.00  0.00     0.002 A 
ENDBRANCH  21  23
ENDBRANCH  18  21
ENDBRANCH   1  17
TORSDOF 6
ENDMDL
MODEL 6
REMARK VINA RESULT:      -8.2      2.472      7.327
REMARK  6 active torsions:
REMARK  status: ('A' for Active; 'I' for Inactive)
REMARK    1  A    between atoms: C_6  and  C_7 
REMARK    2  A    between atoms: C_10  and  O_11 
REMARK    3  A    between atoms: C_15  and  C_16 
REMARK    4  A    between atoms: C_16  and  C_17 
REMARK       I    between atoms: C_17  and  N_18 
REMARK    5  A    between atoms: N_18  and  C_19 
REMARK    6  A    between atoms: C_19  and  C_20 
ROOT
HETATM    1  C   UNL     1      43.096 -12.651   3.496  1.00  0.00     0.146 C 
ENDROOT
BRANCH   1   2
HETATM    2  C   UNL     1      43.029 -13.297   4.842  1.00  0.00     0.006 A 
HETATM    3  C   UNL     1      43.003 -12.626   6.054  1.00  0.00     0.033 A 
HETATM    4  C   UNL     1      43.025 -11.183   6.394  1.00  0.00     0.070 C 
HETATM    5  N   UNL     1      42.946 -13.591   7.014  1.00  0.00    -0.282 N 
HETATM    6  H   UNL     1      42.907 -13.474   8.021  1.00  0.00     0.189 HD
HETATM    7  N   UNL     1      42.959 -14.831   6.525  1.00  0.00    -0.173 NA
HETATM    8  C   UNL     1      42.978 -14.691   5.189  1.00  0.00     0.096 A 
BRANCH   8   9
HETATM    9  C   UNL     1      42.980 -15.892   4.339  1.00  0.00    -0.005 A 
HETATM   10  C   UNL     1      42.153 -16.025   3.220  1.00  0.00     0.016 A 
HETATM   11  C   UNL     1      42.175 -17.195   2.449  1.00  0.00     0.037 A 
HETATM   12  C   UNL     1      42.996 -18.266   2.800  1.00  0.00     0.068 A 
HETATM   13  C   UNL     1      43.826 -18.149   3.911  1.00  0.00     0.037 A 
HETATM   14  C   UNL     1      43.816 -16.971   4.669  1.00  0.00     0.016 A 
BRANCH  12  15
HETATM   15  O   UNL     1      42.907 -19.358   1.982  1.00  0.00    -0.356 OA
HETATM   16  C   UNL     1      43.887 -20.371   2.176  1.00  0.00     0.210 C 
ENDBRANCH  12  15
ENDBRANCH   8   9
ENDBRANCH   1   2
BRANCH   1  17
HETATM   17  C   UNL     1      41.762 -12.209   2.919  1.00  0.00     0.222 C 
HETATM   18  N   UNL     1      41.812 -11.453   1.773  1.00  0.00    -0.350 N 
HETATM   19  H   UNL     1      42.692 -11.326   1.285  1.00  0.00     0.163 HD
HETATM   20  O   UNL     1      40.709 -12.445   3.510  1.00  0.00    -0.273 OA
BRANCH  18  21
HETATM   21  C   UNL     1      40.654 -10.729   1.275  1.00  0.00     0.150 C 
HETATM   22  C   UNL     1      41.078  -9.316   0.880  1.00  0.00     0.040 C 
BRANCH  21  23
HETATM   23  C   UNL     1      40.050 -11.480   0.128  1.00  0.00     0.127 A 
HETATM   24  N   UNL     1      38.803 -11.418  -0.298  1.00  0.00    -0.231 NA
HETATM   25  C   UNL     1      38.687 -12.393  -1.257  1.00  0.00     0.085 A 
HETATM   26  C   UNL     1      39.901 -13.040  -1.455  1.00  0.00     0.062 A 
HETATM   27  C   UNL     1      37.563 -12.797  -1.992  1.00  0.00     0.034 A 
HETATM   28  N   UNL     1      40.758 -12.428  -0.578  1.00  0.00    -0.341 N 
HETATM   29  C   UNL     1      40.070 -14.084  -2.368  1.00  0.00     0.032 A 
HETATM   30  H   UNL     1      41.734 -12.656  -0.435  1.00  0.00     0.167 HD
HETATM   31  C   UNL     1      38.936 -14.478  -3.089  1.00  0.00     0.002 A 
HETATM   32  C   UNL     1      37.702 -13.848  -2.906  1.00  0.00     0.002 A 
ENDBRANCH  21  23
ENDBRANCH  18  21
ENDBRANCH   1  17
TORSDOF 6
ENDMDL
MODEL 7
REMARK VINA RESULT:      -8.2      3.175      7.496
REMARK  6 active torsions:
REMARK  status: ('A' for Active; 'I' for Inactive)
REMARK    1  A    between atoms: C_6  and  C_7 
REMARK    2  A    between atoms: C_10  and  O_11 
REMARK    3  A    between atoms: C_15  and  C_16 
REMARK    4  A    between atoms: C_16  and  C_17 
REMARK       I    between atoms: C_17  and  N_18 
REMARK    5  A    between atoms: N_18  and  C_19 
REMARK    6  A    between atoms: C_19  and  C_20 
ROOT
HETATM    1  C   UNL     1      40.981 -12.876   3.512  1.00  0.00     0.146 C 
ENDROOT
BRANCH   1   2
HETATM    2  C   UNL     1      41.166 -11.553   2.843  1.00  0.00     0.006 A 
HETATM    3  C   UNL     1      41.504 -10.370   3.482  1.00  0.00     0.033 A 
HETATM    4  C   UNL     1      41.775 -10.049   4.904  1.00  0.00     0.070 C 
HETATM    5  N   UNL     1      41.563  -9.422   2.506  1.00  0.00    -0.282 N 
HETATM    6  H   UNL     1      41.789  -8.437   2.599  1.00  0.00     0.189 HD
HETATM    7  N   UNL     1      41.266  -9.886   1.292  1.00  0.00    -0.173 NA
HETATM    8  C   UNL     1      41.046 -11.202   1.455  1.00  0.00     0.096 A 
BRANCH   8   9
HETATM    9  C   UNL     1      40.706 -12.025   0.283  1.00  0.00    -0.005 A 
HETATM   10  C   UNL     1      40.347 -13.372   0.385  1.00  0.00     0.016 A 
HETATM   11  C   UNL     1      40.047 -14.121  -0.760  1.00  0.00     0.037 A 
HETATM   12  C   UNL     1      40.134 -13.551  -2.030  1.00  0.00     0.068 A 
HETATM   13  C   UNL     1      40.489 -12.211  -2.148  1.00  0.00     0.037 A 
HETATM   14  C   UNL     1      40.770 -11.458  -1.001  1.00  0.00     0.016 A 
BRANCH  12  15
HETATM   15  O   UNL     1      39.841 -14.395  -3.065  1.00  0.00    -0.356 OA
HETATM   16  C   UNL     1      38.621 -15.119  -2.960  1.00  0.00     0.210 C 
ENDBRANCH  12  15
ENDBRANCH   8   9
ENDBRANCH   1   2
BRANCH   1  17
HETATM   17  C   UNL     1      42.254 -13.671   3.747  1.00  0.00     0.222 C 
HETATM   18  N   UNL     1      42.214 -14.606   4.753  1.00  0.00    -0.350 N 
HETATM   19  H   UNL     1      41.336 -14.828   5.206  1.00  0.00     0.163 HD
HETATM   20  O   UNL     1      43.283 -13.414   3.122  1.00  0.00    -0.273 OA
BRANCH  18  21
HETATM   21  C   UNL     1      43.420 -15.229   5.274  1.00  0.00     0.150 C 
HETATM   22  C   UNL     1      43.322 -15.315   6.796  1.00  0.00     0.040 C 
BRANCH  21  23
HETATM   23  C   UNL     1      43.601 -16.575   4.643  1.00  0.00     0.127 A 
HETATM   24  N   UNL     1      43.365 -16.906   3.387  1.00  0.00    -0.231 NA
HETATM   25  C   UNL     1      43.522 -18.267   3.325  1.00  0.00     0.085 A 
HETATM   26  C   UNL     1      43.904 -18.780   4.559  1.00  0.00     0.062 A 
HETATM   27  C   UNL     1      43.335 -19.142   2.244  1.00  0.00     0.034 A 
HETATM   28  N   UNL     1      43.968 -17.682   5.376  1.00  0.00    -0.341 N 
HETATM   29  C   UNL     1      44.124 -20.141   4.786  1.00  0.00     0.032 A 
HETATM   30  H   UNL     1      44.200 -17.681   6.361  1.00  0.00     0.167 HD
HETATM   31  C   UNL     1      43.928 -21.000   3.696  1.00  0.00     0.002 A 
HETATM   32  C   UNL     1      43.539 -20.512   2.446  1.00  0.00     0.002 A 
ENDBRANCH  21  23
ENDBRANCH  18  21
ENDBRANCH   1  17
TORSDOF 6
ENDMDL
MODEL 8
REMARK VINA RESULT:      -8.2      1.543      2.262
REMARK  6 active torsions:
REMARK  status: ('A' for Active; 'I' for Inactive)
REMARK    1  A    between atoms: C_6  and  C_7 
REMARK    2  A    between atoms: C_10  and  O_11 
REMARK    3  A    between atoms: C_15  and  C_16 
REMARK    4  A    between atoms: C_16  and  C_17 
REMARK       I    between atoms: C_17  and  N_18 
REMARK    5  A    between atoms: N_18  and  C_19 
REMARK    6  A    between atoms: C_19  and  C_20 
ROOT
HETATM    1  C   UNL     1      42.196 -13.015   3.461  1.00  0.00     0.146 C 
ENDROOT
BRANCH   1   2
HETATM    2  C   UNL     1      41.046 -13.886   3.072  1.00  0.00     0.006 A 
HETATM    3  C   UNL     1      39.808 -13.436   2.640  1.00  0.00     0.033 A 
HETATM    4  C   UNL     1      39.260 -12.074   2.433  1.00  0.00     0.070 C 
HETATM    5  N   UNL     1      39.068 -14.555   2.399  1.00  0.00    -0.282 N 
HETATM    6  H   UNL     1      38.112 -14.615   2.064  1.00  0.00     0.189 HD
HETATM    7  N   UNL     1      39.714 -15.690   2.663  1.00  0.00    -0.173 NA
HETATM    8  C   UNL     1      40.947 -15.320   3.051  1.00  0.00     0.096 A 
BRANCH   8   9
HETATM    9  C   UNL     1      41.932 -16.355   3.403  1.00  0.00    -0.005 A 
HETATM   10  C   UNL     1      42.397 -16.539   4.708  1.00  0.00     0.016 A 
HETATM   11  C   UNL     1      43.348 -17.528   4.996  1.00  0.00     0.037 A 
HETATM   12  C   UNL     1      43.877 -18.326   3.982  1.00  0.00     0.068 A 
HETATM   13  C   UNL     1      43.422 -18.156   2.678  1.00  0.00     0.037 A 
HETATM   14  C   UNL     1      42.458 -17.180   2.396  1.00  0.00     0.016 A 
BRANCH  12  15
HETATM   15  O   UNL     1      44.814 -19.235   4.389  1.00  0.00    -0.356 OA
HETATM   16  C   UNL     1      44.317 -20.419   5.002  1.00  0.00     0.210 C 
ENDBRANCH  12  15
ENDBRANCH   8   9
ENDBRANCH   1   2
BRANCH   1  17
HETATM   17  C   UNL     1      42.321 -12.728   4.948  1.00  0.00     0.222 C 
HETATM   18  N   UNL     1      43.292 -11.828   5.317  1.00  0.00    -0.350 N 
HETATM   19  H   UNL     1      43.791 -11.300   4.610  1.00  0.00     0.163 HD
HETATM   20  O   UNL     1      41.644 -13.345   5.769  1.00  0.00    -0.273 OA
BRANCH  18  21
HETATM   21  C   UNL     1      43.714 -11.673   6.699  1.00  0.00     0.150 C 
HETATM   22  C   UNL     1      45.231 -11.829   6.780  1.00  0.00     0.040 C 
BRANCH  21  23
HETATM   23  C   UNL     1      43.254 -10.346   7.217  1.00  0.00     0.127 A 
HETATM   24  N   UNL     1      42.414  -9.510   6.636  1.00  0.00    -0.231 NA
HETATM   25  C   UNL     1      42.429  -8.372   7.404  1.00  0.00     0.085 A 
HETATM   26  C   UNL     1      43.264  -8.527   8.504  1.00  0.00     0.062 A 
HETATM   27  C   UNL     1      41.764  -7.152   7.210  1.00  0.00     0.034 A 
HETATM   28  N   UNL     1      43.760  -9.798   8.376  1.00  0.00    -0.341 N 
HETATM   29  C   UNL     1      43.475  -7.522   9.450  1.00  0.00     0.032 A 
HETATM   30  H   UNL     1      44.421 -10.249   8.995  1.00  0.00     0.167 HD
HETATM   31  C   UNL     1      42.808  -6.308   9.238  1.00  0.00     0.002 A 
HETATM   32  C   UNL     1      41.967  -6.124   8.137  1.00  0.00     0.002 A 
ENDBRANCH  21  23
ENDBRANCH  18  21
ENDBRANCH   1  17
TORSDOF 6
ENDMDL
MODEL 9
REMARK VINA RESULT:      -8.1      2.018      4.674
REMARK  6 active torsions:
REMARK  status: ('A' for Active; 'I' for Inactive)
REMARK    1  A    between atoms: C_6  and  C_7 
REMARK    2  A    between atoms: C_10  and  O_11 
REMARK    3  A    between atoms: C_15  and  C_16 
REMARK    4  A    between atoms: C_16  and  C_17 
REMARK       I    between atoms: C_17  and  N_18 
REMARK    5  A    between atoms: N_18  and  C_19 
REMARK    6  A    between atoms: C_19  and  C_20 
ROOT
HETATM    1  C   UNL     1      42.096 -15.621   5.486  1.00  0.00     0.146 C 
ENDROOT
BRANCH   1   2
HETATM    2  C   UNL     1      42.596 -16.625   4.499  1.00  0.00     0.006 A 
HETATM    3  C   UNL     1      43.331 -17.760   4.809  1.00  0.00     0.033 A 
HETATM    4  C   UNL     1      43.816 -18.310   6.097  1.00  0.00     0.070 C 
HETATM    5  N   UNL     1      43.576 -18.380   3.621  1.00  0.00    -0.282 N 
HETATM    6  H   UNL     1      44.082 -19.245   3.457  1.00  0.00     0.189 HD
HETATM    7  N   UNL     1      43.085 -17.730   2.567  1.00  0.00    -0.173 NA
HETATM    8  C   UNL     1      42.447 -16.659   3.070  1.00  0.00     0.096 A 
BRANCH   8   9
HETATM    9  C   UNL     1      41.770 -15.729   2.153  1.00  0.00    -0.005 A 
HETATM   10  C   UNL     1      42.302 -14.481   1.816  1.00  0.00     0.016 A 
HETATM   11  C   UNL     1      41.613 -13.620   0.951  1.00  0.00     0.037 A 
HETATM   12  C   UNL     1      40.367 -13.973   0.434  1.00  0.00     0.068 A 
HETATM   13  C   UNL     1      39.825 -15.213   0.759  1.00  0.00     0.037 A 
HETATM   14  C   UNL     1      40.523 -16.080   1.609  1.00  0.00     0.016 A 
BRANCH  12  15
HETATM   15  O   UNL     1      39.789 -13.036  -0.377  1.00  0.00    -0.356 OA
HETATM   16  C   UNL     1      40.680 -12.162  -1.061  1.00  0.00     0.210 C 
ENDBRANCH  12  15
ENDBRANCH   8   9
ENDBRANCH   1   2
BRANCH   1  17
HETATM   17  C   UNL     1      43.012 -14.434   5.728  1.00  0.00     0.222 C 
HETATM   18  N   UNL     1      42.682 -13.267   5.084  1.00  0.00    -0.350 N 
HETATM   19  H   UNL     1      41.800 -13.190   4.590  1.00  0.00     0.163 HD
HETATM   20  O   UNL     1      44.039 -14.555   6.394  1.00  0.00    -0.273 OA
BRANCH  18  21
HETATM   21  C   UNL     1      43.607 -12.148   4.991  1.00  0.00     0.150 C 
HETATM   22  C   UNL     1      43.148 -11.209   3.879  1.00  0.00     0.040 C 
BRANCH  21  23
HETATM   23  C   UNL     1      43.689 -11.457   6.317  1.00  0.00     0.127 A 
HETATM   24  N   UNL     1      42.824 -10.599   6.826  1.00  0.00    -0.231 NA
HETATM   25  C   UNL     1      43.404 -10.121   7.974  1.00  0.00     0.085 A 
HETATM   26  C   UNL     1      44.634 -10.729   8.199  1.00  0.00     0.062 A 
HETATM   27  C   UNL     1      42.944  -9.146   8.870  1.00  0.00     0.034 A 
HETATM   28  N   UNL     1      44.784 -11.590   7.144  1.00  0.00    -0.341 N 
HETATM   29  C   UNL     1      45.448 -10.424   9.292  1.00  0.00     0.032 A 
HETATM   30  H   UNL     1      45.579 -12.192   6.969  1.00  0.00     0.167 HD
HETATM   31  C   UNL     1      44.975  -9.443  10.174  1.00  0.00     0.002 A 
HETATM   32  C   UNL     1      43.745  -8.813   9.969  1.00  0.00     0.002 A 
ENDBRANCH  21  23
ENDBRANCH  18  21
ENDBRANCH   1  17
TORSDOF 6
ENDMDL
MODEL 10
REMARK VINA RESULT:      -7.9      2.294      3.864
REMARK  6 active torsions:
REMARK  status: ('A' for Active; 'I' for Inactive)
REMARK    1  A    between atoms: C_6  and  C_7 
REMARK    2  A    between atoms: C_10  and  O_11 
REMARK    3  A    between atoms: C_15  and  C_16 
REMARK    4  A    between atoms: C_16  and  C_17 
REMARK       I    between atoms: C_17  and  N_18 
REMARK    5  A    between atoms: N_18  and  C_19 
REMARK    6  A    between atoms: C_19  and  C_20 
ROOT
HETATM    1  C   UNL     1      42.012 -11.598   2.022  1.00  0.00     0.146 C 
ENDROOT
BRANCH   1   2
HETATM    2  C   UNL     1      41.112 -12.375   1.117  1.00  0.00     0.006 A 
HETATM    3  C   UNL     1      40.245 -11.828   0.185  1.00  0.00     0.033 A 
HETATM    4  C   UNL     1      39.948 -10.426  -0.197  1.00  0.00     0.070 C 
HETATM    5  N   UNL     1      39.623 -12.884  -0.410  1.00  0.00    -0.282 N 
HETATM    6  H   UNL     1      38.926 -12.868  -1.148  1.00  0.00     0.189 HD
HETATM    7  N   UNL     1      39.996 -14.067   0.076  1.00  0.00    -0.173 NA
HETATM    8  C   UNL     1      40.936 -13.796   0.998  1.00  0.00     0.096 A 
BRANCH   8   9
HETATM    9  C   UNL     1      41.575 -14.907   1.722  1.00  0.00    -0.005 A 
HETATM   10  C   UNL     1      42.824 -15.421   1.362  1.00  0.00     0.016 A 
HETATM   11  C   UNL     1      43.387 -16.492   2.070  1.00  0.00     0.037 A 
HETATM   12  C   UNL     1      42.700 -17.091   3.125  1.00  0.00     0.068 A 
HETATM   13  C   UNL     1      41.456 -16.589   3.496  1.00  0.00     0.037 A 
HETATM   14  C   UNL     1      40.903 -15.507   2.799  1.00  0.00     0.016 A 
BRANCH  12  15
HETATM   15  O   UNL     1      43.346 -18.141   3.717  1.00  0.00    -0.356 OA
HETATM   16  C   UNL     1      44.081 -18.995   2.848  1.00  0.00     0.210 C 
ENDBRANCH  12  15
ENDBRANCH   8   9
ENDBRANCH   1   2
BRANCH   1  17
HETATM   17  C   UNL     1      41.614 -11.592   3.488  1.00  0.00     0.222 C 
HETATM   18  N   UNL     1      42.464 -10.943   4.350  1.00  0.00    -0.350 N 
HETATM   19  H   UNL     1      43.235 -10.394   3.987  1.00  0.00     0.163 HD
HETATM   20  O   UNL     1      40.628 -12.217   3.877  1.00  0.00    -0.273 OA
BRANCH  18  21
HETATM   21  C   UNL     1      42.366 -11.097   5.792  1.00  0.00     0.150 C 
HETATM   22  C   UNL     1      40.971 -10.673   6.248  1.00  0.00     0.040 C 
BRANCH  21  23
HETATM   23  C   UNL     1      42.678 -12.513   6.167  1.00  0.00     0.127 A 
HETATM   24  N   UNL     1      43.851 -13.113   6.111  1.00  0.00    -0.231 NA
HETATM   25  C   UNL     1      43.609 -14.433   6.397  1.00  0.00     0.085 A 
HETATM   26  C   UNL     1      42.263 -14.641   6.675  1.00  0.00     0.062 A 
HETATM   27  C   UNL     1      44.492 -15.522   6.417  1.00  0.00     0.034 A 
HETATM   28  N   UNL     1      41.694 -13.401   6.544  1.00  0.00    -0.341 N 
HETATM   29  C   UNL     1      41.733 -15.895   6.990  1.00  0.00     0.032 A 
HETATM   30  H   UNL     1      40.715 -13.176   6.658  1.00  0.00     0.167 HD
HETATM   31  C   UNL     1      42.629 -16.972   7.001  1.00  0.00     0.002 A 
HETATM   32  C   UNL     1      43.986 -16.792   6.719  1.00  0.00     0.002 A 
ENDBRANCH  21  23
ENDBRANCH  18  21
ENDBRANCH   1  17
TORSDOF 6
ENDMDL
