MODEL 1
REMARK VINA RESULT:      -9.0      0.000      0.000
REMARK  4 active torsions:
REMARK  status: ('A' for Active; 'I' for Inactive)
REMARK    1  A    between atoms: C_6  and  C_7 
REMARK    2  A    between atoms: C_8  and  C_9 
REMARK       I    between atoms: C_9  and  N_10 
REMARK    3  A    between atoms: N_10  and  C_11 
REMARK    4  A    between atoms: C_18  and  C_19 
REMARK       I    between atoms: C_19  and  N_20 
ROOT
HETATM    1  C   UNL     1      40.203 -14.142   2.093  1.00  0.00     0.035 A 
HETATM    2  C   UNL     1      40.367 -14.160   0.702  1.00  0.00     0.046 A 
HETATM    3  C   UNL     1      39.760 -13.160  -0.089  1.00  0.00     0.030 A 
HETATM    4  C   UNL     1      39.011 -12.174   0.539  1.00  0.00     0.063 A 
HETATM    5  N   UNL     1      38.571 -11.360  -0.467  1.00  0.00    -0.277 N 
HETATM    6  H   UNL     1      37.998 -10.528  -0.377  1.00  0.00     0.189 HD
HETATM    7  N   UNL     1      38.959 -11.734  -1.698  1.00  0.00    -0.168 NA
HETATM    8  C   UNL     1      39.694 -12.848  -1.480  1.00  0.00     0.156 A 
HETATM    9  C   UNL     1      38.819 -12.127   1.922  1.00  0.00     0.034 A 
HETATM   10  C   UNL     1      39.427 -13.136   2.682  1.00  0.00     0.032 A 
ENDROOT
BRANCH   1  11
HETATM   11  N   UNL     1      40.797 -15.083   2.962  1.00  0.00    -0.327 N 
HETATM   12  C   UNL     1      41.888 -14.881   3.779  1.00  0.00     0.227 C 
HETATM   13  O   UNL     1      42.588 -13.884   3.852  1.00  0.00    -0.273 OA
HETATM   14  H   UNL     1      40.344 -15.981   3.025  1.00  0.00     0.169 HD
BRANCH  12  15
HETATM   15  C   UNL     1      42.220 -16.014   4.686  1.00  0.00     0.087 A 
HETATM   16  C   UNL     1      43.624 -16.592   4.524  1.00  0.00     0.032 A 
HETATM   17  C   UNL     1      43.180 -16.023   5.843  1.00  0.00     0.025 A 
BRANCH  16  18
HETATM   18  C   UNL     1      43.750 -18.066   4.245  1.00  0.00    -0.051 A 
HETATM   19  C   UNL     1      43.599 -18.605   2.959  1.00  0.00     0.031 A 
HETATM   20  C   UNL     1      43.684 -19.984   2.746  1.00  0.00     0.034 A 
HETATM   21  C   UNL     1      43.912 -20.854   3.810  1.00  0.00     0.024 A 
HETATM   22 CL   UNL     1      43.497 -20.614   1.156  1.00  0.00    -0.084 Cl
HETATM   23  C   UNL     1      44.059 -20.340   5.095  1.00  0.00     0.002 A 
HETATM   24  C   UNL     1      43.979 -18.963   5.304  1.00  0.00     0.007 A 
ENDBRANCH  16  18
ENDBRANCH  12  15
ENDBRANCH   1  11
BRANCH   8  25
HETATM   25  C   UNL     1      40.312 -13.584  -2.593  1.00  0.00     0.270 C 
HETATM   26  N   UNL     1      41.503 -13.061  -3.016  1.00  0.00    -0.365 N 
HETATM   27  H   UNL     1      41.860 -12.232  -2.556  1.00  0.00     0.159 HD
HETATM   28  H   UNL     1      41.993 -13.496  -3.781  1.00  0.00     0.159 HD
HETATM   29  O   UNL     1      39.833 -14.580  -3.124  1.00  0.00    -0.266 OA
ENDBRANCH   8  25
TORSDOF 4
ENDMDL
MODEL 2
REMARK VINA RESULT:      -8.7      2.220      2.827
REMARK  4 active torsions:
REMARK  status: ('A' for Active; 'I' for Inactive)
REMARK    1  A    between atoms: C_6  and  C_7 
REMARK    2  A    between atoms: C_8  and  C_9 
REMARK       I    between atoms: C_9  and  N_10 
REMARK    3  A    between atoms: N_10  and  C_11 
REMARK    4  A    between atoms: C_18  and  C_19 
REMARK       I    between atoms: C_19  and  N_20 
ROOT
HETATM    1  C   UNL     1      40.935 -14.078   0.815  1.00  0.00     0.035 A 
HETATM    2  C   UNL     1      41.328 -12.748   0.617  1.00  0.00     0.046 A 
HETATM    3  C   UNL     1      40.784 -12.008  -0.455  1.00  0.00     0.030 A 
HETATM    4  C   UNL     1      39.864 -12.623  -1.294  1.00  0.00     0.063 A 
HETATM    5  N   UNL     1      39.517 -11.670  -2.210  1.00  0.00    -0.277 N 
HETATM    6  H   UNL     1      38.858 -11.765  -2.975  1.00  0.00     0.189 HD
HETATM    7  N   UNL     1      40.138 -10.489  -2.049  1.00  0.00    -0.168 NA
HETATM    8  C   UNL     1      40.927 -10.684  -0.968  1.00  0.00     0.156 A 
HETATM    9  C   UNL     1      39.454 -13.949  -1.133  1.00  0.00     0.034 A 
HETATM   10  C   UNL     1      40.014 -14.662  -0.065  1.00  0.00     0.032 A 
ENDROOT
BRANCH   1  11
HETATM   11  N   UNL     1      41.403 -14.882   1.877  1.00  0.00    -0.327 N 
HETATM   12  C   UNL     1      41.196 -14.677   3.224  1.00  0.00     0.227 C 
HETATM   13  O   UNL     1      40.635 -13.732   3.754  1.00  0.00    -0.273 OA
HETATM   14  H   UNL     1      41.902 -15.718   1.618  1.00  0.00     0.169 HD
BRANCH  12  15
HETATM   15  C   UNL     1      41.700 -15.757   4.115  1.00  0.00     0.087 A 
HETATM   16  C   UNL     1      43.112 -16.250   3.811  1.00  0.00     0.032 A 
HETATM   17  C   UNL     1      42.779 -15.669   5.157  1.00  0.00     0.025 A 
BRANCH  16  18
HETATM   18  C   UNL     1      43.304 -17.722   3.556  1.00  0.00    -0.051 A 
HETATM   19  C   UNL     1      43.800 -18.598   4.532  1.00  0.00     0.031 A 
HETATM   20  C   UNL     1      44.002 -19.951   4.244  1.00  0.00     0.034 A 
HETATM   21  C   UNL     1      43.722 -20.456   2.977  1.00  0.00     0.024 A 
HETATM   22 CL   UNL     1      44.609 -21.000   5.465  1.00  0.00    -0.084 Cl
HETATM   23  C   UNL     1      43.235 -19.603   1.992  1.00  0.00     0.002 A 
HETATM   24  C   UNL     1      43.029 -18.254   2.283  1.00  0.00     0.007 A 
ENDBRANCH  16  18
ENDBRANCH  12  15
ENDBRANCH   1  11
BRANCH   8  25
HETATM   25  C   UNL     1      41.791  -9.613  -0.452  1.00  0.00     0.270 C 
HETATM   26  N   UNL     1      41.430  -9.147   0.782  1.00  0.00    -0.365 N 
HETATM   27  H   UNL     1      40.620  -9.552   1.235  1.00  0.00     0.159 HD
HETATM   28  H   UNL     1      41.961  -8.406   1.210  1.00  0.00     0.159 HD
HETATM   29  O   UNL     1      42.759  -9.147  -1.046  1.00  0.00    -0.266 OA
ENDBRANCH   8  25
TORSDOF 4
ENDMDL
MODEL 3
REMARK VINA RESULT:      -8.6      2.735      3.688
REMARK  4 active torsions:
REMARK  status: ('A' for Active; 'I' for Inactive)
REMARK    1  A    between atoms: C_6  and  C_7 
REMARK    2  A    between atoms: C_8  and  C_9 
REMARK       I    between atoms: C_9  and  N_10 
REMARK    3  A    between atoms: N_10  and  C_11 
REMARK    4  A    between atoms: C_18  and  C_19 
REMARK       I    between atoms: C_19  and  N_20 
ROOT
HETATM    1  C   UNL     1      39.934 -13.887  -0.603  1.00  0.00     0.035 A 
HETATM    2  C   UNL     1      39.186 -12.702  -0.590  1.00  0.00     0.046 A 
HETATM    3  C   UNL     1      38.175 -12.500  -1.554  1.00  0.00     0.030 A 
HETATM    4  C   UNL     1      37.945 -13.490  -2.500  1.00  0.00     0.063 A 
HETATM    5  N   UNL     1      36.920 -13.020  -3.273  1.00  0.00    -0.277 N 
HETATM    6  H   UNL     1      36.483 -13.484  -4.061  1.00  0.00     0.189 HD
HETATM    7  N   UNL     1      36.469 -11.804  -2.921  1.00  0.00    -0.168 NA
HETATM    8  C   UNL     1      37.237 -11.468  -1.860  1.00  0.00     0.156 A 
HETATM    9  C   UNL     1      38.675 -14.680  -2.550  1.00  0.00     0.034 A 
HETATM   10  C   UNL     1      39.676 -14.853  -1.584  1.00  0.00     0.032 A 
ENDROOT
BRANCH   1  11
HETATM   11  N   UNL     1      40.941 -14.186   0.340  1.00  0.00    -0.327 N 
HETATM   12  C   UNL     1      40.881 -15.128   1.344  1.00  0.00     0.227 C 
HETATM   13  O   UNL     1      39.928 -15.825   1.654  1.00  0.00    -0.273 OA
HETATM   14  H   UNL     1      41.812 -13.690   0.236  1.00  0.00     0.169 HD
BRANCH  12  15
HETATM   15  C   UNL     1      42.142 -15.318   2.112  1.00  0.00     0.087 A 
HETATM   16  C   UNL     1      42.935 -16.575   1.765  1.00  0.00     0.032 A 
HETATM   17  C   UNL     1      43.555 -15.215   1.612  1.00  0.00     0.025 A 
BRANCH  16  18
HETATM   18  C   UNL     1      43.267 -17.529   2.882  1.00  0.00    -0.051 A 
HETATM   19  C   UNL     1      43.312 -17.129   4.226  1.00  0.00     0.031 A 
HETATM   20  C   UNL     1      43.664 -18.035   5.231  1.00  0.00     0.034 A 
HETATM   21  C   UNL     1      43.985 -19.353   4.918  1.00  0.00     0.024 A 
HETATM   22 CL   UNL     1      43.708 -17.513   6.871  1.00  0.00    -0.084 Cl
HETATM   23  C   UNL     1      43.952 -19.769   3.591  1.00  0.00     0.002 A 
HETATM   24  C   UNL     1      43.596 -18.865   2.589  1.00  0.00     0.007 A 
ENDBRANCH  16  18
ENDBRANCH  12  15
ENDBRANCH   1  11
BRANCH   8  25
HETATM   25  C   UNL     1      37.062 -10.184  -1.168  1.00  0.00     0.270 C 
HETATM   26  N   UNL     1      37.706  -9.135  -1.764  1.00  0.00    -0.365 N 
HETATM   27  H   UNL     1      38.243  -9.310  -2.604  1.00  0.00     0.159 HD
HETATM   28  H   UNL     1      37.648  -8.217  -1.353  1.00  0.00     0.159 HD
HETATM   29  O   UNL     1      36.407 -10.024  -0.143  1.00  0.00    -0.266 OA
ENDBRANCH   8  25
TORSDOF 4
ENDMDL
MODEL 4
REMARK VINA RESULT:      -8.5      5.201      8.459
REMARK  4 active torsions:
REMARK  status: ('A' for Active; 'I' for Inactive)
REMARK    1  A    between atoms: C_6  and  C_7 
REMARK    2  A    between atoms: C_8  and  C_9 
REMARK       I    between atoms: C_9  and  N_10 
REMARK    3  A    between atoms: N_10  and  C_11 
REMARK    4  A    between atoms: C_18  and  C_19 
REMARK       I    between atoms: C_19  and  N_20 
ROOT
HETATM    1  C   UNL     1      43.047 -15.706   4.148  1.00  0.00     0.035 A 
HETATM    2  C   UNL     1      43.302 -16.958   4.724  1.00  0.00     0.046 A 
HETATM    3  C   UNL     1      43.502 -18.083   3.895  1.00  0.00     0.030 A 
HETATM    4  C   UNL     1      43.440 -17.919   2.518  1.00  0.00     0.063 A 
HETATM    5  N   UNL     1      43.681 -19.159   1.996  1.00  0.00    -0.277 N 
HETATM    6  H   UNL     1      43.719 -19.416   1.016  1.00  0.00     0.189 HD
HETATM    7  N   UNL     1      43.884 -20.120   2.912  1.00  0.00    -0.168 NA
HETATM    8  C   UNL     1      43.774 -19.470   4.093  1.00  0.00     0.156 A 
HETATM    9  C   UNL     1      43.180 -16.690   1.908  1.00  0.00     0.034 A 
HETATM   10  C   UNL     1      42.980 -15.590   2.754  1.00  0.00     0.032 A 
ENDROOT
BRANCH   1  11
HETATM   11  N   UNL     1      42.865 -14.524   4.897  1.00  0.00    -0.327 N 
HETATM   12  C   UNL     1      41.691 -13.821   5.064  1.00  0.00     0.227 C 
HETATM   13  O   UNL     1      40.611 -14.044   4.541  1.00  0.00    -0.273 OA
HETATM   14  H   UNL     1      43.670 -14.185   5.401  1.00  0.00     0.169 HD
BRANCH  12  15
HETATM   15  C   UNL     1      41.764 -12.677   6.013  1.00  0.00     0.087 A 
HETATM   16  C   UNL     1      42.601 -11.490   5.544  1.00  0.00     0.032 A 
HETATM   17  C   UNL     1      41.145 -11.315   5.871  1.00  0.00     0.025 A 
BRANCH  16  18
HETATM   18  C   UNL     1      43.724 -11.026   6.433  1.00  0.00    -0.051 A 
HETATM   19  C   UNL     1      43.531 -10.100   7.469  1.00  0.00     0.031 A 
HETATM   20  C   UNL     1      44.606  -9.662   8.247  1.00  0.00     0.034 A 
HETATM   21  C   UNL     1      45.895 -10.131   8.005  1.00  0.00     0.024 A 
HETATM   22 CL   UNL     1      44.336  -8.527   9.513  1.00  0.00    -0.084 Cl
HETATM   23  C   UNL     1      46.110 -11.046   6.979  1.00  0.00     0.002 A 
HETATM   24  C   UNL     1      45.034 -11.485   6.206  1.00  0.00     0.007 A 
ENDBRANCH  16  18
ENDBRANCH  12  15
ENDBRANCH   1  11
BRANCH   8  25
HETATM   25  C   UNL     1      43.929 -20.179   5.371  1.00  0.00     0.270 C 
HETATM   26  N   UNL     1      44.671 -21.325   5.288  1.00  0.00    -0.365 N 
HETATM   27  H   UNL     1      45.042 -21.599   4.387  1.00  0.00     0.159 HD
HETATM   28  H   UNL     1      44.823 -21.881   6.115  1.00  0.00     0.159 HD
HETATM   29  O   UNL     1      43.451 -19.811   6.439  1.00  0.00    -0.266 OA
ENDBRANCH   8  25
TORSDOF 4
ENDMDL
MODEL 5
REMARK VINA RESULT:      -8.5      6.618      9.252
REMARK  4 active torsions:
REMARK  status: ('A' for Active; 'I' for Inactive)
REMARK    1  A    between atoms: C_6  and  C_7 
REMARK    2  A    between atoms: C_8  and  C_9 
REMARK       I    between atoms: C_9  and  N_10 
REMARK    3  A    between atoms: N_10  and  C_11 
REMARK    4  A    between atoms: C_18  and  C_19 
REMARK       I    between atoms: C_19  and  N_20 
ROOT
HETATM    1  C   UNL     1      43.301 -13.706   6.823  1.00  0.00     0.035 A 
HETATM    2  C   UNL     1      43.311 -13.861   5.430  1.00  0.00     0.046 A 
HETATM    3  C   UNL     1      43.159 -15.147   4.867  1.00  0.00     0.030 A 
HETATM    4  C   UNL     1      43.003 -16.234   5.716  1.00  0.00     0.063 A 
HETATM    5  N   UNL     1      42.871 -17.318   4.892  1.00  0.00    -0.277 N 
HETATM    6  H   UNL     1      42.732 -18.284   5.167  1.00  0.00     0.189 HD
HETATM    7  N   UNL     1      42.939 -17.034   3.581  1.00  0.00    -0.168 NA
HETATM    8  C   UNL     1      43.119 -15.693   3.550  1.00  0.00     0.156 A 
HETATM    9  C   UNL     1      42.996 -16.120   7.108  1.00  0.00     0.034 A 
HETATM   10  C   UNL     1      43.154 -14.834   7.641  1.00  0.00     0.032 A 
ENDROOT
BRANCH   1  11
HETATM   11  N   UNL     1      43.415 -12.457   7.471  1.00  0.00    -0.327 N 
HETATM   12  C   UNL     1      44.487 -11.593   7.420  1.00  0.00     0.227 C 
HETATM   13  O   UNL     1      45.561 -11.772   6.869  1.00  0.00    -0.273 OA
HETATM   14  H   UNL     1      42.608 -12.145   7.987  1.00  0.00     0.169 HD
BRANCH  12  15
HETATM   15  C   UNL     1      44.282 -10.284   8.100  1.00  0.00     0.087 A 
HETATM   16  C   UNL     1      44.947 -10.147   9.466  1.00  0.00     0.032 A 
HETATM   17  C   UNL     1      45.295  -9.202   8.350  1.00  0.00     0.025 A 
BRANCH  16  18
HETATM   18  C   UNL     1      44.077  -9.778  10.639  1.00  0.00    -0.051 A 
HETATM   19  C   UNL     1      43.710  -8.453  10.917  1.00  0.00     0.031 A 
HETATM   20  C   UNL     1      42.933  -8.146  12.038  1.00  0.00     0.034 A 
HETATM   21  C   UNL     1      42.515  -9.150  12.908  1.00  0.00     0.024 A 
HETATM   22 CL   UNL     1      42.497  -6.511  12.350  1.00  0.00    -0.084 Cl
HETATM   23  C   UNL     1      42.873 -10.470  12.654  1.00  0.00     0.002 A 
HETATM   24  C   UNL     1      43.644 -10.775  11.531  1.00  0.00     0.007 A 
ENDBRANCH  16  18
ENDBRANCH  12  15
ENDBRANCH   1  11
BRANCH   8  25
HETATM   25  C   UNL     1      43.248 -14.971   2.276  1.00  0.00     0.270 C 
HETATM   26  N   UNL     1      43.272 -15.782   1.174  1.00  0.00    -0.365 N 
HETATM   27  H   UNL     1      43.209 -16.783   1.307  1.00  0.00     0.159 HD
HETATM   28  H   UNL     1      43.367 -15.373   0.258  1.00  0.00     0.159 HD
HETATM   29  O   UNL     1      43.332 -13.753   2.167  1.00  0.00    -0.266 OA
ENDBRANCH   8  25
TORSDOF 4
ENDMDL
MODEL 6
REMARK VINA RESULT:      -8.4      5.652      8.426
REMARK  4 active torsions:
REMARK  status: ('A' for Active; 'I' for Inactive)
REMARK    1  A    between atoms: C_6  and  C_7 
REMARK    2  A    between atoms: C_8  and  C_9 
REMARK       I    between atoms: C_9  and  N_10 
REMARK    3  A    between atoms: N_10  and  C_11 
REMARK    4  A    between atoms: C_18  and  C_19 
REMARK       I    between atoms: C_19  and  N_20 
ROOT
HETATM    1  C   UNL     1      44.461 -11.476   6.571  1.00  0.00     0.035 A 
HETATM    2  C   UNL     1      43.552 -11.001   7.526  1.00  0.00     0.046 A 
HETATM    3  C   UNL     1      44.022 -10.262   8.633  1.00  0.00     0.030 A 
HETATM    4  C   UNL     1      45.385 -10.023   8.749  1.00  0.00     0.063 A 
HETATM    5  N   UNL     1      45.526  -9.289   9.893  1.00  0.00    -0.277 N 
HETATM    6  H   UNL     1      46.388  -8.928  10.289  1.00  0.00     0.189 HD
HETATM    7  N   UNL     1      44.376  -9.036  10.540  1.00  0.00    -0.168 NA
HETATM    8  C   UNL     1      43.436  -9.634   9.773  1.00  0.00     0.156 A 
HETATM    9  C   UNL     1      46.321 -10.488   7.823  1.00  0.00     0.034 A 
HETATM   10  C   UNL     1      45.829 -11.223   6.736  1.00  0.00     0.032 A 
ENDROOT
BRANCH   1  11
HETATM   11  N   UNL     1      44.078 -12.196   5.419  1.00  0.00    -0.327 N 
HETATM   12  C   UNL     1      43.488 -11.687   4.283  1.00  0.00     0.227 C 
HETATM   13  O   UNL     1      43.120 -10.540   4.087  1.00  0.00    -0.273 OA
HETATM   14  H   UNL     1      44.304 -13.179   5.409  1.00  0.00     0.169 HD
BRANCH  12  15
HETATM   15  C   UNL     1      43.310 -12.658   3.169  1.00  0.00     0.087 A 
HETATM   16  C   UNL     1      42.252 -13.734   3.402  1.00  0.00     0.032 A 
HETATM   17  C   UNL     1      42.139 -12.793   2.236  1.00  0.00     0.025 A 
BRANCH  16  18
HETATM   18  C   UNL     1      42.675 -15.174   3.281  1.00  0.00    -0.051 A 
HETATM   19  C   UNL     1      43.061 -15.942   4.390  1.00  0.00     0.031 A 
HETATM   20  C   UNL     1      43.486 -17.264   4.232  1.00  0.00     0.034 A 
HETATM   21  C   UNL     1      43.542 -17.846   2.968  1.00  0.00     0.024 A 
HETATM   22 CL   UNL     1      43.951 -18.180   5.612  1.00  0.00    -0.084 Cl
HETATM   23  C   UNL     1      43.168 -17.100   1.854  1.00  0.00     0.002 A 
HETATM   24  C   UNL     1      42.740 -15.781   2.014  1.00  0.00     0.007 A 
ENDBRANCH  16  18
ENDBRANCH  12  15
ENDBRANCH   1  11
BRANCH   8  25
HETATM   25  C   UNL     1      42.014  -9.594  10.141  1.00  0.00     0.270 C 
HETATM   26  N   UNL     1      41.730 -10.184  11.342  1.00  0.00    -0.365 N 
HETATM   27  H   UNL     1      42.488 -10.598  11.871  1.00  0.00     0.159 HD
HETATM   28  H   UNL     1      40.778 -10.211  11.671  1.00  0.00     0.159 HD
HETATM   29  O   UNL     1      41.128  -9.088   9.460  1.00  0.00    -0.266 OA
ENDBRANCH   8  25
TORSDOF 4
ENDMDL
MODEL 7
REMARK VINA RESULT:      -8.3      4.428      6.690
REMARK  4 active torsions:
REMARK  status: ('A' for Active; 'I' for Inactive)
REMARK    1  A    between atoms: C_6  and  C_7 
REMARK    2  A    between atoms: C_8  and  C_9 
REMARK       I    between atoms: C_9  and  N_10 
REMARK    3  A    between atoms: N_10  and  C_11 
REMARK    4  A    between atoms: C_18  and  C_19 
REMARK       I    between atoms: C_19  and  N_20 
ROOT
HETATM    1  C   UNL     1      42.331 -12.242   5.166  1.00  0.00     0.035 A 
HETATM    2  C   UNL     1      43.361 -11.842   6.028  1.00  0.00     0.046 A 
HETATM    3  C   UNL     1      43.142 -10.785   6.938  1.00  0.00     0.030 A 
HETATM    4  C   UNL     1      41.900 -10.165   6.956  1.00  0.00     0.063 A 
HETATM    5  N   UNL     1      41.989  -9.209   7.930  1.00  0.00    -0.277 N 
HETATM    6  H   UNL     1      41.265  -8.564   8.225  1.00  0.00     0.189 HD
HETATM    7  N   UNL     1      43.184  -9.144   8.541  1.00  0.00    -0.168 NA
HETATM    8  C   UNL     1      43.909 -10.113   7.936  1.00  0.00     0.156 A 
HETATM    9  C   UNL     1      40.853 -10.530   6.108  1.00  0.00     0.034 A 
HETATM   10  C   UNL     1      41.099 -11.578   5.210  1.00  0.00     0.032 A 
ENDROOT
BRANCH   1  11
HETATM   11  N   UNL     1      42.451 -13.307   4.247  1.00  0.00    -0.327 N 
HETATM   12  C   UNL     1      42.589 -13.208   2.879  1.00  0.00     0.227 C 
HETATM   13  O   UNL     1      42.562 -12.194   2.201  1.00  0.00    -0.273 OA
HETATM   14  H   UNL     1      42.486 -14.235   4.639  1.00  0.00     0.169 HD
BRANCH  12  15
HETATM   15  C   UNL     1      42.823 -14.495   2.170  1.00  0.00     0.087 A 
HETATM   16  C   UNL     1      42.046 -15.692   2.713  1.00  0.00     0.032 A 
HETATM   17  C   UNL     1      41.871 -15.252   1.286  1.00  0.00     0.025 A 
BRANCH  16  18
HETATM   18  C   UNL     1      42.828 -16.910   3.126  1.00  0.00    -0.051 A 
HETATM   19  C   UNL     1      42.953 -18.040   2.304  1.00  0.00     0.031 A 
HETATM   20  C   UNL     1      43.655 -19.168   2.740  1.00  0.00     0.034 A 
HETATM   21  C   UNL     1      44.237 -19.197   4.004  1.00  0.00     0.024 A 
HETATM   22 CL   UNL     1      43.792 -20.537   1.706  1.00  0.00    -0.084 Cl
HETATM   23  C   UNL     1      44.121 -18.089   4.838  1.00  0.00     0.002 A 
HETATM   24  C   UNL     1      43.424 -16.962   4.399  1.00  0.00     0.007 A 
ENDBRANCH  16  18
ENDBRANCH  12  15
ENDBRANCH   1  11
BRANCH   8  25
HETATM   25  C   UNL     1      45.304 -10.373   8.320  1.00  0.00     0.270 C 
HETATM   26  N   UNL     1      46.215 -10.092   7.340  1.00  0.00    -0.365 N 
HETATM   27  H   UNL     1      45.880  -9.744   6.450  1.00  0.00     0.159 HD
HETATM   28  H   UNL     1      47.196 -10.248   7.512  1.00  0.00     0.159 HD
HETATM   29  O   UNL     1      45.660 -10.806   9.411  1.00  0.00    -0.266 OA
ENDBRANCH   8  25
TORSDOF 4
ENDMDL
MODEL 8
REMARK VINA RESULT:      -8.3      3.586      8.426
REMARK  4 active torsions:
REMARK  status: ('A' for Active; 'I' for Inactive)
REMARK    1  A    between atoms: C_6  and  C_7 
REMARK    2  A    between atoms: C_8  and  C_9 
REMARK       I    between atoms: C_9  and  N_10 
REMARK    3  A    between atoms: N_10  and  C_11 
REMARK    4  A    between atoms: C_18  and  C_19 
REMARK       I    between atoms: C_19  and  N_20 
ROOT
HETATM    1  C   UNL     1      42.217 -15.746   2.432  1.00  0.00     0.035 A 
HETATM    2  C   UNL     1      42.069 -15.706   3.824  1.00  0.00     0.046 A 
HETATM    3  C   UNL     1      42.702 -16.681   4.625  1.00  0.00     0.030 A 
HETATM    4  C   UNL     1      43.462 -17.664   4.006  1.00  0.00     0.063 A 
HETATM    5  N   UNL     1      43.947 -18.439   5.022  1.00  0.00    -0.277 N 
HETATM    6  H   UNL     1      44.550 -19.250   4.942  1.00  0.00     0.189 HD
HETATM    7  N   UNL     1      43.560 -18.054   6.250  1.00  0.00    -0.168 NA
HETATM    8  C   UNL     1      42.787 -16.968   6.020  1.00  0.00     0.156 A 
HETATM    9  C   UNL     1      43.627 -17.741   2.621  1.00  0.00     0.034 A 
HETATM   10  C   UNL     1      42.983 -16.764   1.849  1.00  0.00     0.032 A 
ENDROOT
BRANCH   1  11
HETATM   11  N   UNL     1      41.646 -14.795   1.557  1.00  0.00    -0.327 N 
HETATM   12  C   UNL     1      41.818 -13.429   1.594  1.00  0.00     0.227 C 
HETATM   13  O   UNL     1      42.432 -12.779   2.425  1.00  0.00    -0.273 OA
HETATM   14  H   UNL     1      41.092 -15.162   0.799  1.00  0.00     0.169 HD
BRANCH  12  15
HETATM   15  C   UNL     1      41.196 -12.680   0.468  1.00  0.00     0.087 A 
HETATM   16  C   UNL     1      39.672 -12.730   0.412  1.00  0.00     0.032 A 
HETATM   17  C   UNL     1      40.388 -11.414   0.532  1.00  0.00     0.025 A 
BRANCH  16  18
HETATM   18  C   UNL     1      39.030 -13.225  -0.858  1.00  0.00    -0.051 A 
HETATM   19  C   UNL     1      37.961 -12.556  -1.471  1.00  0.00     0.031 A 
HETATM   20  C   UNL     1      37.365 -13.068  -2.628  1.00  0.00     0.034 A 
HETATM   21  C   UNL     1      37.817 -14.259  -3.191  1.00  0.00     0.024 A 
HETATM   22 CL   UNL     1      36.056 -12.222  -3.358  1.00  0.00    -0.084 Cl
HETATM   23  C   UNL     1      38.873 -14.941  -2.595  1.00  0.00     0.002 A 
HETATM   24  C   UNL     1      39.469 -14.426  -1.443  1.00  0.00     0.007 A 
ENDBRANCH  16  18
ENDBRANCH  12  15
ENDBRANCH   1  11
BRANCH   8  25
HETATM   25  C   UNL     1      42.153 -16.236   7.126  1.00  0.00     0.270 C 
HETATM   26  N   UNL     1      43.011 -15.898   8.137  1.00  0.00    -0.365 N 
HETATM   27  H   UNL     1      43.983 -16.171   8.060  1.00  0.00     0.159 HD
HETATM   28  H   UNL     1      42.661 -15.401   8.941  1.00  0.00     0.159 HD
HETATM   29  O   UNL     1      40.965 -15.938   7.177  1.00  0.00    -0.266 OA
ENDBRANCH   8  25
TORSDOF 4
ENDMDL
MODEL 9
REMARK VINA RESULT:      -8.3      1.951      2.891
REMARK  4 active torsions:
REMARK  status: ('A' for Active; 'I' for Inactive)
REMARK    1  A    between atoms: C_6  and  C_7 
REMARK    2  A    between atoms: C_8  and  C_9 
REMARK       I    between atoms: C_9  and  N_10 
REMARK    3  A    between atoms: N_10  and  C_11 
REMARK    4  A    between atoms: C_18  and  C_19 
REMARK       I    between atoms: C_19  and  N_20 
ROOT
HETATM    1  C   UNL     1      40.703 -14.524   2.137  1.00  0.00     0.035 A 
HETATM    2  C   UNL     1      40.035 -13.343   2.486  1.00  0.00     0.046 A 
HETATM    3  C   UNL     1      39.402 -12.574   1.486  1.00  0.00     0.030 A 
HETATM    4  C   UNL     1      39.456 -13.012   0.170  1.00  0.00     0.063 A 
HETATM    5  N   UNL     1      38.757 -12.083  -0.549  1.00  0.00    -0.277 N 
HETATM    6  H   UNL     1      38.583 -12.084  -1.548  1.00  0.00     0.189 HD
HETATM    7  N   UNL     1      38.260 -11.071   0.182  1.00  0.00    -0.168 NA
HETATM    8  C   UNL     1      38.653 -11.360   1.443  1.00  0.00     0.156 A 
HETATM    9  C   UNL     1      40.118 -14.180  -0.218  1.00  0.00     0.034 A 
HETATM   10  C   UNL     1      40.744 -14.921   0.794  1.00  0.00     0.032 A 
ENDROOT
BRANCH   1  11
HETATM   11  N   UNL     1      41.337 -15.370   3.073  1.00  0.00    -0.327 N 
HETATM   12  C   UNL     1      41.984 -14.988   4.228  1.00  0.00     0.227 C 
HETATM   13  O   UNL     1      42.195 -13.852   4.621  1.00  0.00    -0.273 OA
HETATM   14  H   UNL     1      41.266 -16.361   2.900  1.00  0.00     0.169 HD
BRANCH  12  15
HETATM   15  C   UNL     1      42.451 -16.105   5.093  1.00  0.00     0.087 A 
HETATM   16  C   UNL     1      43.797 -16.714   4.707  1.00  0.00     0.032 A 
HETATM   17  C   UNL     1      43.597 -16.106   6.067  1.00  0.00     0.025 A 
BRANCH  16  18
HETATM   18  C   UNL     1      43.851 -18.196   4.449  1.00  0.00    -0.051 A 
HETATM   19  C   UNL     1      43.758 -18.741   3.160  1.00  0.00     0.031 A 
HETATM   20  C   UNL     1      43.773 -20.125   2.964  1.00  0.00     0.034 A 
HETATM   21  C   UNL     1      43.870 -20.994   4.048  1.00  0.00     0.024 A 
HETATM   22 CL   UNL     1      43.660 -20.761   1.369  1.00  0.00    -0.084 Cl
HETATM   23  C   UNL     1      43.957 -20.475   5.336  1.00  0.00     0.002 A 
HETATM   24  C   UNL     1      43.948 -19.092   5.529  1.00  0.00     0.007 A 
ENDBRANCH  16  18
ENDBRANCH  12  15
ENDBRANCH   1  11
BRANCH   8  25
HETATM   25  C   UNL     1      38.308 -10.480   2.569  1.00  0.00     0.270 C 
HETATM   26  N   UNL     1      37.245  -9.653   2.328  1.00  0.00    -0.365 N 
HETATM   27  H   UNL     1      36.791  -9.698   1.424  1.00  0.00     0.159 HD
HETATM   28  H   UNL     1      36.943  -9.009   3.041  1.00  0.00     0.159 HD
HETATM   29  O   UNL     1      38.897 -10.456   3.645  1.00  0.00    -0.266 OA
ENDBRANCH   8  25
TORSDOF 4
ENDMDL
MODEL 10
REMARK VINA RESULT:      -8.1      2.002      2.464
REMARK  4 active torsions:
REMARK  status: ('A' for Active; 'I' for Inactive)
REMARK    1  A    between atoms: C_6  and  C_7 
REMARK    2  A    between atoms: C_8  and  C_9 
REMARK       I    between atoms: C_9  and  N_10 
REMARK    3  A    between atoms: N_10  and  C_11 
REMARK    4  A    between atoms: C_18  and  C_19 
REMARK       I    between atoms: C_19  and  N_20 
ROOT
HETATM    1  C   UNL     1      42.572 -13.397   3.723  1.00  0.00     0.035 A 
HETATM    2  C   UNL     1      41.795 -13.455   2.558  1.00  0.00     0.046 A 
HETATM    3  C   UNL     1      41.543 -12.276   1.824  1.00  0.00     0.030 A 
HETATM    4  C   UNL     1      42.077 -11.078   2.279  1.00  0.00     0.063 A 
HETATM    5  N   UNL     1      41.678 -10.137   1.371  1.00  0.00    -0.277 N 
HETATM    6  H   UNL     1      41.890  -9.146   1.381  1.00  0.00     0.189 HD
HETATM    7  N   UNL     1      40.921 -10.615   0.369  1.00  0.00    -0.168 NA
HETATM    8  C   UNL     1      40.827 -11.937   0.637  1.00  0.00     0.156 A 
HETATM    9  C   UNL     1      42.849 -10.979   3.439  1.00  0.00     0.034 A 
HETATM   10  C   UNL     1      43.079 -12.164   4.152  1.00  0.00     0.032 A 
ENDROOT
BRANCH   1  11
HETATM   11  N   UNL     1      42.899 -14.529   4.501  1.00  0.00    -0.327 N 
HETATM   12  C   UNL     1      42.031 -15.310   5.231  1.00  0.00     0.227 C 
HETATM   13  O   UNL     1      40.836 -15.133   5.403  1.00  0.00    -0.273 OA
HETATM   14  H   UNL     1      43.864 -14.821   4.481  1.00  0.00     0.169 HD
BRANCH  12  15
HETATM   15  C   UNL     1      42.636 -16.519   5.855  1.00  0.00     0.087 A 
HETATM   16  C   UNL     1      43.892 -17.049   5.170  1.00  0.00     0.032 A 
HETATM   17  C   UNL     1      43.931 -16.621   6.611  1.00  0.00     0.025 A 
BRANCH  16  18
HETATM   18  C   UNL     1      43.896 -18.486   4.720  1.00  0.00    -0.051 A 
HETATM   19  C   UNL     1      43.804 -18.853   3.370  1.00  0.00     0.031 A 
HETATM   20  C   UNL     1      43.770 -20.199   2.994  1.00  0.00     0.034 A 
HETATM   21  C   UNL     1      43.819 -21.206   3.956  1.00  0.00     0.024 A 
HETATM   22 CL   UNL     1      43.660 -20.617   1.329  1.00  0.00    -0.084 Cl
HETATM   23  C   UNL     1      43.904 -20.863   5.302  1.00  0.00     0.002 A 
HETATM   24  C   UNL     1      43.943 -19.519   5.674  1.00  0.00     0.007 A 
ENDBRANCH  16  18
ENDBRANCH  12  15
ENDBRANCH   1  11
BRANCH   8  25
HETATM   25  C   UNL     1      40.064 -12.840  -0.237  1.00  0.00     0.270 C 
HETATM   26  N   UNL     1      38.827 -12.370  -0.582  1.00  0.00    -0.365 N 
HETATM   27  H   UNL     1      38.530 -11.472  -0.220  1.00  0.00     0.159 HD
HETATM   28  H   UNL     1      38.230 -12.927  -1.172  1.00  0.00     0.159 HD
HETATM   29  O   UNL     1      40.464 -13.926  -0.642  1.00  0.00    -0.266 OA
ENDBRANCH   8  25
TORSDOF 4
ENDMDL
