MODEL 1
REMARK VINA RESULT:      -9.3      0.000      0.000
REMARK  6 active torsions:
REMARK  status: ('A' for Active; 'I' for Inactive)
REMARK    1  A    between atoms: C_2  and  C_3 
REMARK    2  A    between atoms: C_3  and  C_4 
REMARK    3  A    between atoms: C_3  and  C_10 
REMARK    4  A    between atoms: C_10  and  C_11 
REMARK       I    between atoms: C_11  and  N_12 
REMARK    5  A    between atoms: N_12  and  C_13 
REMARK    6  A    between atoms: C_20  and  C_21 
REMARK       I    between atoms: C_21  and  N_22 
ROOT
HETATM    1  C   UNL     1      40.975 -14.113   0.509  1.00  0.00     0.035 A 
HETATM    2  C   UNL     1      40.259 -14.566  -0.608  1.00  0.00     0.046 A 
HETATM    3  C   UNL     1      39.274 -13.735  -1.189  1.00  0.00     0.030 A 
HETATM    4  C   UNL     1      39.035 -12.487  -0.630  1.00  0.00     0.063 A 
HETATM    5  N   UNL     1      38.041 -11.934  -1.387  1.00  0.00    -0.277 N 
HETATM    6  H   UNL     1      37.609 -11.024  -1.264  1.00  0.00     0.189 HD
HETATM    7  N   UNL     1      37.617 -12.706  -2.400  1.00  0.00    -0.168 NA
HETATM    8  C   UNL     1      38.372 -13.824  -2.293  1.00  0.00     0.156 A 
HETATM    9  C   UNL     1      39.730 -12.001   0.479  1.00  0.00     0.034 A 
HETATM   10  C   UNL     1      40.707 -12.840   1.031  1.00  0.00     0.032 A 
ENDROOT
BRANCH   1  11
HETATM   11  N   UNL     1      41.976 -14.865   1.160  1.00  0.00    -0.327 N 
HETATM   12  C   UNL     1      41.808 -15.980   1.969  1.00  0.00     0.222 C 
HETATM   13  O   UNL     1      40.743 -16.498   2.277  1.00  0.00    -0.273 OA
HETATM   14  H   UNL     1      42.921 -14.516   1.067  1.00  0.00     0.169 HD
BRANCH  12  15
HETATM   15  C   UNL     1      43.149 -16.501   2.470  1.00  0.00     0.113 C 
BRANCH  15  16
HETATM   16  C   UNL     1      43.027 -17.602   3.549  1.00  0.00     0.030 C 
BRANCH  16  17
HETATM   17  C   UNL     1      43.960 -18.829   3.296  1.00  0.00    -0.014 C 
HETATM   18  C   UNL     1      43.492 -19.656   2.091  1.00  0.00     0.010 C 
HETATM   19  C   UNL     1      44.164 -19.754   4.499  1.00  0.00     0.010 C 
ENDBRANCH  16  17
BRANCH  16  20
HETATM   20  C   UNL     1      43.166 -17.005   4.950  1.00  0.00    -0.053 A 
HETATM   21  C   UNL     1      44.411 -16.661   5.498  1.00  0.00     0.007 A 
HETATM   22  C   UNL     1      44.501 -16.108   6.778  1.00  0.00     0.001 A 
HETATM   23  C   UNL     1      43.348 -15.890   7.527  1.00  0.00     0.000 A 
HETATM   24  C   UNL     1      42.105 -16.226   6.999  1.00  0.00     0.001 A 
HETATM   25  C   UNL     1      42.014 -16.779   5.720  1.00  0.00     0.007 A 
ENDBRANCH  16  20
ENDBRANCH  15  16
ENDBRANCH  12  15
ENDBRANCH   1  11
BRANCH   8  26
HETATM   26  C   UNL     1      38.219 -14.936  -3.242  1.00  0.00     0.270 C 
HETATM   27  N   UNL     1      38.166 -16.169  -2.651  1.00  0.00    -0.365 N 
HETATM   28  H   UNL     1      38.225 -16.226  -1.641  1.00  0.00     0.159 HD
HETATM   29  H   UNL     1      38.053 -16.991  -3.222  1.00  0.00     0.159 HD
HETATM   30  O   UNL     1      38.138 -14.813  -4.459  1.00  0.00    -0.266 OA
ENDBRANCH   8  26
TORSDOF 6
ENDMDL
MODEL 2
REMARK VINA RESULT:      -9.1      1.144      2.987
REMARK  6 active torsions:
REMARK  status: ('A' for Active; 'I' for Inactive)
REMARK    1  A    between atoms: C_2  and  C_3 
REMARK    2  A    between atoms: C_3  and  C_4 
REMARK    3  A    between atoms: C_3  and  C_10 
REMARK    4  A    between atoms: C_10  and  C_11 
REMARK       I    between atoms: C_11  and  N_12 
REMARK    5  A    between atoms: N_12  and  C_13 
REMARK    6  A    between atoms: C_20  and  C_21 
REMARK       I    between atoms: C_21  and  N_22 
ROOT
HETATM    1  C   UNL     1      40.643 -14.308   0.981  1.00  0.00     0.035 A 
HETATM    2  C   UNL     1      39.970 -14.699  -0.186  1.00  0.00     0.046 A 
HETATM    3  C   UNL     1      39.783 -13.764  -1.229  1.00  0.00     0.030 A 
HETATM    4  C   UNL     1      40.267 -12.473  -1.068  1.00  0.00     0.063 A 
HETATM    5  N   UNL     1      39.932 -11.813  -2.216  1.00  0.00    -0.277 N 
HETATM    6  H   UNL     1      40.124 -10.843  -2.445  1.00  0.00     0.189 HD
HETATM    7  N   UNL     1      39.280 -12.562  -3.120  1.00  0.00    -0.168 NA
HETATM    8  C   UNL     1      39.182 -13.773  -2.525  1.00  0.00     0.156 A 
HETATM    9  C   UNL     1      40.945 -12.049   0.077  1.00  0.00     0.034 A 
HETATM   10  C   UNL     1      41.125 -12.996   1.093  1.00  0.00     0.032 A 
ENDROOT
BRANCH   1  11
HETATM   11  N   UNL     1      40.880 -15.164   2.077  1.00  0.00    -0.327 N 
HETATM   12  C   UNL     1      42.105 -15.599   2.564  1.00  0.00     0.222 C 
HETATM   13  O   UNL     1      43.206 -15.324   2.106  1.00  0.00    -0.273 OA
HETATM   14  H   UNL     1      40.057 -15.547   2.524  1.00  0.00     0.169 HD
BRANCH  12  15
HETATM   15  C   UNL     1      41.922 -16.511   3.771  1.00  0.00     0.113 C 
BRANCH  15  16
HETATM   16  C   UNL     1      43.252 -17.006   4.386  1.00  0.00     0.030 C 
BRANCH  16  17
HETATM   17  C   UNL     1      43.355 -16.761   5.925  1.00  0.00    -0.014 C 
HETATM   18  C   UNL     1      42.073 -16.131   6.485  1.00  0.00     0.010 C 
HETATM   19  C   UNL     1      44.565 -15.938   6.377  1.00  0.00     0.010 C 
ENDBRANCH  16  17
BRANCH  16  20
HETATM   20  C   UNL     1      43.535 -18.450   3.974  1.00  0.00    -0.053 A 
HETATM   21  C   UNL     1      43.940 -19.428   4.897  1.00  0.00     0.007 A 
HETATM   22  C   UNL     1      44.180 -20.741   4.488  1.00  0.00     0.001 A 
HETATM   23  C   UNL     1      44.018 -21.098   3.151  1.00  0.00     0.000 A 
HETATM   24  C   UNL     1      43.618 -20.141   2.223  1.00  0.00     0.001 A 
HETATM   25  C   UNL     1      43.377 -18.828   2.631  1.00  0.00     0.007 A 
ENDBRANCH  16  20
ENDBRANCH  15  16
ENDBRANCH  12  15
ENDBRANCH   1  11
BRANCH   8  26
HETATM   26  C   UNL     1      38.530 -14.902  -3.205  1.00  0.00     0.270 C 
HETATM   27  N   UNL     1      38.413 -16.026  -2.432  1.00  0.00    -0.365 N 
HETATM   28  H   UNL     1      38.763 -16.000  -1.483  1.00  0.00     0.159 HD
HETATM   29  H   UNL     1      37.969 -16.847  -2.812  1.00  0.00     0.159 HD
HETATM   30  O   UNL     1      38.109 -14.878  -4.356  1.00  0.00    -0.266 OA
ENDBRANCH   8  26
TORSDOF 6
ENDMDL
MODEL 3
REMARK VINA RESULT:      -8.7      5.594      9.304
REMARK  6 active torsions:
REMARK  status: ('A' for Active; 'I' for Inactive)
REMARK    1  A    between atoms: C_2  and  C_3 
REMARK    2  A    between atoms: C_3  and  C_4 
REMARK    3  A    between atoms: C_3  and  C_10 
REMARK    4  A    between atoms: C_10  and  C_11 
REMARK       I    between atoms: C_11  and  N_12 
REMARK    5  A    between atoms: N_12  and  C_13 
REMARK    6  A    between atoms: C_20  and  C_21 
REMARK       I    between atoms: C_21  and  N_22 
ROOT
HETATM    1  C   UNL     1      44.338 -12.265   6.863  1.00  0.00     0.035 A 
HETATM    2  C   UNL     1      43.853 -11.900   8.127  1.00  0.00     0.046 A 
HETATM    3  C   UNL     1      44.476 -10.848   8.835  1.00  0.00     0.030 A 
HETATM    4  C   UNL     1      45.562 -10.202   8.259  1.00  0.00     0.063 A 
HETATM    5  N   UNL     1      45.948  -9.258   9.168  1.00  0.00    -0.277 N 
HETATM    6  H   UNL     1      46.716  -8.601   9.083  1.00  0.00     0.189 HD
HETATM    7  N   UNL     1      45.201  -9.220  10.284  1.00  0.00    -0.168 NA
HETATM    8  C   UNL     1      44.284 -10.197  10.092  1.00  0.00     0.156 A 
HETATM    9  C   UNL     1      46.069 -10.535   7.002  1.00  0.00     0.034 A 
HETATM   10  C   UNL     1      45.430 -11.576   6.317  1.00  0.00     0.032 A 
ENDROOT
BRANCH   1  11
HETATM   11  N   UNL     1      43.787 -13.300   6.078  1.00  0.00    -0.327 N 
HETATM   12  C   UNL     1      42.641 -13.254   5.296  1.00  0.00     0.222 C 
HETATM   13  O   UNL     1      41.890 -12.297   5.168  1.00  0.00    -0.273 OA
HETATM   14  H   UNL     1      44.255 -14.196   6.136  1.00  0.00     0.169 HD
BRANCH  12  15
HETATM   15  C   UNL     1      42.397 -14.588   4.601  1.00  0.00     0.113 C 
BRANCH  15  16
HETATM   16  C   UNL     1      43.013 -15.798   5.340  1.00  0.00     0.030 C 
BRANCH  16  17
HETATM   17  C   UNL     1      42.220 -16.215   6.620  1.00  0.00    -0.014 C 
HETATM   18  C   UNL     1      40.755 -15.764   6.550  1.00  0.00     0.010 C 
HETATM   19  C   UNL     1      42.832 -15.755   7.946  1.00  0.00     0.010 C 
ENDBRANCH  16  17
BRANCH  16  20
HETATM   20  C   UNL     1      43.264 -16.954   4.371  1.00  0.00    -0.053 A 
HETATM   21  C   UNL     1      42.717 -16.981   3.078  1.00  0.00     0.007 A 
HETATM   22  C   UNL     1      42.976 -18.048   2.215  1.00  0.00     0.001 A 
HETATM   23  C   UNL     1      43.785 -19.103   2.630  1.00  0.00     0.000 A 
HETATM   24  C   UNL     1      44.334 -19.092   3.910  1.00  0.00     0.001 A 
HETATM   25  C   UNL     1      44.077 -18.026   4.773  1.00  0.00     0.007 A 
ENDBRANCH  16  20
ENDBRANCH  15  16
ENDBRANCH  12  15
ENDBRANCH   1  11
BRANCH   8  26
HETATM   26  C   UNL     1      43.253 -10.478  11.102  1.00  0.00     0.270 C 
HETATM   27  N   UNL     1      43.607 -11.442  12.006  1.00  0.00    -0.365 N 
HETATM   28  H   UNL     1      44.520 -11.872  11.924  1.00  0.00     0.159 HD
HETATM   29  H   UNL     1      42.966 -11.695  12.741  1.00  0.00     0.159 HD
HETATM   30  O   UNL     1      42.164  -9.918  11.166  1.00  0.00    -0.266 OA
ENDBRANCH   8  26
TORSDOF 6
ENDMDL
MODEL 4
REMARK VINA RESULT:      -8.6      2.471      4.239
REMARK  6 active torsions:
REMARK  status: ('A' for Active; 'I' for Inactive)
REMARK    1  A    between atoms: C_2  and  C_3 
REMARK    2  A    between atoms: C_3  and  C_4 
REMARK    3  A    between atoms: C_3  and  C_10 
REMARK    4  A    between atoms: C_10  and  C_11 
REMARK       I    between atoms: C_11  and  N_12 
REMARK    5  A    between atoms: N_12  and  C_13 
REMARK    6  A    between atoms: C_20  and  C_21 
REMARK       I    between atoms: C_21  and  N_22 
ROOT
HETATM    1  C   UNL     1      40.456 -14.075   0.083  1.00  0.00     0.035 A 
HETATM    2  C   UNL     1      40.998 -12.782   0.082  1.00  0.00     0.046 A 
HETATM    3  C   UNL     1      40.749 -11.922  -1.012  1.00  0.00     0.030 A 
HETATM    4  C   UNL     1      39.972 -12.386  -2.066  1.00  0.00     0.063 A 
HETATM    5  N   UNL     1      39.918 -11.354  -2.959  1.00  0.00    -0.277 N 
HETATM    6  H   UNL     1      39.438 -11.340  -3.853  1.00  0.00     0.189 HD
HETATM    7  N   UNL     1      40.581 -10.251  -2.577  1.00  0.00    -0.168 NA
HETATM    8  C   UNL     1      41.099 -10.585  -1.373  1.00  0.00     0.156 A 
HETATM    9  C   UNL     1      39.412 -13.664  -2.096  1.00  0.00     0.034 A 
HETATM   10  C   UNL     1      39.667 -14.494  -0.997  1.00  0.00     0.032 A 
ENDROOT
BRANCH   1  11
HETATM   11  N   UNL     1      40.647 -15.006   1.126  1.00  0.00    -0.327 N 
HETATM   12  C   UNL     1      41.850 -15.473   1.637  1.00  0.00     0.222 C 
HETATM   13  O   UNL     1      42.970 -15.164   1.250  1.00  0.00    -0.273 OA
HETATM   14  H   UNL     1      39.807 -15.422   1.507  1.00  0.00     0.169 HD
BRANCH  12  15
HETATM   15  C   UNL     1      41.618 -16.468   2.767  1.00  0.00     0.113 C 
BRANCH  15  16
HETATM   16  C   UNL     1      42.877 -16.751   3.618  1.00  0.00     0.030 C 
BRANCH  16  17
HETATM   17  C   UNL     1      42.766 -16.230   5.086  1.00  0.00    -0.014 C 
HETATM   18  C   UNL     1      41.347 -16.403   5.643  1.00  0.00     0.010 C 
HETATM   19  C   UNL     1      43.224 -14.785   5.303  1.00  0.00     0.010 C 
ENDBRANCH  16  17
BRANCH  16  20
HETATM   20  C   UNL     1      43.278 -18.223   3.518  1.00  0.00    -0.053 A 
HETATM   21  C   UNL     1      43.841 -18.922   4.598  1.00  0.00     0.007 A 
HETATM   22  C   UNL     1      44.187 -20.269   4.475  1.00  0.00     0.001 A 
HETATM   23  C   UNL     1      43.974 -20.939   3.272  1.00  0.00     0.000 A 
HETATM   24  C   UNL     1      43.418 -20.260   2.191  1.00  0.00     0.001 A 
HETATM   25  C   UNL     1      43.072 -18.913   2.313  1.00  0.00     0.007 A 
ENDBRANCH  16  20
ENDBRANCH  15  16
ENDBRANCH  12  15
ENDBRANCH   1  11
BRANCH   8  26
HETATM   26  C   UNL     1      41.903  -9.628  -0.600  1.00  0.00     0.270 C 
HETATM   27  N   UNL     1      41.535  -9.523   0.714  1.00  0.00    -0.365 N 
HETATM   28  H   UNL     1      40.770 -10.095   1.050  1.00  0.00     0.159 HD
HETATM   29  H   UNL     1      42.036  -8.897   1.324  1.00  0.00     0.159 HD
HETATM   30  O   UNL     1      42.831  -8.966  -1.052  1.00  0.00    -0.266 OA
ENDBRANCH   8  26
TORSDOF 6
ENDMDL
MODEL 5
REMARK VINA RESULT:      -8.5      4.804      7.745
REMARK  6 active torsions:
REMARK  status: ('A' for Active; 'I' for Inactive)
REMARK    1  A    between atoms: C_2  and  C_3 
REMARK    2  A    between atoms: C_3  and  C_4 
REMARK    3  A    between atoms: C_3  and  C_10 
REMARK    4  A    between atoms: C_10  and  C_11 
REMARK       I    between atoms: C_11  and  N_12 
REMARK    5  A    between atoms: N_12  and  C_13 
REMARK    6  A    between atoms: C_20  and  C_21 
REMARK       I    between atoms: C_21  and  N_22 
ROOT
HETATM    1  C   UNL     1      43.103 -15.709   4.023  1.00  0.00     0.035 A 
HETATM    2  C   UNL     1      43.338 -16.944   4.644  1.00  0.00     0.046 A 
HETATM    3  C   UNL     1      43.471 -18.108   3.854  1.00  0.00     0.030 A 
HETATM    4  C   UNL     1      43.357 -17.998   2.474  1.00  0.00     0.063 A 
HETATM    5  N   UNL     1      43.517 -19.267   1.994  1.00  0.00    -0.277 N 
HETATM    6  H   UNL     1      43.490 -19.565   1.025  1.00  0.00     0.189 HD
HETATM    7  N   UNL     1      43.737 -20.196   2.938  1.00  0.00    -0.168 NA
HETATM    8  C   UNL     1      43.714 -19.495   4.094  1.00  0.00     0.156 A 
HETATM    9  C   UNL     1      43.128 -16.786   1.821  1.00  0.00     0.034 A 
HETATM   10  C   UNL     1      43.008 -15.646   2.626  1.00  0.00     0.032 A 
ENDROOT
BRANCH   1  11
HETATM   11  N   UNL     1      42.956 -14.492   4.723  1.00  0.00    -0.327 N 
HETATM   12  C   UNL     1      41.849 -14.051   5.435  1.00  0.00     0.222 C 
HETATM   13  O   UNL     1      40.787 -14.645   5.564  1.00  0.00    -0.273 OA
HETATM   14  H   UNL     1      43.730 -13.845   4.650  1.00  0.00     0.169 HD
BRANCH  12  15
HETATM   15  C   UNL     1      42.103 -12.681   6.050  1.00  0.00     0.113 C 
BRANCH  15  16
HETATM   16  C   UNL     1      43.322 -11.944   5.449  1.00  0.00     0.030 C 
BRANCH  16  17
HETATM   17  C   UNL     1      42.938 -10.881   4.370  1.00  0.00    -0.014 C 
HETATM   18  C   UNL     1      41.633 -10.157   4.729  1.00  0.00     0.010 C 
HETATM   19  C   UNL     1      42.849 -11.408   2.935  1.00  0.00     0.010 C 
ENDBRANCH  16  17
BRANCH  16  20
HETATM   20  C   UNL     1      44.224 -11.396   6.555  1.00  0.00    -0.053 A 
HETATM   21  C   UNL     1      45.610 -11.251   6.391  1.00  0.00     0.007 A 
HETATM   22  C   UNL     1      46.403 -10.738   7.420  1.00  0.00     0.001 A 
HETATM   23  C   UNL     1      45.821 -10.360   8.628  1.00  0.00     0.000 A 
HETATM   24  C   UNL     1      44.448 -10.498   8.808  1.00  0.00     0.001 A 
HETATM   25  C   UNL     1      43.655 -11.011   7.780  1.00  0.00     0.007 A 
ENDBRANCH  16  20
ENDBRANCH  15  16
ENDBRANCH  12  15
ENDBRANCH   1  11
BRANCH   8  26
HETATM   26  C   UNL     1      43.929 -20.158   5.389  1.00  0.00     0.270 C 
HETATM   27  N   UNL     1      44.751 -21.250   5.325  1.00  0.00    -0.365 N 
HETATM   28  H   UNL     1      45.144 -21.510   4.429  1.00  0.00     0.159 HD
HETATM   29  H   UNL     1      44.963 -21.763   6.166  1.00  0.00     0.159 HD
HETATM   30  O   UNL     1      43.438 -19.795   6.452  1.00  0.00    -0.266 OA
ENDBRANCH   8  26
TORSDOF 6
ENDMDL
MODEL 6
REMARK VINA RESULT:      -8.5      5.805      9.221
REMARK  6 active torsions:
REMARK  status: ('A' for Active; 'I' for Inactive)
REMARK    1  A    between atoms: C_2  and  C_3 
REMARK    2  A    between atoms: C_3  and  C_4 
REMARK    3  A    between atoms: C_3  and  C_10 
REMARK    4  A    between atoms: C_10  and  C_11 
REMARK       I    between atoms: C_11  and  N_12 
REMARK    5  A    between atoms: N_12  and  C_13 
REMARK    6  A    between atoms: C_20  and  C_21 
REMARK       I    between atoms: C_21  and  N_22 
ROOT
HETATM    1  C   UNL     1      44.267 -11.755   6.585  1.00  0.00     0.035 A 
HETATM    2  C   UNL     1      43.497 -11.220   7.628  1.00  0.00     0.046 A 
HETATM    3  C   UNL     1      44.118 -10.418   8.612  1.00  0.00     0.030 A 
HETATM    4  C   UNL     1      45.483 -10.183   8.523  1.00  0.00     0.063 A 
HETATM    5  N   UNL     1      45.788  -9.399   9.600  1.00  0.00    -0.277 N 
HETATM    6  H   UNL     1      46.700  -9.037   9.857  1.00  0.00     0.189 HD
HETATM    7  N   UNL     1      44.740  -9.090  10.379  1.00  0.00    -0.168 NA
HETATM    8  C   UNL     1      43.697  -9.710   9.780  1.00  0.00     0.156 A 
HETATM    9  C   UNL     1      46.280 -10.694   7.498  1.00  0.00     0.034 A 
HETATM   10  C   UNL     1      45.641 -11.480   6.531  1.00  0.00     0.032 A 
ENDROOT
BRANCH   1  11
HETATM   11  N   UNL     1      43.743 -12.566   5.557  1.00  0.00    -0.327 N 
HETATM   12  C   UNL     1      43.539 -12.224   4.227  1.00  0.00     0.222 C 
HETATM   13  O   UNL     1      43.764 -11.135   3.716  1.00  0.00    -0.273 OA
HETATM   14  H   UNL     1      43.431 -13.487   5.837  1.00  0.00     0.169 HD
BRANCH  12  15
HETATM   15  C   UNL     1      42.960 -13.395   3.443  1.00  0.00     0.113 C 
BRANCH  15  16
HETATM   16  C   UNL     1      42.382 -14.518   4.334  1.00  0.00     0.030 C 
BRANCH  16  17
HETATM   17  C   UNL     1      40.830 -14.450   4.494  1.00  0.00    -0.014 C 
HETATM   18  C   UNL     1      40.173 -13.701   3.327  1.00  0.00     0.010 C 
HETATM   19  C   UNL     1      40.334 -13.863   5.819  1.00  0.00     0.010 C 
ENDBRANCH  16  17
BRANCH  16  20
HETATM   20  C   UNL     1      42.892 -15.886   3.880  1.00  0.00    -0.053 A 
HETATM   21  C   UNL     1      42.710 -16.358   2.571  1.00  0.00     0.007 A 
HETATM   22  C   UNL     1      43.198 -17.609   2.188  1.00  0.00     0.001 A 
HETATM   23  C   UNL     1      43.876 -18.406   3.106  1.00  0.00     0.000 A 
HETATM   24  C   UNL     1      44.065 -17.954   4.409  1.00  0.00     0.001 A 
HETATM   25  C   UNL     1      43.577 -16.704   4.794  1.00  0.00     0.007 A 
ENDBRANCH  16  20
ENDBRANCH  15  16
ENDBRANCH  12  15
ENDBRANCH   1  11
BRANCH   8  26
HETATM   26  C   UNL     1      42.337  -9.610  10.329  1.00  0.00     0.270 C 
HETATM   27  N   UNL     1      42.144 -10.331  11.476  1.00  0.00    -0.365 N 
HETATM   28  H   UNL     1      42.922 -10.856  11.855  1.00  0.00     0.159 HD
HETATM   29  H   UNL     1      41.245 -10.314  11.929  1.00  0.00     0.159 HD
HETATM   30  O   UNL     1      41.431  -8.947   9.837  1.00  0.00    -0.266 OA
ENDBRANCH   8  26
TORSDOF 6
ENDMDL
MODEL 7
REMARK VINA RESULT:      -8.3      2.129      3.134
REMARK  6 active torsions:
REMARK  status: ('A' for Active; 'I' for Inactive)
REMARK    1  A    between atoms: C_2  and  C_3 
REMARK    2  A    between atoms: C_3  and  C_4 
REMARK    3  A    between atoms: C_3  and  C_10 
REMARK    4  A    between atoms: C_10  and  C_11 
REMARK       I    between atoms: C_11  and  N_12 
REMARK    5  A    between atoms: N_12  and  C_13 
REMARK    6  A    between atoms: C_20  and  C_21 
REMARK       I    between atoms: C_21  and  N_22 
ROOT
HETATM    1  C   UNL     1      40.044 -13.846  -0.671  1.00  0.00     0.035 A 
HETATM    2  C   UNL     1      39.312 -12.717  -0.275  1.00  0.00     0.046 A 
HETATM    3  C   UNL     1      38.309 -12.203  -1.128  1.00  0.00     0.030 A 
HETATM    4  C   UNL     1      38.077 -12.828  -2.346  1.00  0.00     0.063 A 
HETATM    5  N   UNL     1      37.078 -12.111  -2.939  1.00  0.00    -0.277 N 
HETATM    6  H   UNL     1      36.656 -12.280  -3.846  1.00  0.00     0.189 HD
HETATM    7  N   UNL     1      36.626 -11.077  -2.211  1.00  0.00    -0.168 NA
HETATM    8  C   UNL     1      37.376 -11.122  -1.086  1.00  0.00     0.156 A 
HETATM    9  C   UNL     1      38.783 -13.955  -2.771  1.00  0.00     0.034 A 
HETATM   10  C   UNL     1      39.766 -14.451  -1.905  1.00  0.00     0.032 A 
ENDROOT
BRANCH   1  11
HETATM   11  N   UNL     1      41.064 -14.434   0.107  1.00  0.00    -0.327 N 
HETATM   12  C   UNL     1      40.931 -15.421   1.074  1.00  0.00     0.222 C 
HETATM   13  O   UNL     1      39.885 -15.943   1.437  1.00  0.00    -0.273 OA
HETATM   14  H   UNL     1      41.992 -14.052  -0.020  1.00  0.00     0.169 HD
BRANCH  12  15
HETATM   15  C   UNL     1      42.282 -15.785   1.676  1.00  0.00     0.113 C 
BRANCH  15  16
HETATM   16  C   UNL     1      42.190 -16.767   2.866  1.00  0.00     0.030 C 
BRANCH  16  17
HETATM   17  C   UNL     1      43.378 -17.779   2.931  1.00  0.00    -0.014 C 
HETATM   18  C   UNL     1      43.088 -19.047   2.117  1.00  0.00     0.010 C 
HETATM   19  C   UNL     1      43.825 -18.173   4.342  1.00  0.00     0.010 C 
ENDBRANCH  16  17
BRANCH  16  20
HETATM   20  C   UNL     1      41.955 -16.012   4.174  1.00  0.00    -0.053 A 
HETATM   21  C   UNL     1      40.907 -16.335   5.049  1.00  0.00     0.007 A 
HETATM   22  C   UNL     1      40.727 -15.631   6.242  1.00  0.00     0.001 A 
HETATM   23  C   UNL     1      41.594 -14.594   6.578  1.00  0.00     0.000 A 
HETATM   24  C   UNL     1      42.639 -14.259   5.721  1.00  0.00     0.001 A 
HETATM   25  C   UNL     1      42.819 -14.963   4.529  1.00  0.00     0.007 A 
ENDBRANCH  16  20
ENDBRANCH  15  16
ENDBRANCH  12  15
ENDBRANCH   1  11
BRANCH   8  26
HETATM   26  C   UNL     1      37.181 -10.144  -0.005  1.00  0.00     0.270 C 
HETATM   27  N   UNL     1      36.518 -10.642   1.084  1.00  0.00    -0.365 N 
HETATM   28  H   UNL     1      36.226 -11.611   1.073  1.00  0.00     0.159 HD
HETATM   29  H   UNL     1      36.348 -10.046   1.878  1.00  0.00     0.159 HD
HETATM   30  O   UNL     1      37.567  -8.981  -0.035  1.00  0.00    -0.266 OA
ENDBRANCH   8  26
TORSDOF 6
ENDMDL
MODEL 8
REMARK VINA RESULT:      -8.0      4.969      7.607
REMARK  6 active torsions:
REMARK  status: ('A' for Active; 'I' for Inactive)
REMARK    1  A    between atoms: C_2  and  C_3 
REMARK    2  A    between atoms: C_3  and  C_4 
REMARK    3  A    between atoms: C_3  and  C_10 
REMARK    4  A    between atoms: C_10  and  C_11 
REMARK       I    between atoms: C_11  and  N_12 
REMARK    5  A    between atoms: N_12  and  C_13 
REMARK    6  A    between atoms: C_20  and  C_21 
REMARK       I    between atoms: C_21  and  N_22 
ROOT
HETATM    1  C   UNL     1      43.199 -12.197   5.574  1.00  0.00     0.035 A 
HETATM    2  C   UNL     1      42.104 -11.376   5.878  1.00  0.00     0.046 A 
HETATM    3  C   UNL     1      42.178 -10.495   6.981  1.00  0.00     0.030 A 
HETATM    4  C   UNL     1      43.339 -10.470   7.743  1.00  0.00     0.063 A 
HETATM    5  N   UNL     1      43.110  -9.547   8.723  1.00  0.00    -0.277 N 
HETATM    6  H   UNL     1      43.743  -9.270   9.466  1.00  0.00     0.189 HD
HETATM    7  N   UNL     1      41.906  -8.956   8.663  1.00  0.00    -0.168 NA
HETATM    8  C   UNL     1      41.318  -9.530   7.588  1.00  0.00     0.156 A 
HETATM    9  C   UNL     1      44.449 -11.269   7.467  1.00  0.00     0.034 A 
HETATM   10  C   UNL     1      44.354 -12.128   6.365  1.00  0.00     0.032 A 
ENDROOT
BRANCH   1  11
HETATM   11  N   UNL     1      43.223 -13.108   4.497  1.00  0.00    -0.327 N 
HETATM   12  C   UNL     1      43.239 -12.817   3.140  1.00  0.00     0.222 C 
HETATM   13  O   UNL     1      43.215 -11.702   2.638  1.00  0.00    -0.273 OA
HETATM   14  H   UNL     1      43.168 -14.087   4.745  1.00  0.00     0.169 HD
BRANCH  12  15
HETATM   15  C   UNL     1      43.272 -14.092   2.306  1.00  0.00     0.113 C 
BRANCH  15  16
HETATM   16  C   UNL     1      42.259 -15.166   2.768  1.00  0.00     0.030 C 
BRANCH  16  17
HETATM   17  C   UNL     1      41.105 -15.414   1.745  1.00  0.00    -0.014 C 
HETATM   18  C   UNL     1      41.016 -14.288   0.707  1.00  0.00     0.010 C 
HETATM   19  C   UNL     1      39.723 -15.647   2.363  1.00  0.00     0.010 C 
ENDBRANCH  16  17
BRANCH  16  20
HETATM   20  C   UNL     1      42.982 -16.442   3.199  1.00  0.00    -0.053 A 
HETATM   21  C   UNL     1      43.579 -16.576   4.462  1.00  0.00     0.007 A 
HETATM   22  C   UNL     1      44.223 -17.761   4.827  1.00  0.00     0.001 A 
HETATM   23  C   UNL     1      44.279 -18.829   3.935  1.00  0.00     0.000 A 
HETATM   24  C   UNL     1      43.693 -18.712   2.677  1.00  0.00     0.001 A 
HETATM   25  C   UNL     1      43.049 -17.529   2.312  1.00  0.00     0.007 A 
ENDBRANCH  16  20
ENDBRANCH  15  16
ENDBRANCH  12  15
ENDBRANCH   1  11
BRANCH   8  26
HETATM   26  C   UNL     1      39.963  -9.143   7.168  1.00  0.00     0.270 C 
HETATM   27  N   UNL     1      39.929  -8.377   6.035  1.00  0.00    -0.365 N 
HETATM   28  H   UNL     1      40.803  -8.145   5.579  1.00  0.00     0.159 HD
HETATM   29  H   UNL     1      39.042  -8.072   5.666  1.00  0.00     0.159 HD
HETATM   30  O   UNL     1      38.931  -9.461   7.749  1.00  0.00    -0.266 OA
ENDBRANCH   8  26
TORSDOF 6
ENDMDL
MODEL 9
REMARK VINA RESULT:      -7.9      5.721      8.574
REMARK  6 active torsions:
REMARK  status: ('A' for Active; 'I' for Inactive)
REMARK    1  A    between atoms: C_2  and  C_3 
REMARK    2  A    between atoms: C_3  and  C_4 
REMARK    3  A    between atoms: C_3  and  C_10 
REMARK    4  A    between atoms: C_10  and  C_11 
REMARK       I    between atoms: C_11  and  N_12 
REMARK    5  A    between atoms: N_12  and  C_13 
REMARK    6  A    between atoms: C_20  and  C_21 
REMARK       I    between atoms: C_21  and  N_22 
ROOT
HETATM    1  C   UNL     1      43.876 -11.705   6.454  1.00  0.00     0.035 A 
HETATM    2  C   UNL     1      43.129 -10.587   6.851  1.00  0.00     0.046 A 
HETATM    3  C   UNL     1      43.763  -9.541   7.560  1.00  0.00     0.030 A 
HETATM    4  C   UNL     1      45.116  -9.652   7.851  1.00  0.00     0.063 A 
HETATM    5  N   UNL     1      45.435  -8.515   8.539  1.00  0.00    -0.277 N 
HETATM    6  H   UNL     1      46.341  -8.258   8.915  1.00  0.00     0.189 HD
HETATM    7  N   UNL     1      44.411  -7.664   8.712  1.00  0.00    -0.168 NA
HETATM    8  C   UNL     1      43.370  -8.283   8.110  1.00  0.00     0.156 A 
HETATM    9  C   UNL     1      45.892 -10.747   7.468  1.00  0.00     0.034 A 
HETATM   10  C   UNL     1      45.243 -11.767   6.760  1.00  0.00     0.032 A 
ENDROOT
BRANCH   1  11
HETATM   11  N   UNL     1      43.337 -12.799   5.745  1.00  0.00    -0.327 N 
HETATM   12  C   UNL     1      43.272 -12.969   4.368  1.00  0.00     0.222 C 
HETATM   13  O   UNL     1      43.660 -12.175   3.521  1.00  0.00    -0.273 OA
HETATM   14  H   UNL     1      42.899 -13.518   6.306  1.00  0.00     0.169 HD
BRANCH  12  15
HETATM   15  C   UNL     1      42.619 -14.297   4.010  1.00  0.00     0.113 C 
BRANCH  15  16
HETATM   16  C   UNL     1      42.985 -15.452   4.971  1.00  0.00     0.030 C 
BRANCH  16  17
HETATM   17  C   UNL     1      41.946 -15.662   6.118  1.00  0.00    -0.014 C 
HETATM   18  C   UNL     1      42.454 -16.659   7.167  1.00  0.00     0.010 C 
HETATM   19  C   UNL     1      40.543 -16.073   5.662  1.00  0.00     0.010 C 
ENDBRANCH  16  17
BRANCH  16  20
HETATM   20  C   UNL     1      43.301 -16.727   4.189  1.00  0.00    -0.053 A 
HETATM   21  C   UNL     1      44.143 -17.729   4.696  1.00  0.00     0.007 A 
HETATM   22  C   UNL     1      44.402 -18.887   3.958  1.00  0.00     0.001 A 
HETATM   23  C   UNL     1      43.822 -19.060   2.704  1.00  0.00     0.000 A 
HETATM   24  C   UNL     1      42.986 -18.076   2.186  1.00  0.00     0.001 A 
HETATM   25  C   UNL     1      42.726 -16.919   2.922  1.00  0.00     0.007 A 
ENDBRANCH  16  20
ENDBRANCH  15  16
ENDBRANCH  12  15
ENDBRANCH   1  11
BRANCH   8  26
HETATM   26  C   UNL     1      42.038  -7.662   8.070  1.00  0.00     0.270 C 
HETATM   27  N   UNL     1      41.421  -7.587   9.289  1.00  0.00    -0.365 N 
HETATM   28  H   UNL     1      41.908  -7.943  10.102  1.00  0.00     0.159 HD
HETATM   29  H   UNL     1      40.508  -7.167   9.360  1.00  0.00     0.159 HD
HETATM   30  O   UNL     1      41.495  -7.232   7.058  1.00  0.00    -0.266 OA
ENDBRANCH   8  26
TORSDOF 6
ENDMDL
MODEL 10
REMARK VINA RESULT:      -7.9      5.164      7.301
REMARK  6 active torsions:
REMARK  status: ('A' for Active; 'I' for Inactive)
REMARK    1  A    between atoms: C_2  and  C_3 
REMARK    2  A    between atoms: C_3  and  C_4 
REMARK    3  A    between atoms: C_3  and  C_10 
REMARK    4  A    between atoms: C_10  and  C_11 
REMARK       I    between atoms: C_11  and  N_12 
REMARK    5  A    between atoms: N_12  and  C_13 
REMARK    6  A    between atoms: C_20  and  C_21 
REMARK       I    between atoms: C_21  and  N_22 
ROOT
HETATM    1  C   UNL     1      39.448 -12.241   5.142  1.00  0.00     0.035 A 
HETATM    2  C   UNL     1      39.528 -11.731   6.445  1.00  0.00     0.046 A 
HETATM    3  C   UNL     1      39.292 -10.356   6.671  1.00  0.00     0.030 A 
HETATM    4  C   UNL     1      38.991  -9.540   5.589  1.00  0.00     0.063 A 
HETATM    5  N   UNL     1      38.829  -8.288   6.111  1.00  0.00    -0.277 N 
HETATM    6  H   UNL     1      38.605  -7.436   5.608  1.00  0.00     0.189 HD
HETATM    7  N   UNL     1      38.986  -8.215   7.443  1.00  0.00    -0.168 NA
HETATM    8  C   UNL     1      39.271  -9.487   7.805  1.00  0.00     0.156 A 
HETATM    9  C   UNL     1      38.898 -10.013   4.279  1.00  0.00     0.034 A 
HETATM   10  C   UNL     1      39.128 -11.381   4.082  1.00  0.00     0.032 A 
ENDROOT
BRANCH   1  11
HETATM   11  N   UNL     1      39.666 -13.595   4.813  1.00  0.00    -0.327 N 
HETATM   12  C   UNL     1      40.876 -14.275   4.774  1.00  0.00     0.222 C 
HETATM   13  O   UNL     1      41.981 -13.801   5.004  1.00  0.00    -0.273 OA
HETATM   14  H   UNL     1      38.850 -14.116   4.519  1.00  0.00     0.169 HD
BRANCH  12  15
HETATM   15  C   UNL     1      40.674 -15.732   4.378  1.00  0.00     0.113 C 
BRANCH  15  16
HETATM   16  C   UNL     1      41.390 -16.127   3.065  1.00  0.00     0.030 C 
BRANCH  16  17
HETATM   17  C   UNL     1      41.835 -14.900   2.206  1.00  0.00    -0.014 C 
HETATM   18  C   UNL     1      41.014 -14.785   0.915  1.00  0.00     0.010 C 
HETATM   19  C   UNL     1      43.327 -14.847   1.867  1.00  0.00     0.010 C 
ENDBRANCH  16  17
BRANCH  16  20
HETATM   20  C   UNL     1      42.516 -17.123   3.341  1.00  0.00    -0.053 A 
HETATM   21  C   UNL     1      43.293 -17.074   4.508  1.00  0.00     0.007 A 
HETATM   22  C   UNL     1      44.307 -18.007   4.733  1.00  0.00     0.001 A 
HETATM   23  C   UNL     1      44.559 -19.004   3.794  1.00  0.00     0.000 A 
HETATM   24  C   UNL     1      43.799 -19.067   2.629  1.00  0.00     0.001 A 
HETATM   25  C   UNL     1      42.785 -18.135   2.404  1.00  0.00     0.007 A 
ENDBRANCH  16  20
ENDBRANCH  15  16
ENDBRANCH  12  15
ENDBRANCH   1  11
BRANCH   8  26
HETATM   26  C   UNL     1      39.508  -9.840   9.212  1.00  0.00     0.270 C 
HETATM   27  N   UNL     1      38.586 -10.709   9.732  1.00  0.00    -0.365 N 
HETATM   28  H   UNL     1      37.841 -11.040   9.132  1.00  0.00     0.159 HD
HETATM   29  H   UNL     1      38.674 -11.015  10.687  1.00  0.00     0.159 HD
HETATM   30  O   UNL     1      40.437  -9.420   9.894  1.00  0.00    -0.266 OA
ENDBRANCH   8  26
TORSDOF 6
ENDMDL
