MODEL 1
REMARK VINA RESULT:     -10.3      0.000      0.000
REMARK  10 active torsions:
REMARK  status: ('A' for Active; 'I' for Inactive)
REMARK    1  A    between atoms: S_2  and  C_3 
REMARK    2  A    between atoms: C_5  and  N_6 
REMARK    3  A    between atoms: N_6  and  C_7 
REMARK    4  A    between atoms: C_11  and  C_12 
REMARK       I    between atoms: C_12  and  N_13 
REMARK    5  A    between atoms: N_13  and  C_14 
REMARK    6  A    between atoms: C_14  and  C_15 
REMARK    7  A    between atoms: C_15  and  C_16 
REMARK    8  A    between atoms: C_16  and  N_17 
REMARK    9  A    between atoms: C_21  and  C_22 
REMARK   10  A    between atoms: C_22  and  C_23 
ROOT
HETATM    1  C   UNL     1      43.732 -16.023   5.737  1.00  0.00     0.252 C 
HETATM    2  N   UNL     1      42.813 -15.086   6.161  1.00  0.00    -0.357 N 
HETATM    3  O   UNL     1      44.719 -16.315   6.405  1.00  0.00    -0.268 OA
HETATM    4  H   UNL     1      42.164 -14.778   5.445  1.00  0.00     0.162 HD
ENDROOT
BRANCH   1   5
HETATM    5  C   UNL     1      43.631 -16.551   4.340  1.00  0.00     0.048 A 
HETATM    6  C   UNL     1      43.697 -17.903   3.942  1.00  0.00     0.009 A 
HETATM    7  C   UNL     1      43.273 -18.170   2.622  1.00  0.00     0.070 A 
HETATM    8  C   UNL     1      44.166 -18.989   4.730  1.00  0.00     0.015 A 
HETATM    9  N   UNL     1      42.877 -17.215   1.763  1.00  0.00    -0.231 NA
HETATM   10  C   UNL     1      43.247 -19.481   2.173  1.00  0.00     0.032 A 
HETATM   11  C   UNL     1      42.888 -15.925   2.127  1.00  0.00     0.129 A 
HETATM   12  C   UNL     1      43.306 -15.568   3.396  1.00  0.00     0.068 A 
HETATM   13  C   UNL     1      43.656 -20.547   2.974  1.00  0.00     0.002 A 
HETATM   14  C   UNL     1      44.132 -20.299   4.252  1.00  0.00     0.001 A 
BRANCH  11  15
HETATM   15  N   UNL     1      42.550 -14.874   1.239  1.00  0.00    -0.341 N 
HETATM   16  H   UNL     1      43.375 -14.301   1.069  1.00  0.00     0.167 HD
BRANCH  15  17
HETATM   17  C   UNL     1      41.448 -13.986   1.288  1.00  0.00     0.034 A 
HETATM   18  C   UNL     1      40.952 -13.297   0.177  1.00  0.00     0.048 A 
HETATM   19  C   UNL     1      39.803 -12.502   0.279  1.00  0.00     0.002 A 
HETATM   20  C   UNL     1      39.128 -12.413   1.499  1.00  0.00     0.018 A 
HETATM   21  C   UNL     1      39.607 -13.098   2.613  1.00  0.00     0.004 A 
HETATM   22  C   UNL     1      40.754 -13.882   2.504  1.00  0.00     0.029 A 
BRANCH  19  23
HETATM   23  S   UNL     1      39.189 -11.668  -1.174  1.00  0.00    -0.134 SA
HETATM   24  C   UNL     1      40.118 -12.567  -2.443  1.00  0.00     0.095 C 
ENDBRANCH  19  23
ENDBRANCH  15  17
ENDBRANCH  11  15
ENDBRANCH   1   5
BRANCH   2  25
HETATM   25  C   UNL     1      43.079 -14.051   7.149  1.00  0.00     0.124 C 
BRANCH  25  26
HETATM   26  C   UNL     1      43.942 -12.820   6.822  1.00  0.00     0.047 C 
BRANCH  26  27
HETATM   27  C   UNL     1      43.387 -11.392   6.725  1.00  0.00     0.236 C 
BRANCH  27  28
HETATM   28  N   UNL     1      44.003 -10.295   7.603  1.00  0.00    -0.071 N 
HETATM   29  H   UNL     1      44.542  -9.688   6.973  1.00  0.00     0.279 HD
HETATM   30  C   UNL     1      42.871  -9.435   8.159  1.00  0.00     0.235 C 
HETATM   31  C   UNL     1      43.384  -8.347   9.099  1.00  0.00     0.032 C 
HETATM   32  C   UNL     1      44.286  -8.893  10.218  1.00  0.00    -0.007 C 
HETATM   33  C   UNL     1      45.446  -9.619   9.538  1.00  0.00     0.032 C 
HETATM   34  C   UNL     1      44.966 -10.759   8.655  1.00  0.00     0.235 C 
BRANCH  32  35
HETATM   35  C   UNL     1      43.477  -9.761  11.214  1.00  0.00     0.043 C 
BRANCH  35  36
HETATM   36  C   UNL     1      42.962  -9.049  12.442  1.00  0.00    -0.058 A 
HETATM   37  C   UNL     1      41.934  -9.608  13.210  1.00  0.00     0.007 A 
HETATM   38  C   UNL     1      41.502  -8.976  14.380  1.00  0.00     0.001 A 
HETATM   39  C   UNL     1      42.088  -7.780  14.792  1.00  0.00     0.000 A 
HETATM   40  C   UNL     1      43.100  -7.208  14.030  1.00  0.00     0.001 A 
HETATM   41  C   UNL     1      43.528  -7.836  12.861  1.00  0.00     0.007 A 
ENDBRANCH  35  36
ENDBRANCH  32  35
ENDBRANCH  27  28
ENDBRANCH  26  27
ENDBRANCH  25  26
ENDBRANCH   2  25
TORSDOF 10
ENDMDL
MODEL 2
REMARK VINA RESULT:     -10.2      3.778     11.511
REMARK  10 active torsions:
REMARK  status: ('A' for Active; 'I' for Inactive)
REMARK    1  A    between atoms: S_2  and  C_3 
REMARK    2  A    between atoms: C_5  and  N_6 
REMARK    3  A    between atoms: N_6  and  C_7 
REMARK    4  A    between atoms: C_11  and  C_12 
REMARK       I    between atoms: C_12  and  N_13 
REMARK    5  A    between atoms: N_13  and  C_14 
REMARK    6  A    between atoms: C_14  and  C_15 
REMARK    7  A    between atoms: C_15  and  C_16 
REMARK    8  A    between atoms: C_16  and  N_17 
REMARK    9  A    between atoms: C_21  and  C_22 
REMARK   10  A    between atoms: C_22  and  C_23 
ROOT
HETATM    1  C   UNL     1      41.144  -9.814   6.920  1.00  0.00     0.252 C 
HETATM    2  N   UNL     1      40.378 -10.941   7.138  1.00  0.00    -0.357 N 
HETATM    3  O   UNL     1      40.978  -9.093   5.943  1.00  0.00    -0.268 OA
HETATM    4  H   UNL     1      40.738 -11.564   7.853  1.00  0.00     0.162 HD
ENDROOT
BRANCH   1   5
HETATM    5  C   UNL     1      42.337  -9.576   7.792  1.00  0.00     0.048 A 
HETATM    6  C   UNL     1      43.642 -10.076   7.593  1.00  0.00     0.009 A 
HETATM    7  C   UNL     1      44.651  -9.469   8.372  1.00  0.00     0.070 A 
HETATM    8  C   UNL     1      44.013 -11.129   6.714  1.00  0.00     0.015 A 
HETATM    9  N   UNL     1      44.410  -8.514   9.286  1.00  0.00    -0.231 NA
HETATM   10  C   UNL     1      45.969  -9.858   8.191  1.00  0.00     0.032 A 
HETATM   11  C   UNL     1      43.157  -8.098   9.521  1.00  0.00     0.129 A 
HETATM   12  C   UNL     1      42.102  -8.650   8.818  1.00  0.00     0.068 A 
HETATM   13  C   UNL     1      46.330 -10.854   7.284  1.00  0.00     0.002 A 
HETATM   14  C   UNL     1      45.347 -11.503   6.554  1.00  0.00     0.001 A 
BRANCH  11  15
HETATM   15  N   UNL     1      42.839  -7.148  10.522  1.00  0.00    -0.341 N 
HETATM   16  H   UNL     1      43.497  -6.372  10.468  1.00  0.00     0.167 HD
BRANCH  15  17
HETATM   17  C   UNL     1      42.579  -7.357  11.899  1.00  0.00     0.034 A 
HETATM   18  C   UNL     1      42.125  -6.360  12.766  1.00  0.00     0.048 A 
HETATM   19  C   UNL     1      41.803  -6.657  14.097  1.00  0.00     0.002 A 
HETATM   20  C   UNL     1      41.914  -7.970  14.560  1.00  0.00     0.018 A 
HETATM   21  C   UNL     1      42.360  -8.976  13.706  1.00  0.00     0.004 A 
HETATM   22  C   UNL     1      42.684  -8.670  12.385  1.00  0.00     0.029 A 
BRANCH  19  23
HETATM   23  S   UNL     1      41.197  -5.357  15.159  1.00  0.00    -0.134 SA
HETATM   24  C   UNL     1      39.513  -5.967  15.435  1.00  0.00     0.095 C 
ENDBRANCH  19  23
ENDBRANCH  15  17
ENDBRANCH  11  15
ENDBRANCH   1   5
BRANCH   2  25
HETATM   25  C   UNL     1      39.636 -11.651   6.106  1.00  0.00     0.124 C 
BRANCH  25  26
HETATM   26  C   UNL     1      40.281 -12.769   5.269  1.00  0.00     0.047 C 
BRANCH  26  27
HETATM   27  C   UNL     1      41.266 -12.515   4.121  1.00  0.00     0.236 C 
BRANCH  27  28
HETATM   28  N   UNL     1      41.493 -13.616   3.077  1.00  0.00    -0.071 N 
HETATM   29  H   UNL     1      41.067 -13.281   2.204  1.00  0.00     0.279 HD
HETATM   30  C   UNL     1      42.991 -13.720   2.809  1.00  0.00     0.235 C 
HETATM   31  C   UNL     1      43.324 -14.838   1.824  1.00  0.00     0.032 C 
HETATM   32  C   UNL     1      42.723 -16.194   2.226  1.00  0.00    -0.007 C 
HETATM   33  C   UNL     1      41.212 -15.994   2.337  1.00  0.00     0.032 C 
HETATM   34  C   UNL     1      40.851 -14.940   3.370  1.00  0.00     0.235 C 
BRANCH  32  35
HETATM   35  C   UNL     1      43.397 -16.746   3.507  1.00  0.00     0.043 C 
BRANCH  35  36
HETATM   36  C   UNL     1      43.618 -18.239   3.546  1.00  0.00    -0.058 A 
HETATM   37  C   UNL     1      44.012 -18.869   4.732  1.00  0.00     0.007 A 
HETATM   38  C   UNL     1      44.156 -20.259   4.779  1.00  0.00     0.001 A 
HETATM   39  C   UNL     1      43.913 -21.031   3.644  1.00  0.00     0.000 A 
HETATM   40  C   UNL     1      43.534 -20.415   2.456  1.00  0.00     0.001 A 
HETATM   41  C   UNL     1      43.394 -19.029   2.408  1.00  0.00     0.007 A 
ENDBRANCH  35  36
ENDBRANCH  32  35
ENDBRANCH  27  28
ENDBRANCH  26  27
ENDBRANCH  25  26
ENDBRANCH   2  25
TORSDOF 10
ENDMDL
MODEL 3
REMARK VINA RESULT:     -10.1      3.668     11.414
REMARK  10 active torsions:
REMARK  status: ('A' for Active; 'I' for Inactive)
REMARK    1  A    between atoms: S_2  and  C_3 
REMARK    2  A    between atoms: C_5  and  N_6 
REMARK    3  A    between atoms: N_6  and  C_7 
REMARK    4  A    between atoms: C_11  and  C_12 
REMARK       I    between atoms: C_12  and  N_13 
REMARK    5  A    between atoms: N_13  and  C_14 
REMARK    6  A    between atoms: C_14  and  C_15 
REMARK    7  A    between atoms: C_15  and  C_16 
REMARK    8  A    between atoms: C_16  and  N_17 
REMARK    9  A    between atoms: C_21  and  C_22 
REMARK   10  A    between atoms: C_22  and  C_23 
ROOT
HETATM    1  C   UNL     1      41.330  -9.704   6.667  1.00  0.00     0.252 C 
HETATM    2  N   UNL     1      40.524 -10.721   7.135  1.00  0.00    -0.357 N 
HETATM    3  O   UNL     1      41.246  -9.283   5.518  1.00  0.00    -0.268 OA
HETATM    4  H   UNL     1      40.821 -11.122   8.018  1.00  0.00     0.162 HD
ENDROOT
BRANCH   1   5
HETATM    5  C   UNL     1      42.469  -9.238   7.519  1.00  0.00     0.048 A 
HETATM    6  C   UNL     1      43.784  -9.752   7.526  1.00  0.00     0.009 A 
HETATM    7  C   UNL     1      44.744  -8.955   8.186  1.00  0.00     0.070 A 
HETATM    8  C   UNL     1      44.207 -10.984   6.959  1.00  0.00     0.015 A 
HETATM    9  N   UNL     1      44.448  -7.807   8.819  1.00  0.00    -0.231 NA
HETATM   10  C   UNL     1      46.071  -9.357   8.184  1.00  0.00     0.032 A 
HETATM   11  C   UNL     1      43.183  -7.366   8.870  1.00  0.00     0.129 A 
HETATM   12  C   UNL     1      42.172  -8.091   8.267  1.00  0.00     0.068 A 
HETATM   13  C   UNL     1      46.486 -10.541   7.574  1.00  0.00     0.002 A 
HETATM   14  C   UNL     1      45.548 -11.366   6.973  1.00  0.00     0.001 A 
BRANCH  11  15
HETATM   15  N   UNL     1      42.806  -6.202   9.584  1.00  0.00    -0.341 N 
HETATM   16  H   UNL     1      43.457  -5.450   9.366  1.00  0.00     0.167 HD
BRANCH  15  17
HETATM   17  C   UNL     1      42.479  -6.064  10.955  1.00  0.00     0.034 A 
HETATM   18  C   UNL     1      42.393  -7.136  11.848  1.00  0.00     0.048 A 
HETATM   19  C   UNL     1      42.153  -6.919  13.211  1.00  0.00     0.002 A 
HETATM   20  C   UNL     1      42.021  -5.614  13.692  1.00  0.00     0.018 A 
HETATM   21  C   UNL     1      42.110  -4.534  12.816  1.00  0.00     0.004 A 
HETATM   22  C   UNL     1      42.343  -4.760  11.460  1.00  0.00     0.029 A 
BRANCH  19  23
HETATM   23  S   UNL     1      42.083  -8.317  14.317  1.00  0.00    -0.134 SA
HETATM   24  C   UNL     1      40.787  -9.278  13.492  1.00  0.00     0.095 C 
ENDBRANCH  19  23
ENDBRANCH  15  17
ENDBRANCH  11  15
ENDBRANCH   1   5
BRANCH   2  25
HETATM   25  C   UNL     1      39.834 -11.687   6.292  1.00  0.00     0.124 C 
BRANCH  25  26
HETATM   26  C   UNL     1      40.592 -12.797   5.544  1.00  0.00     0.047 C 
BRANCH  26  27
HETATM   27  C   UNL     1      41.418 -12.558   4.273  1.00  0.00     0.236 C 
BRANCH  27  28
HETATM   28  N   UNL     1      41.510 -13.674   3.225  1.00  0.00    -0.071 N 
HETATM   29  H   UNL     1      40.965 -13.356   2.413  1.00  0.00     0.279 HD
HETATM   30  C   UNL     1      42.958 -13.771   2.754  1.00  0.00     0.235 C 
HETATM   31  C   UNL     1      43.162 -14.901   1.749  1.00  0.00     0.032 C 
HETATM   32  C   UNL     1      42.635 -16.256   2.249  1.00  0.00    -0.007 C 
HETATM   33  C   UNL     1      41.152 -16.065   2.565  1.00  0.00     0.032 C 
HETATM   34  C   UNL     1      40.926 -14.997   3.622  1.00  0.00     0.235 C 
BRANCH  32  35
HETATM   35  C   UNL     1      43.484 -16.782   3.434  1.00  0.00     0.043 C 
BRANCH  35  36
HETATM   36  C   UNL     1      43.609 -18.283   3.540  1.00  0.00    -0.058 A 
HETATM   37  C   UNL     1      43.400 -19.095   2.420  1.00  0.00     0.007 A 
HETATM   38  C   UNL     1      43.577 -20.479   2.509  1.00  0.00     0.001 A 
HETATM   39  C   UNL     1      43.958 -21.065   3.715  1.00  0.00     0.000 A 
HETATM   40  C   UNL     1      44.155 -20.270   4.838  1.00  0.00     0.001 A 
HETATM   41  C   UNL     1      43.975 -18.890   4.751  1.00  0.00     0.007 A 
ENDBRANCH  35  36
ENDBRANCH  32  35
ENDBRANCH  27  28
ENDBRANCH  26  27
ENDBRANCH  25  26
ENDBRANCH   2  25
TORSDOF 10
ENDMDL
MODEL 4
REMARK VINA RESULT:     -10.1      3.030      9.714
REMARK  10 active torsions:
REMARK  status: ('A' for Active; 'I' for Inactive)
REMARK    1  A    between atoms: S_2  and  C_3 
REMARK    2  A    between atoms: C_5  and  N_6 
REMARK    3  A    between atoms: N_6  and  C_7 
REMARK    4  A    between atoms: C_11  and  C_12 
REMARK       I    between atoms: C_12  and  N_13 
REMARK    5  A    between atoms: N_13  and  C_14 
REMARK    6  A    between atoms: C_14  and  C_15 
REMARK    7  A    between atoms: C_15  and  C_16 
REMARK    8  A    between atoms: C_16  and  N_17 
REMARK    9  A    between atoms: C_21  and  C_22 
REMARK   10  A    between atoms: C_22  and  C_23 
ROOT
HETATM    1  C   UNL     1      41.349 -11.772   4.466  1.00  0.00     0.252 C 
HETATM    2  N   UNL     1      42.004 -11.833   3.254  1.00  0.00    -0.357 N 
HETATM    3  O   UNL     1      40.310 -11.138   4.615  1.00  0.00    -0.268 OA
HETATM    4  H   UNL     1      42.946 -12.205   3.301  1.00  0.00     0.162 HD
ENDROOT
BRANCH   1   5
HETATM    5  C   UNL     1      42.027 -12.330   5.679  1.00  0.00     0.048 A 
HETATM    6  C   UNL     1      41.989 -13.668   6.127  1.00  0.00     0.009 A 
HETATM    7  C   UNL     1      42.945 -14.008   7.109  1.00  0.00     0.070 A 
HETATM    8  C   UNL     1      41.077 -14.671   5.701  1.00  0.00     0.015 A 
HETATM    9  N   UNL     1      43.811 -13.127   7.638  1.00  0.00    -0.231 NA
HETATM   10  C   UNL     1      43.017 -15.318   7.556  1.00  0.00     0.032 A 
HETATM   11  C   UNL     1      43.789 -11.841   7.259  1.00  0.00     0.129 A 
HETATM   12  C   UNL     1      42.873 -11.413   6.316  1.00  0.00     0.068 A 
HETATM   13  C   UNL     1      42.154 -16.309   7.089  1.00  0.00     0.002 A 
HETATM   14  C   UNL     1      41.170 -15.981   6.170  1.00  0.00     0.001 A 
BRANCH  11  15
HETATM   15  N   UNL     1      44.629 -10.857   7.836  1.00  0.00    -0.341 N 
HETATM   16  H   UNL     1      45.527 -11.278   8.068  1.00  0.00     0.167 HD
BRANCH  15  17
HETATM   17  C   UNL     1      44.341  -9.934   8.872  1.00  0.00     0.034 A 
HETATM   18  C   UNL     1      43.772  -8.676   8.659  1.00  0.00     0.048 A 
HETATM   19  C   UNL     1      43.431  -7.849   9.737  1.00  0.00     0.002 A 
HETATM   20  C   UNL     1      43.640  -8.295  11.044  1.00  0.00     0.018 A 
HETATM   21  C   UNL     1      44.201  -9.549  11.274  1.00  0.00     0.004 A 
HETATM   22  C   UNL     1      44.543 -10.362  10.194  1.00  0.00     0.029 A 
BRANCH  19  23
HETATM   23  S   UNL     1      42.676  -6.264   9.416  1.00  0.00    -0.134 SA
HETATM   24  C   UNL     1      41.093  -6.518  10.260  1.00  0.00     0.095 C 
ENDBRANCH  19  23
ENDBRANCH  15  17
ENDBRANCH  11  15
ENDBRANCH   1   5
BRANCH   2  25
HETATM   25  C   UNL     1      41.843 -10.867   2.176  1.00  0.00     0.124 C 
BRANCH  25  26
HETATM   26  C   UNL     1      40.818 -11.073   1.049  1.00  0.00     0.047 C 
BRANCH  26  27
HETATM   27  C   UNL     1      39.445 -11.728   1.255  1.00  0.00     0.236 C 
BRANCH  27  28
HETATM   28  N   UNL     1      39.344 -13.258   1.267  1.00  0.00    -0.071 N 
HETATM   29  H   UNL     1      38.384 -13.489   0.983  1.00  0.00     0.279 HD
HETATM   30  C   UNL     1      40.256 -13.806   0.172  1.00  0.00     0.235 C 
HETATM   31  C   UNL     1      40.270 -15.333   0.146  1.00  0.00     0.032 C 
HETATM   32  C   UNL     1      40.587 -15.956   1.515  1.00  0.00    -0.007 C 
HETATM   33  C   UNL     1      39.535 -15.435   2.494  1.00  0.00     0.032 C 
HETATM   34  C   UNL     1      39.552 -13.920   2.597  1.00  0.00     0.235 C 
BRANCH  32  35
HETATM   35  C   UNL     1      42.052 -15.673   1.932  1.00  0.00     0.043 C 
BRANCH  35  36
HETATM   36  C   UNL     1      42.777 -16.809   2.612  1.00  0.00    -0.058 A 
HETATM   37  C   UNL     1      42.750 -18.098   2.067  1.00  0.00     0.007 A 
HETATM   38  C   UNL     1      43.472 -19.134   2.666  1.00  0.00     0.001 A 
HETATM   39  C   UNL     1      44.222 -18.896   3.816  1.00  0.00     0.000 A 
HETATM   40  C   UNL     1      44.246 -17.623   4.376  1.00  0.00     0.001 A 
HETATM   41  C   UNL     1      43.522 -16.591   3.781  1.00  0.00     0.007 A 
ENDBRANCH  35  36
ENDBRANCH  32  35
ENDBRANCH  27  28
ENDBRANCH  26  27
ENDBRANCH  25  26
ENDBRANCH   2  25
TORSDOF 10
ENDMDL
MODEL 5
REMARK VINA RESULT:     -10.0      1.508      2.385
REMARK  10 active torsions:
REMARK  status: ('A' for Active; 'I' for Inactive)
REMARK    1  A    between atoms: S_2  and  C_3 
REMARK    2  A    between atoms: C_5  and  N_6 
REMARK    3  A    between atoms: N_6  and  C_7 
REMARK    4  A    between atoms: C_11  and  C_12 
REMARK       I    between atoms: C_12  and  N_13 
REMARK    5  A    between atoms: N_13  and  C_14 
REMARK    6  A    between atoms: C_14  and  C_15 
REMARK    7  A    between atoms: C_15  and  C_16 
REMARK    8  A    between atoms: C_16  and  N_17 
REMARK    9  A    between atoms: C_21  and  C_22 
REMARK   10  A    between atoms: C_22  and  C_23 
ROOT
HETATM    1  C   UNL     1      42.406 -14.249   5.317  1.00  0.00     0.252 C 
HETATM    2  N   UNL     1      43.462 -13.364   5.385  1.00  0.00    -0.357 N 
HETATM    3  O   UNL     1      41.734 -14.538   6.301  1.00  0.00    -0.268 OA
HETATM    4  H   UNL     1      44.065 -13.363   4.570  1.00  0.00     0.162 HD
ENDROOT
BRANCH   1   5
HETATM    5  C   UNL     1      42.199 -15.026   4.055  1.00  0.00     0.048 A 
HETATM    6  C   UNL     1      42.746 -16.290   3.742  1.00  0.00     0.009 A 
HETATM    7  C   UNL     1      42.165 -16.946   2.635  1.00  0.00     0.070 A 
HETATM    8  C   UNL     1      43.820 -16.930   4.416  1.00  0.00     0.015 A 
HETATM    9  N   UNL     1      41.192 -16.408   1.879  1.00  0.00    -0.231 NA
HETATM   10  C   UNL     1      42.601 -18.218   2.300  1.00  0.00     0.032 A 
HETATM   11  C   UNL     1      40.732 -15.177   2.140  1.00  0.00     0.129 A 
HETATM   12  C   UNL     1      41.255 -14.451   3.194  1.00  0.00     0.068 A 
HETATM   13  C   UNL     1      43.619 -18.863   3.004  1.00  0.00     0.002 A 
HETATM   14  C   UNL     1      44.242 -18.210   4.056  1.00  0.00     0.001 A 
BRANCH  11  15
HETATM   15  N   UNL     1      39.760 -14.535   1.333  1.00  0.00    -0.341 N 
HETATM   16  H   UNL     1      38.944 -15.139   1.247  1.00  0.00     0.167 HD
BRANCH  15  17
HETATM   17  C   UNL     1      39.922 -13.901   0.077  1.00  0.00     0.034 A 
HETATM   18  C   UNL     1      40.499 -12.639  -0.090  1.00  0.00     0.048 A 
HETATM   19  C   UNL     1      40.710 -12.109  -1.370  1.00  0.00     0.002 A 
HETATM   20  C   UNL     1      40.362 -12.859  -2.496  1.00  0.00     0.018 A 
HETATM   21  C   UNL     1      39.791 -14.120  -2.346  1.00  0.00     0.004 A 
HETATM   22  C   UNL     1      39.579 -14.637  -1.069  1.00  0.00     0.029 A 
BRANCH  19  23
HETATM   23  S   UNL     1      41.479 -10.507  -1.534  1.00  0.00    -0.134 SA
HETATM   24  C   UNL     1      41.275  -9.909   0.164  1.00  0.00     0.095 C 
ENDBRANCH  19  23
ENDBRANCH  15  17
ENDBRANCH  11  15
ENDBRANCH   1   5
BRANCH   2  25
HETATM   25  C   UNL     1      44.180 -13.022   6.605  1.00  0.00     0.124 C 
BRANCH  25  26
HETATM   26  C   UNL     1      43.747 -11.847   7.498  1.00  0.00     0.047 C 
BRANCH  26  27
HETATM   27  C   UNL     1      44.460 -10.488   7.523  1.00  0.00     0.236 C 
BRANCH  27  28
HETATM   28  N   UNL     1      43.740  -9.281   8.139  1.00  0.00    -0.071 N 
HETATM   29  H   UNL     1      43.236  -8.820   7.370  1.00  0.00     0.279 HD
HETATM   30  C   UNL     1      42.672  -9.799   9.098  1.00  0.00     0.235 C 
HETATM   31  C   UNL     1      41.939  -8.665   9.810  1.00  0.00     0.032 C 
HETATM   32  C   UNL     1      42.889  -7.672  10.499  1.00  0.00    -0.007 C 
HETATM   33  C   UNL     1      43.821  -7.128   9.417  1.00  0.00     0.032 C 
HETATM   34  C   UNL     1      44.621  -8.231   8.745  1.00  0.00     0.235 C 
BRANCH  32  35
HETATM   35  C   UNL     1      43.611  -8.332  11.701  1.00  0.00     0.043 C 
BRANCH  35  36
HETATM   36  C   UNL     1      42.935  -8.178  13.042  1.00  0.00    -0.058 A 
HETATM   37  C   UNL     1      43.289  -7.131  13.900  1.00  0.00     0.007 A 
HETATM   38  C   UNL     1      42.618  -6.957  15.115  1.00  0.00     0.001 A 
HETATM   39  C   UNL     1      41.594  -7.826  15.486  1.00  0.00     0.000 A 
HETATM   40  C   UNL     1      41.244  -8.879  14.648  1.00  0.00     0.001 A 
HETATM   41  C   UNL     1      41.915  -9.056  13.439  1.00  0.00     0.007 A 
ENDBRANCH  35  36
ENDBRANCH  32  35
ENDBRANCH  27  28
ENDBRANCH  26  27
ENDBRANCH  25  26
ENDBRANCH   2  25
TORSDOF 10
ENDMDL
MODEL 6
REMARK VINA RESULT:      -9.9      4.121     11.369
REMARK  10 active torsions:
REMARK  status: ('A' for Active; 'I' for Inactive)
REMARK    1  A    between atoms: S_2  and  C_3 
REMARK    2  A    between atoms: C_5  and  N_6 
REMARK    3  A    between atoms: N_6  and  C_7 
REMARK    4  A    between atoms: C_11  and  C_12 
REMARK       I    between atoms: C_12  and  N_13 
REMARK    5  A    between atoms: N_13  and  C_14 
REMARK    6  A    between atoms: C_14  and  C_15 
REMARK    7  A    between atoms: C_15  and  C_16 
REMARK    8  A    between atoms: C_16  and  N_17 
REMARK    9  A    between atoms: C_21  and  C_22 
REMARK   10  A    between atoms: C_22  and  C_23 
ROOT
HETATM    1  C   UNL     1      41.131  -9.672   6.963  1.00  0.00     0.252 C 
HETATM    2  N   UNL     1      40.315 -10.763   7.180  1.00  0.00    -0.357 N 
HETATM    3  O   UNL     1      41.018  -8.961   5.971  1.00  0.00    -0.268 OA
HETATM    4  H   UNL     1      40.632 -11.388   7.913  1.00  0.00     0.162 HD
ENDROOT
BRANCH   1   5
HETATM    5  C   UNL     1      42.312  -9.468   7.860  1.00  0.00     0.048 A 
HETATM    6  C   UNL     1      43.620  -9.959   7.658  1.00  0.00     0.009 A 
HETATM    7  C   UNL     1      44.619  -9.382   8.473  1.00  0.00     0.070 A 
HETATM    8  C   UNL     1      44.004 -10.976   6.743  1.00  0.00     0.015 A 
HETATM    9  N   UNL     1      44.364  -8.465   9.422  1.00  0.00    -0.231 NA
HETATM   10  C   UNL     1      45.939  -9.764   8.295  1.00  0.00     0.032 A 
HETATM   11  C   UNL     1      43.108  -8.059   9.656  1.00  0.00     0.129 A 
HETATM   12  C   UNL     1      42.063  -8.584   8.918  1.00  0.00     0.068 A 
HETATM   13  C   UNL     1      46.313 -10.723   7.353  1.00  0.00     0.002 A 
HETATM   14  C   UNL     1      45.340 -11.343   6.585  1.00  0.00     0.001 A 
BRANCH  11  15
HETATM   15  N   UNL     1      42.776  -7.150  10.690  1.00  0.00    -0.341 N 
HETATM   16  H   UNL     1      43.412  -6.355  10.654  1.00  0.00     0.167 HD
BRANCH  15  17
HETATM   17  C   UNL     1      42.536  -7.408  12.062  1.00  0.00     0.034 A 
HETATM   18  C   UNL     1      42.071  -6.450  12.966  1.00  0.00     0.048 A 
HETATM   19  C   UNL     1      41.771  -6.797  14.289  1.00  0.00     0.002 A 
HETATM   20  C   UNL     1      41.916  -8.122  14.708  1.00  0.00     0.018 A 
HETATM   21  C   UNL     1      42.373  -9.090  13.817  1.00  0.00     0.004 A 
HETATM   22  C   UNL     1      42.675  -8.734  12.504  1.00  0.00     0.029 A 
BRANCH  19  23
HETATM   23  S   UNL     1      41.148  -5.546  15.399  1.00  0.00    -0.134 SA
HETATM   24  C   UNL     1      40.932  -6.557  16.887  1.00  0.00     0.095 C 
ENDBRANCH  19  23
ENDBRANCH  15  17
ENDBRANCH  11  15
ENDBRANCH   1   5
BRANCH   2  25
HETATM   25  C   UNL     1      39.569 -11.460   6.142  1.00  0.00     0.124 C 
BRANCH  25  26
HETATM   26  C   UNL     1      40.245 -12.464   5.194  1.00  0.00     0.047 C 
BRANCH  26  27
HETATM   27  C   UNL     1      41.649 -13.040   5.423  1.00  0.00     0.236 C 
BRANCH  27  28
HETATM   28  N   UNL     1      41.796 -14.350   6.208  1.00  0.00    -0.071 N 
HETATM   29  H   UNL     1      41.081 -14.328   6.947  1.00  0.00     0.279 HD
HETATM   30  C   UNL     1      41.420 -15.506   5.286  1.00  0.00     0.235 C 
HETATM   31  C   UNL     1      41.595 -16.863   5.963  1.00  0.00     0.032 C 
HETATM   32  C   UNL     1      42.991 -17.056   6.576  1.00  0.00    -0.007 C 
HETATM   33  C   UNL     1      43.199 -15.916   7.572  1.00  0.00     0.032 C 
HETATM   34  C   UNL     1      43.107 -14.553   6.907  1.00  0.00     0.235 C 
BRANCH  32  35
HETATM   35  C   UNL     1      44.076 -17.155   5.474  1.00  0.00     0.043 C 
BRANCH  35  36
HETATM   36  C   UNL     1      43.964 -18.338   4.542  1.00  0.00    -0.058 A 
HETATM   37  C   UNL     1      44.138 -19.640   5.023  1.00  0.00     0.007 A 
HETATM   38  C   UNL     1      43.974 -20.735   4.169  1.00  0.00     0.001 A 
HETATM   39  C   UNL     1      43.640 -20.541   2.830  1.00  0.00     0.000 A 
HETATM   40  C   UNL     1      43.478 -19.251   2.337  1.00  0.00     0.001 A 
HETATM   41  C   UNL     1      43.646 -18.158   3.187  1.00  0.00     0.007 A 
ENDBRANCH  35  36
ENDBRANCH  32  35
ENDBRANCH  27  28
ENDBRANCH  26  27
ENDBRANCH  25  26
ENDBRANCH   2  25
TORSDOF 10
ENDMDL
MODEL 7
REMARK VINA RESULT:      -9.9      2.546      5.475
REMARK  10 active torsions:
REMARK  status: ('A' for Active; 'I' for Inactive)
REMARK    1  A    between atoms: S_2  and  C_3 
REMARK    2  A    between atoms: C_5  and  N_6 
REMARK    3  A    between atoms: N_6  and  C_7 
REMARK    4  A    between atoms: C_11  and  C_12 
REMARK       I    between atoms: C_12  and  N_13 
REMARK    5  A    between atoms: N_13  and  C_14 
REMARK    6  A    between atoms: C_14  and  C_15 
REMARK    7  A    between atoms: C_15  and  C_16 
REMARK    8  A    between atoms: C_16  and  N_17 
REMARK    9  A    between atoms: C_21  and  C_22 
REMARK   10  A    between atoms: C_22  and  C_23 
ROOT
HETATM    1  C   UNL     1      41.499 -11.788   2.554  1.00  0.00     0.252 C 
HETATM    2  N   UNL     1      42.852 -11.874   2.806  1.00  0.00    -0.357 N 
HETATM    3  O   UNL     1      40.793 -10.932   3.077  1.00  0.00    -0.268 OA
HETATM    4  H   UNL     1      43.286 -12.735   2.489  1.00  0.00     0.162 HD
ENDROOT
BRANCH   1   5
HETATM    5  C   UNL     1      40.839 -12.886   1.780  1.00  0.00     0.048 A 
HETATM    6  C   UNL     1      40.254 -12.782   0.499  1.00  0.00     0.009 A 
HETATM    7  C   UNL     1      39.974 -14.009  -0.142  1.00  0.00     0.070 A 
HETATM    8  C   UNL     1      39.911 -11.578  -0.173  1.00  0.00     0.015 A 
HETATM    9  N   UNL     1      40.190 -15.208   0.424  1.00  0.00    -0.231 NA
HETATM   10  C   UNL     1      39.458 -13.995  -1.428  1.00  0.00     0.032 A 
HETATM   11  C   UNL     1      40.677 -15.295   1.670  1.00  0.00     0.129 A 
HETATM   12  C   UNL     1      40.963 -14.145   2.382  1.00  0.00     0.068 A 
HETATM   13  C   UNL     1      39.177 -12.806  -2.102  1.00  0.00     0.002 A 
HETATM   14  C   UNL     1      39.389 -11.593  -1.466  1.00  0.00     0.001 A 
BRANCH  11  15
HETATM   15  N   UNL     1      40.855 -16.530   2.340  1.00  0.00    -0.341 N 
HETATM   16  H   UNL     1      40.057 -16.699   2.950  1.00  0.00     0.167 HD
BRANCH  15  17
HETATM   17  C   UNL     1      41.994 -17.015   3.028  1.00  0.00     0.034 A 
HETATM   18  C   UNL     1      42.247 -16.778   4.381  1.00  0.00     0.048 A 
HETATM   19  C   UNL     1      43.349 -17.362   5.020  1.00  0.00     0.002 A 
HETATM   20  C   UNL     1      44.194 -18.212   4.303  1.00  0.00     0.018 A 
HETATM   21  C   UNL     1      43.952 -18.464   2.954  1.00  0.00     0.004 A 
HETATM   22  C   UNL     1      42.858 -17.873   2.326  1.00  0.00     0.029 A 
BRANCH  19  23
HETATM   23  S   UNL     1      43.613 -17.056   6.758  1.00  0.00    -0.134 SA
HETATM   24  C   UNL     1      42.107 -16.116   7.121  1.00  0.00     0.095 C 
ENDBRANCH  19  23
ENDBRANCH  15  17
ENDBRANCH  11  15
ENDBRANCH   1   5
BRANCH   2  25
HETATM   25  C   UNL     1      43.515 -11.319   3.978  1.00  0.00     0.124 C 
BRANCH  25  26
HETATM   26  C   UNL     1      43.442 -12.006   5.352  1.00  0.00     0.047 C 
BRANCH  26  27
HETATM   27  C   UNL     1      44.529 -11.877   6.427  1.00  0.00     0.236 C 
BRANCH  27  28
HETATM   28  N   UNL     1      44.697 -10.538   7.158  1.00  0.00    -0.071 N 
HETATM   29  H   UNL     1      44.896  -9.835   6.435  1.00  0.00     0.279 HD
HETATM   30  C   UNL     1      43.353 -10.153   7.768  1.00  0.00     0.235 C 
HETATM   31  C   UNL     1      43.435  -8.858   8.572  1.00  0.00     0.032 C 
HETATM   32  C   UNL     1      44.555  -8.873   9.626  1.00  0.00    -0.007 C 
HETATM   33  C   UNL     1      45.862  -9.138   8.880  1.00  0.00     0.032 C 
HETATM   34  C   UNL     1      45.834 -10.461   8.133  1.00  0.00     0.235 C 
BRANCH  32  35
HETATM   35  C   UNL     1      44.242  -9.882  10.759  1.00  0.00     0.043 C 
BRANCH  35  36
HETATM   36  C   UNL     1      43.356  -9.373  11.870  1.00  0.00    -0.058 A 
HETATM   37  C   UNL     1      42.239 -10.108  12.282  1.00  0.00     0.007 A 
HETATM   38  C   UNL     1      41.456  -9.663  13.352  1.00  0.00     0.001 A 
HETATM   39  C   UNL     1      41.778  -8.482  14.017  1.00  0.00     0.000 A 
HETATM   40  C   UNL     1      42.878  -7.735  13.608  1.00  0.00     0.001 A 
HETATM   41  C   UNL     1      43.656  -8.176  12.538  1.00  0.00     0.007 A 
ENDBRANCH  35  36
ENDBRANCH  32  35
ENDBRANCH  27  28
ENDBRANCH  26  27
ENDBRANCH  25  26
ENDBRANCH   2  25
TORSDOF 10
ENDMDL
MODEL 8
REMARK VINA RESULT:      -9.7      2.602     10.165
REMARK  10 active torsions:
REMARK  status: ('A' for Active; 'I' for Inactive)
REMARK    1  A    between atoms: S_2  and  C_3 
REMARK    2  A    between atoms: C_5  and  N_6 
REMARK    3  A    between atoms: N_6  and  C_7 
REMARK    4  A    between atoms: C_11  and  C_12 
REMARK       I    between atoms: C_12  and  N_13 
REMARK    5  A    between atoms: N_13  and  C_14 
REMARK    6  A    between atoms: C_14  and  C_15 
REMARK    7  A    between atoms: C_15  and  C_16 
REMARK    8  A    between atoms: C_16  and  N_17 
REMARK    9  A    between atoms: C_21  and  C_22 
REMARK   10  A    between atoms: C_22  and  C_23 
ROOT
HETATM    1  C   UNL     1      44.187 -10.023   9.406  1.00  0.00     0.252 C 
HETATM    2  N   UNL     1      44.605  -9.860   8.101  1.00  0.00    -0.357 N 
HETATM    3  O   UNL     1      44.730 -10.813  10.170  1.00  0.00    -0.268 OA
HETATM    4  H   UNL     1      43.960  -9.344   7.513  1.00  0.00     0.162 HD
ENDROOT
BRANCH   1   5
HETATM    5  C   UNL     1      42.915  -9.365   9.841  1.00  0.00     0.048 A 
HETATM    6  C   UNL     1      42.721  -8.588  11.004  1.00  0.00     0.009 A 
HETATM    7  C   UNL     1      41.530  -7.830  11.037  1.00  0.00     0.070 A 
HETATM    8  C   UNL     1      43.590  -8.526  12.127  1.00  0.00     0.015 A 
HETATM    9  N   UNL     1      40.601  -7.865  10.067  1.00  0.00    -0.231 NA
HETATM   10  C   UNL     1      41.294  -6.992  12.116  1.00  0.00     0.032 A 
HETATM   11  C   UNL     1      40.761  -8.662   9.001  1.00  0.00     0.129 A 
HETATM   12  C   UNL     1      41.888  -9.455   8.893  1.00  0.00     0.068 A 
HETATM   13  C   UNL     1      42.182  -6.894  13.188  1.00  0.00     0.002 A 
HETATM   14  C   UNL     1      43.327  -7.676  13.201  1.00  0.00     0.001 A 
BRANCH  11  15
HETATM   15  N   UNL     1      39.780  -8.791   7.986  1.00  0.00    -0.341 N 
HETATM   16  H   UNL     1      38.864  -8.896   8.418  1.00  0.00     0.167 HD
BRANCH  15  17
HETATM   17  C   UNL     1      39.783  -9.629   6.845  1.00  0.00     0.034 A 
HETATM   18  C   UNL     1      40.289  -9.247   5.599  1.00  0.00     0.048 A 
HETATM   19  C   UNL     1      40.342 -10.158   4.536  1.00  0.00     0.002 A 
HETATM   20  C   UNL     1      39.906 -11.471   4.726  1.00  0.00     0.018 A 
HETATM   21  C   UNL     1      39.404 -11.868   5.963  1.00  0.00     0.004 A 
HETATM   22  C   UNL     1      39.350 -10.954   7.014  1.00  0.00     0.029 A 
BRANCH  19  23
HETATM   23  S   UNL     1      41.026  -9.634   2.973  1.00  0.00    -0.134 SA
HETATM   24  C   UNL     1      41.763 -11.200   2.437  1.00  0.00     0.095 C 
ENDBRANCH  19  23
ENDBRANCH  15  17
ENDBRANCH  11  15
ENDBRANCH   1   5
BRANCH   2  25
HETATM   25  C   UNL     1      45.378 -10.839   7.350  1.00  0.00     0.124 C 
BRANCH  25  26
HETATM   26  C   UNL     1      44.730 -12.103   6.759  1.00  0.00     0.047 C 
BRANCH  26  27
HETATM   27  C   UNL     1      43.500 -12.793   7.366  1.00  0.00     0.236 C 
BRANCH  27  28
HETATM   28  N   UNL     1      42.623 -13.674   6.467  1.00  0.00    -0.071 N 
HETATM   29  H   UNL     1      41.703 -13.219   6.424  1.00  0.00     0.279 HD
HETATM   30  C   UNL     1      43.189 -13.627   5.051  1.00  0.00     0.235 C 
HETATM   31  C   UNL     1      42.415 -14.528   4.092  1.00  0.00     0.032 C 
HETATM   32  C   UNL     1      42.275 -15.972   4.600  1.00  0.00    -0.007 C 
HETATM   33  C   UNL     1      41.582 -15.897   5.960  1.00  0.00     0.032 C 
HETATM   34  C   UNL     1      42.373 -15.069   6.959  1.00  0.00     0.235 C 
BRANCH  32  35
HETATM   35  C   UNL     1      43.645 -16.695   4.613  1.00  0.00     0.043 C 
BRANCH  35  36
HETATM   36  C   UNL     1      43.681 -18.053   3.955  1.00  0.00    -0.058 A 
HETATM   37  C   UNL     1      44.160 -19.168   4.651  1.00  0.00     0.007 A 
HETATM   38  C   UNL     1      44.134 -20.434   4.058  1.00  0.00     0.001 A 
HETATM   39  C   UNL     1      43.636 -20.598   2.767  1.00  0.00     0.000 A 
HETATM   40  C   UNL     1      43.171 -19.495   2.060  1.00  0.00     0.001 A 
HETATM   41  C   UNL     1      43.200 -18.232   2.649  1.00  0.00     0.007 A 
ENDBRANCH  35  36
ENDBRANCH  32  35
ENDBRANCH  27  28
ENDBRANCH  26  27
ENDBRANCH  25  26
ENDBRANCH   2  25
TORSDOF 10
ENDMDL
MODEL 9
REMARK VINA RESULT:      -9.4      2.834      5.798
REMARK  10 active torsions:
REMARK  status: ('A' for Active; 'I' for Inactive)
REMARK    1  A    between atoms: S_2  and  C_3 
REMARK    2  A    between atoms: C_5  and  N_6 
REMARK    3  A    between atoms: N_6  and  C_7 
REMARK    4  A    between atoms: C_11  and  C_12 
REMARK       I    between atoms: C_12  and  N_13 
REMARK    5  A    between atoms: N_13  and  C_14 
REMARK    6  A    between atoms: C_14  and  C_15 
REMARK    7  A    between atoms: C_15  and  C_16 
REMARK    8  A    between atoms: C_16  and  N_17 
REMARK    9  A    between atoms: C_21  and  C_22 
REMARK   10  A    between atoms: C_22  and  C_23 
ROOT
HETATM    1  C   UNL     1      43.221 -11.902   6.613  1.00  0.00     0.252 C 
HETATM    2  N   UNL     1      44.201 -11.157   5.990  1.00  0.00    -0.357 N 
HETATM    3  O   UNL     1      43.450 -12.575   7.612  1.00  0.00    -0.268 OA
HETATM    4  H   UNL     1      43.950 -10.816   5.068  1.00  0.00     0.162 HD
ENDROOT
BRANCH   1   5
HETATM    5  C   UNL     1      41.892 -12.050   5.938  1.00  0.00     0.048 A 
HETATM    6  C   UNL     1      40.854 -11.094   5.899  1.00  0.00     0.009 A 
HETATM    7  C   UNL     1      39.834 -11.343   4.955  1.00  0.00     0.070 A 
HETATM    8  C   UNL     1      40.739  -9.944   6.726  1.00  0.00     0.015 A 
HETATM    9  N   UNL     1      39.800 -12.433   4.169  1.00  0.00    -0.231 NA
HETATM   10  C   UNL     1      38.810 -10.421   4.808  1.00  0.00     0.032 A 
HETATM   11  C   UNL     1      40.752 -13.372   4.267  1.00  0.00     0.129 A 
HETATM   12  C   UNL     1      41.781 -13.222   5.178  1.00  0.00     0.068 A 
HETATM   13  C   UNL     1      38.737  -9.264   5.586  1.00  0.00     0.002 A 
HETATM   14  C   UNL     1      39.696  -9.033   6.559  1.00  0.00     0.001 A 
BRANCH  11  15
HETATM   15  N   UNL     1      40.725 -14.572   3.515  1.00  0.00    -0.341 N 
HETATM   16  H   UNL     1      39.876 -15.089   3.739  1.00  0.00     0.167 HD
BRANCH  15  17
HETATM   17  C   UNL     1      41.747 -15.538   3.341  1.00  0.00     0.034 A 
HETATM   18  C   UNL     1      42.265 -16.320   4.377  1.00  0.00     0.048 A 
HETATM   19  C   UNL     1      43.212 -17.319   4.119  1.00  0.00     0.002 A 
HETATM   20  C   UNL     1      43.629 -17.556   2.806  1.00  0.00     0.018 A 
HETATM   21  C   UNL     1      43.117 -16.789   1.762  1.00  0.00     0.004 A 
HETATM   22  C   UNL     1      42.180 -15.793   2.029  1.00  0.00     0.029 A 
BRANCH  19  23
HETATM   23  S   UNL     1      43.821 -18.314   5.469  1.00  0.00    -0.134 SA
HETATM   24  C   UNL     1      43.129 -17.378   6.857  1.00  0.00     0.095 C 
ENDBRANCH  19  23
ENDBRANCH  15  17
ENDBRANCH  11  15
ENDBRANCH   1   5
BRANCH   2  25
HETATM   25  C   UNL     1      45.632 -11.394   6.123  1.00  0.00     0.124 C 
BRANCH  25  26
HETATM   26  C   UNL     1      46.484 -10.645   7.161  1.00  0.00     0.047 C 
BRANCH  26  27
HETATM   27  C   UNL     1      45.913  -9.633   8.163  1.00  0.00     0.236 C 
BRANCH  27  28
HETATM   28  N   UNL     1      44.668 -10.013   8.975  1.00  0.00    -0.071 N 
HETATM   29  H   UNL     1      44.257 -10.833   8.511  1.00  0.00     0.279 HD
HETATM   30  C   UNL     1      45.121 -10.485  10.354  1.00  0.00     0.235 C 
HETATM   31  C   UNL     1      43.943 -10.828  11.261  1.00  0.00     0.032 C 
HETATM   32  C   UNL     1      42.908  -9.696  11.360  1.00  0.00    -0.007 C 
HETATM   33  C   UNL     1      42.436  -9.402   9.937  1.00  0.00     0.032 C 
HETATM   34  C   UNL     1      43.581  -8.981   9.031  1.00  0.00     0.235 C 
BRANCH  32  35
HETATM   35  C   UNL     1      43.489  -8.473  12.113  1.00  0.00     0.043 C 
BRANCH  35  36
HETATM   36  C   UNL     1      42.808  -8.112  13.411  1.00  0.00    -0.058 A 
HETATM   37  C   UNL     1      41.729  -8.868  13.882  1.00  0.00     0.007 A 
HETATM   38  C   UNL     1      41.141  -8.568  15.115  1.00  0.00     0.001 A 
HETATM   39  C   UNL     1      41.621  -7.509  15.885  1.00  0.00     0.000 A 
HETATM   40  C   UNL     1      42.683  -6.742  15.421  1.00  0.00     0.001 A 
HETATM   41  C   UNL     1      43.267  -7.039  14.190  1.00  0.00     0.007 A 
ENDBRANCH  35  36
ENDBRANCH  32  35
ENDBRANCH  27  28
ENDBRANCH  26  27
ENDBRANCH  25  26
ENDBRANCH   2  25
TORSDOF 10
ENDMDL
MODEL 10
REMARK VINA RESULT:      -9.2      3.492      9.068
REMARK  10 active torsions:
REMARK  status: ('A' for Active; 'I' for Inactive)
REMARK    1  A    between atoms: S_2  and  C_3 
REMARK    2  A    between atoms: C_5  and  N_6 
REMARK    3  A    between atoms: N_6  and  C_7 
REMARK    4  A    between atoms: C_11  and  C_12 
REMARK       I    between atoms: C_12  and  N_13 
REMARK    5  A    between atoms: N_13  and  C_14 
REMARK    6  A    between atoms: C_14  and  C_15 
REMARK    7  A    between atoms: C_15  and  C_16 
REMARK    8  A    between atoms: C_16  and  N_17 
REMARK    9  A    between atoms: C_21  and  C_22 
REMARK   10  A    between atoms: C_22  and  C_23 
ROOT
HETATM    1  C   UNL     1      39.414 -11.715   6.120  1.00  0.00     0.252 C 
HETATM    2  N   UNL     1      39.175 -11.103   4.907  1.00  0.00    -0.357 N 
HETATM    3  O   UNL     1      38.651 -11.594   7.072  1.00  0.00    -0.268 OA
HETATM    4  H   UNL     1      39.966 -11.101   4.272  1.00  0.00     0.162 HD
ENDROOT
BRANCH   1   5
HETATM    5  C   UNL     1      40.736 -12.380   6.342  1.00  0.00     0.048 A 
HETATM    6  C   UNL     1      41.024 -13.755   6.205  1.00  0.00     0.009 A 
HETATM    7  C   UNL     1      42.395 -14.089   6.169  1.00  0.00     0.070 A 
HETATM    8  C   UNL     1      40.073 -14.808   6.125  1.00  0.00     0.015 A 
HETATM    9  N   UNL     1      43.382 -13.188   6.307  1.00  0.00    -0.231 NA
HETATM   10  C   UNL     1      42.763 -15.411   5.973  1.00  0.00     0.032 A 
HETATM   11  C   UNL     1      43.098 -11.894   6.511  1.00  0.00     0.129 A 
HETATM   12  C   UNL     1      41.781 -11.477   6.579  1.00  0.00     0.068 A 
HETATM   13  C   UNL     1      41.820 -16.431   5.839  1.00  0.00     0.002 A 
HETATM   14  C   UNL     1      40.470 -16.131   5.931  1.00  0.00     0.001 A 
BRANCH  11  15
HETATM   15  N   UNL     1      44.098 -10.915   6.734  1.00  0.00    -0.341 N 
HETATM   16  H   UNL     1      45.007 -11.303   6.488  1.00  0.00     0.167 HD
BRANCH  15  17
HETATM   17  C   UNL     1      44.306 -10.097   7.871  1.00  0.00     0.034 A 
HETATM   18  C   UNL     1      43.676  -8.866   8.071  1.00  0.00     0.048 A 
HETATM   19  C   UNL     1      43.860  -8.149   9.260  1.00  0.00     0.002 A 
HETATM   20  C   UNL     1      44.665  -8.680  10.271  1.00  0.00     0.018 A 
HETATM   21  C   UNL     1      45.296  -9.908  10.089  1.00  0.00     0.004 A 
HETATM   22  C   UNL     1      45.112 -10.611   8.899  1.00  0.00     0.029 A 
BRANCH  19  23
HETATM   23  S   UNL     1      43.009  -6.597   9.484  1.00  0.00    -0.134 SA
HETATM   24  C   UNL     1      42.435  -6.821  11.188  1.00  0.00     0.095 C 
ENDBRANCH  19  23
ENDBRANCH  15  17
ENDBRANCH  11  15
ENDBRANCH   1   5
BRANCH   2  25
HETATM   25  C   UNL     1      38.310  -9.946   4.718  1.00  0.00     0.124 C 
BRANCH  25  26
HETATM   26  C   UNL     1      38.653  -8.834   3.713  1.00  0.00     0.047 C 
BRANCH  26  27
HETATM   27  C   UNL     1      40.077  -8.321   3.462  1.00  0.00     0.236 C 
BRANCH  27  28
HETATM   28  N   UNL     1      41.052  -9.194   2.660  1.00  0.00    -0.071 N 
HETATM   29  H   UNL     1      41.695  -8.549   2.185  1.00  0.00     0.279 HD
HETATM   30  C   UNL     1      41.900  -9.994   3.645  1.00  0.00     0.235 C 
HETATM   31  C   UNL     1      42.863 -10.943   2.936  1.00  0.00     0.032 C 
HETATM   32  C   UNL     1      42.167 -11.855   1.914  1.00  0.00    -0.007 C 
HETATM   33  C   UNL     1      41.463 -10.941   0.911  1.00  0.00     0.032 C 
HETATM   34  C   UNL     1      40.441 -10.039   1.582  1.00  0.00     0.235 C 
BRANCH  32  35
HETATM   35  C   UNL     1      41.239 -12.877   2.617  1.00  0.00     0.043 C 
BRANCH  35  36
HETATM   36  C   UNL     1      41.610 -14.331   2.448  1.00  0.00    -0.058 A 
HETATM   37  C   UNL     1      42.953 -14.720   2.394  1.00  0.00     0.007 A 
HETATM   38  C   UNL     1      43.293 -16.073   2.299  1.00  0.00     0.001 A 
HETATM   39  C   UNL     1      42.298 -17.048   2.253  1.00  0.00     0.000 A 
HETATM   40  C   UNL     1      40.960 -16.673   2.292  1.00  0.00     0.001 A 
HETATM   41  C   UNL     1      40.620 -15.323   2.382  1.00  0.00     0.007 A 
ENDBRANCH  35  36
ENDBRANCH  32  35
ENDBRANCH  27  28
ENDBRANCH  26  27
ENDBRANCH  25  26
ENDBRANCH   2  25
TORSDOF 10
ENDMDL
