MODEL 1
REMARK VINA RESULT:      -8.3      0.000      0.000
REMARK  7 active torsions:
REMARK  status: ('A' for Active; 'I' for Inactive)
REMARK    1  A    between atoms: S_2  and  C_3 
REMARK    2  A    between atoms: C_6  and  C_7 
REMARK    3  A    between atoms: N_8  and  C_9 
REMARK    4  A    between atoms: C_9  and  C_10 
REMARK    5  A    between atoms: C_10  and  C_11 
REMARK    6  A    between atoms: C_24  and  C_25 
REMARK    7  A    between atoms: C_26  and  O_27 
ROOT
HETATM    1  C   UNL     1      40.473 -12.874   2.826  1.00  0.00     0.159 A 
HETATM    2  N   UNL     1      41.027 -11.967   3.858  1.00  0.00    -0.333 N 
HETATM    3  C   UNL     1      41.764 -10.889   3.343  1.00  0.00     0.275 A 
HETATM    4  O   UNL     1      42.363 -10.029   3.968  1.00  0.00    -0.266 OA
HETATM    5  C   UNL     1      41.607 -11.012   1.910  1.00  0.00     0.155 A 
HETATM    6  C   UNL     1      40.837 -12.137   1.591  1.00  0.00     0.034 A 
HETATM    7  N   UNL     1      41.953 -10.291   0.849  1.00  0.00    -0.168 NA
HETATM    8  N   UNL     1      41.394 -10.990  -0.169  1.00  0.00    -0.276 N 
HETATM    9  H   UNL     1      41.524 -10.650  -1.117  1.00  0.00     0.189 HD
HETATM   10  C   UNL     1      40.628 -12.072   0.234  1.00  0.00     0.074 A 
ENDROOT
BRANCH   1  11
HETATM   11  C   UNL     1      41.187 -14.210   2.769  1.00  0.00    -0.031 A 
HETATM   12  C   UNL     1      40.440 -15.398   2.795  1.00  0.00     0.011 A 
HETATM   13  C   UNL     1      41.071 -16.644   2.695  1.00  0.00     0.019 A 
HETATM   14  C   UNL     1      42.458 -16.731   2.564  1.00  0.00    -0.000 A 
HETATM   15  C   UNL     1      43.215 -15.560   2.585  1.00  0.00     0.019 A 
HETATM   16  C   UNL     1      42.589 -14.315   2.688  1.00  0.00     0.011 A 
BRANCH  14  17
HETATM   17  S   UNL     1      43.224 -18.332   2.400  1.00  0.00    -0.134 SA
HETATM   18  C   UNL     1      44.249 -18.340   3.898  1.00  0.00     0.095 C 
ENDBRANCH  14  17
ENDBRANCH   1  11
BRANCH   2  19
HETATM   19  C   UNL     1      40.788 -12.173   5.277  1.00  0.00     0.132 C 
BRANCH  19  20
HETATM   20  C   UNL     1      42.079 -12.494   6.042  1.00  0.00     0.058 C 
BRANCH  20  21
HETATM   21  C   UNL     1      42.277 -13.970   6.284  1.00  0.00    -0.057 A 
HETATM   22  C   UNL     1      41.180 -14.835   6.392  1.00  0.00     0.007 A 
HETATM   23  C   UNL     1      41.374 -16.202   6.594  1.00  0.00     0.001 A 
HETATM   24  C   UNL     1      42.666 -16.720   6.686  1.00  0.00     0.000 A 
HETATM   25  C   UNL     1      43.764 -15.869   6.575  1.00  0.00     0.001 A 
HETATM   26  C   UNL     1      43.571 -14.502   6.376  1.00  0.00     0.007 A 
ENDBRANCH  20  21
ENDBRANCH  19  20
ENDBRANCH   2  19
BRANCH  10  27
HETATM   27  C   UNL     1      39.831 -12.858  -0.701  1.00  0.00     0.026 A 
HETATM   28  C   UNL     1      38.925 -12.251  -1.587  1.00  0.00     0.078 A 
HETATM   29  C   UNL     1      38.214 -13.000  -2.521  1.00  0.00     0.037 A 
HETATM   30  C   UNL     1      38.373 -14.382  -2.565  1.00  0.00     0.003 A 
HETATM   31  C   UNL     1      39.252 -15.007  -1.683  1.00  0.00     0.001 A 
HETATM   32  C   UNL     1      39.984 -14.248  -0.763  1.00  0.00     0.016 A 
BRANCH  28  33
HETATM   33  O   UNL     1      38.679 -10.903  -1.576  1.00  0.00    -0.360 OA
HETATM   34  H   UNL     1      37.764 -10.768  -1.272  1.00  0.00     0.217 HD
ENDBRANCH  28  33
ENDBRANCH  10  27
TORSDOF 7
ENDMDL
MODEL 2
REMARK VINA RESULT:      -8.1      2.851      6.034
REMARK  7 active torsions:
REMARK  status: ('A' for Active; 'I' for Inactive)
REMARK    1  A    between atoms: S_2  and  C_3 
REMARK    2  A    between atoms: C_6  and  C_7 
REMARK    3  A    between atoms: N_8  and  C_9 
REMARK    4  A    between atoms: C_9  and  C_10 
REMARK    5  A    between atoms: C_10  and  C_11 
REMARK    6  A    between atoms: C_24  and  C_25 
REMARK    7  A    between atoms: C_26  and  O_27 
ROOT
HETATM    1  C   UNL     1      41.667 -13.511   3.922  1.00  0.00     0.159 A 
HETATM    2  N   UNL     1      40.954 -12.467   4.694  1.00  0.00    -0.333 N 
HETATM    3  C   UNL     1      40.171 -12.963   5.749  1.00  0.00     0.275 A 
HETATM    4  O   UNL     1      39.450 -12.331   6.503  1.00  0.00    -0.266 OA
HETATM    5  C   UNL     1      40.457 -14.382   5.758  1.00  0.00     0.155 A 
HETATM    6  C   UNL     1      41.345 -14.715   4.728  1.00  0.00     0.034 A 
HETATM    7  N   UNL     1      40.139 -15.412   6.534  1.00  0.00    -0.168 NA
HETATM    8  N   UNL     1      40.839 -16.425   5.969  1.00  0.00    -0.276 N 
HETATM    9  H   UNL     1      40.759 -17.353   6.374  1.00  0.00     0.189 HD
HETATM   10  C   UNL     1      41.660 -16.038   4.921  1.00  0.00     0.074 A 
ENDROOT
BRANCH   1  11
HETATM   11  C   UNL     1      41.079 -13.732   2.543  1.00  0.00    -0.031 A 
HETATM   12  C   UNL     1      41.438 -12.877   1.490  1.00  0.00     0.011 A 
HETATM   13  C   UNL     1      40.947 -13.088   0.195  1.00  0.00     0.019 A 
HETATM   14  C   UNL     1      40.091 -14.158  -0.075  1.00  0.00    -0.000 A 
HETATM   15  C   UNL     1      39.689 -14.986   0.972  1.00  0.00     0.019 A 
HETATM   16  C   UNL     1      40.175 -14.775   2.265  1.00  0.00     0.011 A 
BRANCH  14  17
HETATM   17  S   UNL     1      39.517 -14.420  -1.743  1.00  0.00    -0.134 SA
HETATM   18  C   UNL     1      40.508 -13.171  -2.611  1.00  0.00     0.095 C 
ENDBRANCH  14  17
ENDBRANCH   1  11
BRANCH   2  19
HETATM   19  C   UNL     1      41.091 -11.052   4.390  1.00  0.00     0.132 C 
BRANCH  19  20
HETATM   20  C   UNL     1      42.559 -10.615   4.312  1.00  0.00     0.058 C 
BRANCH  20  21
HETATM   21  C   UNL     1      43.304 -10.795   5.612  1.00  0.00    -0.057 A 
HETATM   22  C   UNL     1      44.488 -11.542   5.666  1.00  0.00     0.007 A 
HETATM   23  C   UNL     1      45.182 -11.683   6.869  1.00  0.00     0.001 A 
HETATM   24  C   UNL     1      44.702 -11.077   8.029  1.00  0.00     0.000 A 
HETATM   25  C   UNL     1      43.528 -10.328   7.986  1.00  0.00     0.001 A 
HETATM   26  C   UNL     1      42.832 -10.188   6.785  1.00  0.00     0.007 A 
ENDBRANCH  20  21
ENDBRANCH  19  20
ENDBRANCH   2  19
BRANCH  10  27
HETATM   27  C   UNL     1      42.597 -16.955   4.281  1.00  0.00     0.026 A 
HETATM   28  C   UNL     1      43.591 -17.623   5.015  1.00  0.00     0.078 A 
HETATM   29  C   UNL     1      44.441 -18.545   4.411  1.00  0.00     0.037 A 
HETATM   30  C   UNL     1      44.333 -18.794   3.045  1.00  0.00     0.003 A 
HETATM   31  C   UNL     1      43.366 -18.128   2.294  1.00  0.00     0.001 A 
HETATM   32  C   UNL     1      42.497 -17.222   2.910  1.00  0.00     0.016 A 
BRANCH  28  33
HETATM   33  O   UNL     1      43.790 -17.400   6.353  1.00  0.00    -0.360 OA
HETATM   34  H   UNL     1      43.127 -17.917   6.844  1.00  0.00     0.217 HD
ENDBRANCH  28  33
ENDBRANCH  10  27
TORSDOF 7
ENDMDL
MODEL 3
REMARK VINA RESULT:      -7.9      2.814      6.696
REMARK  7 active torsions:
REMARK  status: ('A' for Active; 'I' for Inactive)
REMARK    1  A    between atoms: S_2  and  C_3 
REMARK    2  A    between atoms: C_6  and  C_7 
REMARK    3  A    between atoms: N_8  and  C_9 
REMARK    4  A    between atoms: C_9  and  C_10 
REMARK    5  A    between atoms: C_10  and  C_11 
REMARK    6  A    between atoms: C_24  and  C_25 
REMARK    7  A    between atoms: C_26  and  O_27 
ROOT
HETATM    1  C   UNL     1      41.676 -13.336   4.338  1.00  0.00     0.159 A 
HETATM    2  N   UNL     1      40.930 -12.237   4.993  1.00  0.00    -0.333 N 
HETATM    3  C   UNL     1      40.038 -12.661   5.991  1.00  0.00     0.275 A 
HETATM    4  O   UNL     1      39.272 -11.974   6.647  1.00  0.00    -0.266 OA
HETATM    5  C   UNL     1      40.275 -14.085   6.089  1.00  0.00     0.155 A 
HETATM    6  C   UNL     1      41.243 -14.491   5.162  1.00  0.00     0.034 A 
HETATM    7  N   UNL     1      39.854 -15.068   6.877  1.00  0.00    -0.168 NA
HETATM    8  N   UNL     1      40.569 -16.127   6.424  1.00  0.00    -0.276 N 
HETATM    9  H   UNL     1      40.422 -17.032   6.860  1.00  0.00     0.189 HD
HETATM   10  C   UNL     1      41.495 -15.813   5.441  1.00  0.00     0.074 A 
ENDROOT
BRANCH   1  11
HETATM   11  C   UNL     1      41.210 -13.604   2.921  1.00  0.00    -0.031 A 
HETATM   12  C   UNL     1      40.147 -14.493   2.696  1.00  0.00     0.011 A 
HETATM   13  C   UNL     1      39.664 -14.722   1.402  1.00  0.00     0.019 A 
HETATM   14  C   UNL     1      40.229 -14.067   0.306  1.00  0.00    -0.000 A 
HETATM   15  C   UNL     1      41.317 -13.219   0.510  1.00  0.00     0.019 A 
HETATM   16  C   UNL     1      41.803 -12.991   1.801  1.00  0.00     0.011 A 
BRANCH  14  17
HETATM   17  S   UNL     1      39.564 -14.352  -1.323  1.00  0.00    -0.134 SA
HETATM   18  C   UNL     1      40.371 -13.001  -2.228  1.00  0.00     0.095 C 
ENDBRANCH  14  17
ENDBRANCH   1  11
BRANCH   2  19
HETATM   19  C   UNL     1      41.140 -10.842   4.642  1.00  0.00     0.132 C 
BRANCH  19  20
HETATM   20  C   UNL     1      39.827 -10.125   4.303  1.00  0.00     0.058 C 
BRANCH  20  21
HETATM   21  C   UNL     1      39.391 -10.325   2.873  1.00  0.00    -0.057 A 
HETATM   22  C   UNL     1      40.052  -9.677   1.822  1.00  0.00     0.007 A 
HETATM   23  C   UNL     1      39.656  -9.886   0.500  1.00  0.00     0.001 A 
HETATM   24  C   UNL     1      38.597 -10.747   0.214  1.00  0.00     0.000 A 
HETATM   25  C   UNL     1      37.935 -11.400   1.252  1.00  0.00     0.001 A 
HETATM   26  C   UNL     1      38.329 -11.190   2.574  1.00  0.00     0.007 A 
ENDBRANCH  20  21
ENDBRANCH  19  20
ENDBRANCH   2  19
BRANCH  10  27
HETATM   27  C   UNL     1      42.455 -16.785   4.932  1.00  0.00     0.026 A 
HETATM   28  C   UNL     1      43.181 -17.624   5.794  1.00  0.00     0.078 A 
HETATM   29  C   UNL     1      44.049 -18.594   5.300  1.00  0.00     0.037 A 
HETATM   30  C   UNL     1      44.234 -18.721   3.926  1.00  0.00     0.003 A 
HETATM   31  C   UNL     1      43.539 -17.886   3.053  1.00  0.00     0.001 A 
HETATM   32  C   UNL     1      42.648 -16.931   3.553  1.00  0.00     0.016 A 
BRANCH  28  33
HETATM   33  O   UNL     1      43.088 -17.531   7.158  1.00  0.00    -0.360 OA
HETATM   34  H   UNL     1      42.146 -17.582   7.399  1.00  0.00     0.217 HD
ENDBRANCH  28  33
ENDBRANCH  10  27
TORSDOF 7
ENDMDL
MODEL 4
REMARK VINA RESULT:      -7.7      3.050      7.015
REMARK  7 active torsions:
REMARK  status: ('A' for Active; 'I' for Inactive)
REMARK    1  A    between atoms: S_2  and  C_3 
REMARK    2  A    between atoms: C_6  and  C_7 
REMARK    3  A    between atoms: N_8  and  C_9 
REMARK    4  A    between atoms: C_9  and  C_10 
REMARK    5  A    between atoms: C_10  and  C_11 
REMARK    6  A    between atoms: C_24  and  C_25 
REMARK    7  A    between atoms: C_26  and  O_27 
ROOT
HETATM    1  C   UNL     1      41.305 -10.817   4.955  1.00  0.00     0.159 A 
HETATM    2  N   UNL     1      39.885 -10.592   4.601  1.00  0.00    -0.333 N 
HETATM    3  C   UNL     1      39.086 -10.153   5.668  1.00  0.00     0.275 A 
HETATM    4  O   UNL     1      37.885  -9.941   5.663  1.00  0.00    -0.266 OA
HETATM    5  C   UNL     1      40.026  -9.967   6.753  1.00  0.00     0.155 A 
HETATM    6  C   UNL     1      41.321 -10.316   6.352  1.00  0.00     0.034 A 
HETATM    7  N   UNL     1      39.968  -9.490   7.992  1.00  0.00    -0.168 NA
HETATM    8  N   UNL     1      41.263  -9.552   8.385  1.00  0.00    -0.276 N 
HETATM    9  H   UNL     1      41.498  -9.250   9.326  1.00  0.00     0.189 HD
HETATM   10  C   UNL     1      42.142  -9.963   7.395  1.00  0.00     0.074 A 
ENDROOT
BRANCH   1  11
HETATM   11  C   UNL     1      41.676 -12.285   5.008  1.00  0.00    -0.031 A 
HETATM   12  C   UNL     1      42.682 -12.779   4.163  1.00  0.00     0.011 A 
HETATM   13  C   UNL     1      43.077 -14.121   4.226  1.00  0.00     0.019 A 
HETATM   14  C   UNL     1      42.481 -14.996   5.135  1.00  0.00    -0.000 A 
HETATM   15  C   UNL     1      41.448 -14.530   5.947  1.00  0.00     0.019 A 
HETATM   16  C   UNL     1      41.049 -13.192   5.885  1.00  0.00     0.011 A 
BRANCH  14  17
HETATM   17  S   UNL     1      43.037 -16.688   5.215  1.00  0.00    -0.134 SA
HETATM   18  C   UNL     1      43.292 -17.014   3.447  1.00  0.00     0.095 C 
ENDBRANCH  14  17
ENDBRANCH   1  11
BRANCH   2  19
HETATM   19  C   UNL     1      39.386 -10.784   3.249  1.00  0.00     0.132 C 
BRANCH  19  20
HETATM   20  C   UNL     1      38.696 -12.143   3.073  1.00  0.00     0.058 C 
BRANCH  20  21
HETATM   21  C   UNL     1      39.550 -13.156   2.351  1.00  0.00    -0.057 A 
HETATM   22  C   UNL     1      39.533 -14.507   2.721  1.00  0.00     0.007 A 
HETATM   23  C   UNL     1      40.310 -15.440   2.032  1.00  0.00     0.001 A 
HETATM   24  C   UNL     1      41.108 -15.033   0.964  1.00  0.00     0.000 A 
HETATM   25  C   UNL     1      41.130 -13.693   0.584  1.00  0.00     0.001 A 
HETATM   26  C   UNL     1      40.356 -12.759   1.274  1.00  0.00     0.007 A 
ENDBRANCH  20  21
ENDBRANCH  19  20
ENDBRANCH   2  19
BRANCH  10  27
HETATM   27  C   UNL     1      43.589  -9.954   7.581  1.00  0.00     0.026 A 
HETATM   28  C   UNL     1      44.259  -8.832   8.095  1.00  0.00     0.078 A 
HETATM   29  C   UNL     1      45.631  -8.851   8.331  1.00  0.00     0.037 A 
HETATM   30  C   UNL     1      46.369  -9.991   8.023  1.00  0.00     0.003 A 
HETATM   31  C   UNL     1      45.728 -11.110   7.493  1.00  0.00     0.001 A 
HETATM   32  C   UNL     1      44.345 -11.095   7.283  1.00  0.00     0.016 A 
BRANCH  28  33
HETATM   33  O   UNL     1      43.611  -7.658   8.381  1.00  0.00    -0.360 OA
HETATM   34  H   UNL     1      44.281  -7.003   8.646  1.00  0.00     0.217 HD
ENDBRANCH  28  33
ENDBRANCH  10  27
TORSDOF 7
ENDMDL
MODEL 5
REMARK VINA RESULT:      -7.6      3.392      6.618
REMARK  7 active torsions:
REMARK  status: ('A' for Active; 'I' for Inactive)
REMARK    1  A    between atoms: S_2  and  C_3 
REMARK    2  A    between atoms: C_6  and  C_7 
REMARK    3  A    between atoms: N_8  and  C_9 
REMARK    4  A    between atoms: C_9  and  C_10 
REMARK    5  A    between atoms: C_10  and  C_11 
REMARK    6  A    between atoms: C_24  and  C_25 
REMARK    7  A    between atoms: C_26  and  O_27 
ROOT
HETATM    1  C   UNL     1      41.418 -12.876   6.001  1.00  0.00     0.159 A 
HETATM    2  N   UNL     1      41.884 -14.231   6.374  1.00  0.00    -0.333 N 
HETATM    3  C   UNL     1      43.209 -14.279   6.837  1.00  0.00     0.275 A 
HETATM    4  O   UNL     1      43.850 -15.265   7.160  1.00  0.00    -0.266 OA
HETATM    5  C   UNL     1      43.612 -12.890   6.884  1.00  0.00     0.155 A 
HETATM    6  C   UNL     1      42.578 -12.058   6.434  1.00  0.00     0.034 A 
HETATM    7  N   UNL     1      44.680 -12.222   7.308  1.00  0.00    -0.168 NA
HETATM    8  N   UNL     1      44.312 -10.933   7.107  1.00  0.00    -0.276 N 
HETATM    9  H   UNL     1      44.973 -10.199   7.342  1.00  0.00     0.189 HD
HETATM   10  C   UNL     1      43.009 -10.774   6.661  1.00  0.00     0.074 A 
ENDROOT
BRANCH   1  11
HETATM   11  C   UNL     1      41.281 -12.689   4.504  1.00  0.00    -0.031 A 
HETATM   12  C   UNL     1      40.003 -12.638   3.924  1.00  0.00     0.011 A 
HETATM   13  C   UNL     1      39.846 -12.418   2.550  1.00  0.00     0.019 A 
HETATM   14  C   UNL     1      40.960 -12.240   1.727  1.00  0.00    -0.000 A 
HETATM   15  C   UNL     1      42.236 -12.335   2.282  1.00  0.00     0.019 A 
HETATM   16  C   UNL     1      42.395 -12.558   3.653  1.00  0.00     0.011 A 
BRANCH  14  17
HETATM   17  S   UNL     1      40.723 -11.922  -0.011  1.00  0.00    -0.134 SA
HETATM   18  C   UNL     1      39.608 -13.294  -0.426  1.00  0.00     0.095 C 
ENDBRANCH  14  17
ENDBRANCH   1  11
BRANCH   2  19
HETATM   19  C   UNL     1      41.018 -15.396   6.291  1.00  0.00     0.132 C 
BRANCH  19  20
HETATM   20  C   UNL     1      41.685 -16.562   5.549  1.00  0.00     0.058 C 
BRANCH  20  21
HETATM   21  C   UNL     1      41.843 -16.314   4.069  1.00  0.00    -0.057 A 
HETATM   22  C   UNL     1      40.723 -16.182   3.238  1.00  0.00     0.007 A 
HETATM   23  C   UNL     1      40.880 -15.930   1.874  1.00  0.00     0.001 A 
HETATM   24  C   UNL     1      42.156 -15.802   1.328  1.00  0.00     0.000 A 
HETATM   25  C   UNL     1      43.277 -15.927   2.146  1.00  0.00     0.001 A 
HETATM   26  C   UNL     1      43.122 -16.181   3.509  1.00  0.00     0.007 A 
ENDBRANCH  20  21
ENDBRANCH  19  20
ENDBRANCH   2  19
BRANCH  10  27
HETATM   27  C   UNL     1      42.384  -9.463   6.526  1.00  0.00     0.026 A 
HETATM   28  C   UNL     1      42.538  -8.469   7.506  1.00  0.00     0.078 A 
HETATM   29  C   UNL     1      41.993  -7.198   7.342  1.00  0.00     0.037 A 
HETATM   30  C   UNL     1      41.249  -6.907   6.201  1.00  0.00     0.003 A 
HETATM   31  C   UNL     1      41.067  -7.884   5.224  1.00  0.00     0.001 A 
HETATM   32  C   UNL     1      41.639  -9.151   5.381  1.00  0.00     0.016 A 
BRANCH  28  33
HETATM   33  O   UNL     1      43.217  -8.691   8.675  1.00  0.00    -0.360 OA
HETATM   34  H   UNL     1      44.146  -8.879   8.452  1.00  0.00     0.217 HD
ENDBRANCH  28  33
ENDBRANCH  10  27
TORSDOF 7
ENDMDL
MODEL 6
REMARK VINA RESULT:      -7.5      2.872      6.798
REMARK  7 active torsions:
REMARK  status: ('A' for Active; 'I' for Inactive)
REMARK    1  A    between atoms: S_2  and  C_3 
REMARK    2  A    between atoms: C_6  and  C_7 
REMARK    3  A    between atoms: N_8  and  C_9 
REMARK    4  A    between atoms: C_9  and  C_10 
REMARK    5  A    between atoms: C_10  and  C_11 
REMARK    6  A    between atoms: C_24  and  C_25 
REMARK    7  A    between atoms: C_26  and  O_27 
ROOT
HETATM    1  C   UNL     1      41.722 -11.141   4.592  1.00  0.00     0.159 A 
HETATM    2  N   UNL     1      40.548 -11.063   3.692  1.00  0.00    -0.333 N 
HETATM    3  C   UNL     1      39.449 -10.376   4.235  1.00  0.00     0.275 A 
HETATM    4  O   UNL     1      38.352 -10.210   3.730  1.00  0.00    -0.266 OA
HETATM    5  C   UNL     1      39.941  -9.877   5.501  1.00  0.00     0.155 A 
HETATM    6  C   UNL     1      41.265 -10.282   5.713  1.00  0.00     0.034 A 
HETATM    7  N   UNL     1      39.471  -9.087   6.460  1.00  0.00    -0.168 NA
HETATM    8  N   UNL     1      40.527  -9.001   7.306  1.00  0.00    -0.276 N 
HETATM    9  H   UNL     1      40.424  -8.450   8.153  1.00  0.00     0.189 HD
HETATM   10  C   UNL     1      41.674  -9.637   6.855  1.00  0.00     0.074 A 
ENDROOT
BRANCH   1  11
HETATM   11  C   UNL     1      41.940 -12.529   5.160  1.00  0.00    -0.031 A 
HETATM   12  C   UNL     1      40.893 -13.175   5.836  1.00  0.00     0.011 A 
HETATM   13  C   UNL     1      41.052 -14.477   6.328  1.00  0.00     0.019 A 
HETATM   14  C   UNL     1      42.256 -15.161   6.152  1.00  0.00    -0.000 A 
HETATM   15  C   UNL     1      43.319 -14.513   5.524  1.00  0.00     0.019 A 
HETATM   16  C   UNL     1      43.164 -13.213   5.035  1.00  0.00     0.011 A 
BRANCH  14  17
HETATM   17  S   UNL     1      42.410 -16.831   6.757  1.00  0.00    -0.134 SA
HETATM   18  C   UNL     1      44.168 -16.834   7.213  1.00  0.00     0.095 C 
ENDBRANCH  14  17
ENDBRANCH   1  11
BRANCH   2  19
HETATM   19  C   UNL     1      40.562 -11.627   2.352  1.00  0.00     0.132 C 
BRANCH  19  20
HETATM   20  C   UNL     1      39.870 -12.994   2.292  1.00  0.00     0.058 C 
BRANCH  20  21
HETATM   21  C   UNL     1      40.838 -14.151   2.255  1.00  0.00    -0.057 A 
HETATM   22  C   UNL     1      42.117 -14.002   1.704  1.00  0.00     0.007 A 
HETATM   23  C   UNL     1      43.014 -15.071   1.695  1.00  0.00     0.001 A 
HETATM   24  C   UNL     1      42.643 -16.300   2.240  1.00  0.00     0.000 A 
HETATM   25  C   UNL     1      41.375 -16.458   2.796  1.00  0.00     0.001 A 
HETATM   26  C   UNL     1      40.477 -15.390   2.803  1.00  0.00     0.007 A 
ENDBRANCH  20  21
ENDBRANCH  19  20
ENDBRANCH   2  19
BRANCH  10  27
HETATM   27  C   UNL     1      42.950  -9.535   7.553  1.00  0.00     0.026 A 
HETATM   28  C   UNL     1      43.445  -8.302   8.007  1.00  0.00     0.078 A 
HETATM   29  C   UNL     1      44.632  -8.219   8.729  1.00  0.00     0.037 A 
HETATM   30  C   UNL     1      45.369  -9.373   8.984  1.00  0.00     0.003 A 
HETATM   31  C   UNL     1      44.906 -10.605   8.527  1.00  0.00     0.001 A 
HETATM   32  C   UNL     1      43.699 -10.687   7.825  1.00  0.00     0.016 A 
BRANCH  28  33
HETATM   33  O   UNL     1      42.803  -7.117   7.758  1.00  0.00    -0.360 OA
HETATM   34  H   UNL     1      42.010  -7.312   7.227  1.00  0.00     0.217 HD
ENDBRANCH  28  33
ENDBRANCH  10  27
TORSDOF 7
ENDMDL
MODEL 7
REMARK VINA RESULT:      -7.3      3.207      6.224
REMARK  7 active torsions:
REMARK  status: ('A' for Active; 'I' for Inactive)
REMARK    1  A    between atoms: S_2  and  C_3 
REMARK    2  A    between atoms: C_6  and  C_7 
REMARK    3  A    between atoms: N_8  and  C_9 
REMARK    4  A    between atoms: C_9  and  C_10 
REMARK    5  A    between atoms: C_10  and  C_11 
REMARK    6  A    between atoms: C_24  and  C_25 
REMARK    7  A    between atoms: C_26  and  O_27 
ROOT
HETATM    1  C   UNL     1      41.158 -13.816   4.048  1.00  0.00     0.159 A 
HETATM    2  N   UNL     1      40.321 -12.889   3.252  1.00  0.00    -0.333 N 
HETATM    3  C   UNL     1      40.525 -12.972   1.866  1.00  0.00     0.275 A 
HETATM    4  O   UNL     1      40.007 -12.295   0.994  1.00  0.00    -0.266 OA
HETATM    5  C   UNL     1      41.450 -14.075   1.716  1.00  0.00     0.155 A 
HETATM    6  C   UNL     1      41.805 -14.598   2.966  1.00  0.00     0.034 A 
HETATM    7  N   UNL     1      41.981 -14.740   0.695  1.00  0.00    -0.168 NA
HETATM    8  N   UNL     1      42.700 -15.703   1.322  1.00  0.00    -0.276 N 
HETATM    9  H   UNL     1      43.229 -16.358   0.754  1.00  0.00     0.189 HD
HETATM   10  C   UNL     1      42.556 -15.717   2.701  1.00  0.00     0.074 A 
ENDROOT
BRANCH   1  11
HETATM   11  C   UNL     1      42.265 -13.111   4.806  1.00  0.00    -0.031 A 
HETATM   12  C   UNL     1      43.185 -12.314   4.109  1.00  0.00     0.011 A 
HETATM   13  C   UNL     1      44.188 -11.613   4.790  1.00  0.00     0.019 A 
HETATM   14  C   UNL     1      44.290 -11.690   6.181  1.00  0.00    -0.000 A 
HETATM   15  C   UNL     1      43.411 -12.516   6.880  1.00  0.00     0.019 A 
HETATM   16  C   UNL     1      42.412 -13.219   6.203  1.00  0.00     0.011 A 
BRANCH  14  17
HETATM   17  S   UNL     1      45.554 -10.753   7.019  1.00  0.00    -0.134 SA
HETATM   18  C   UNL     1      44.759 -10.537   8.636  1.00  0.00     0.095 C 
ENDBRANCH  14  17
ENDBRANCH   1  11
BRANCH   2  19
HETATM   19  C   UNL     1      39.352 -11.998   3.871  1.00  0.00     0.132 C 
BRANCH  19  20
HETATM   20  C   UNL     1      39.828 -10.539   3.877  1.00  0.00     0.058 C 
BRANCH  20  21
HETATM   21  C   UNL     1      40.331 -10.082   5.224  1.00  0.00    -0.057 A 
HETATM   22  C   UNL     1      39.712 -10.507   6.406  1.00  0.00     0.007 A 
HETATM   23  C   UNL     1      40.199 -10.097   7.648  1.00  0.00     0.001 A 
HETATM   24  C   UNL     1      41.313  -9.262   7.721  1.00  0.00     0.000 A 
HETATM   25  C   UNL     1      41.941  -8.837   6.552  1.00  0.00     0.001 A 
HETATM   26  C   UNL     1      41.453  -9.244   5.310  1.00  0.00     0.007 A 
ENDBRANCH  20  21
ENDBRANCH  19  20
ENDBRANCH   2  19
BRANCH  10  27
HETATM   27  C   UNL     1      43.133 -16.764   3.536  1.00  0.00     0.026 A 
HETATM   28  C   UNL     1      43.311 -18.073   3.059  1.00  0.00     0.078 A 
HETATM   29  C   UNL     1      43.921 -19.053   3.838  1.00  0.00     0.037 A 
HETATM   30  C   UNL     1      44.337 -18.747   5.131  1.00  0.00     0.003 A 
HETATM   31  C   UNL     1      44.154 -17.459   5.633  1.00  0.00     0.001 A 
HETATM   32  C   UNL     1      43.565 -16.472   4.836  1.00  0.00     0.016 A 
BRANCH  28  33
HETATM   33  O   UNL     1      42.888 -18.464   1.816  1.00  0.00    -0.360 OA
HETATM   34  H   UNL     1      43.615 -18.955   1.392  1.00  0.00     0.217 HD
ENDBRANCH  28  33
ENDBRANCH  10  27
TORSDOF 7
ENDMDL
MODEL 8
REMARK VINA RESULT:      -7.2      3.218      5.137
REMARK  7 active torsions:
REMARK  status: ('A' for Active; 'I' for Inactive)
REMARK    1  A    between atoms: S_2  and  C_3 
REMARK    2  A    between atoms: C_6  and  C_7 
REMARK    3  A    between atoms: N_8  and  C_9 
REMARK    4  A    between atoms: C_9  and  C_10 
REMARK    5  A    between atoms: C_10  and  C_11 
REMARK    6  A    between atoms: C_24  and  C_25 
REMARK    7  A    between atoms: C_26  and  O_27 
ROOT
HETATM    1  C   UNL     1      41.835 -13.281   1.402  1.00  0.00     0.159 A 
HETATM    2  N   UNL     1      41.483 -14.688   1.703  1.00  0.00    -0.333 N 
HETATM    3  C   UNL     1      40.341 -15.154   1.032  1.00  0.00     0.275 A 
HETATM    4  O   UNL     1      39.810 -16.247   1.136  1.00  0.00    -0.266 OA
HETATM    5  C   UNL     1      39.976 -14.056   0.162  1.00  0.00     0.155 A 
HETATM    6  C   UNL     1      40.847 -12.974   0.338  1.00  0.00     0.034 A 
HETATM    7  N   UNL     1      39.073 -13.858  -0.792  1.00  0.00    -0.168 NA
HETATM    8  N   UNL     1      39.378 -12.609  -1.221  1.00  0.00    -0.276 N 
HETATM    9  H   UNL     1      38.814 -12.200  -1.960  1.00  0.00     0.189 HD
HETATM   10  C   UNL     1      40.505 -12.060  -0.629  1.00  0.00     0.074 A 
ENDROOT
BRANCH   1  11
HETATM   11  C   UNL     1      41.548 -12.341   2.556  1.00  0.00    -0.031 A 
HETATM   12  C   UNL     1      40.283 -12.353   3.164  1.00  0.00     0.011 A 
HETATM   13  C   UNL     1      40.007 -11.530   4.263  1.00  0.00     0.019 A 
HETATM   14  C   UNL     1      40.988 -10.680   4.779  1.00  0.00    -0.000 A 
HETATM   15  C   UNL     1      42.233 -10.623   4.154  1.00  0.00     0.019 A 
HETATM   16  C   UNL     1      42.510 -11.442   3.055  1.00  0.00     0.011 A 
BRANCH  14  17
HETATM   17  S   UNL     1      40.614  -9.674   6.203  1.00  0.00    -0.134 SA
HETATM   18  C   UNL     1      39.179 -10.577   6.851  1.00  0.00     0.095 C 
ENDBRANCH  14  17
ENDBRANCH   1  11
BRANCH   2  19
HETATM   19  C   UNL     1      42.284 -15.511   2.595  1.00  0.00     0.132 C 
BRANCH  19  20
HETATM   20  C   UNL     1      43.126 -16.542   1.832  1.00  0.00     0.058 C 
BRANCH  20  21
HETATM   21  C   UNL     1      43.455 -17.766   2.651  1.00  0.00    -0.057 A 
HETATM   22  C   UNL     1      43.868 -17.650   3.984  1.00  0.00     0.007 A 
HETATM   23  C   UNL     1      44.149 -18.789   4.741  1.00  0.00     0.001 A 
HETATM   24  C   UNL     1      44.015 -20.056   4.174  1.00  0.00     0.000 A 
HETATM   25  C   UNL     1      43.600 -20.183   2.850  1.00  0.00     0.001 A 
HETATM   26  C   UNL     1      43.322 -19.045   2.092  1.00  0.00     0.007 A 
ENDBRANCH  20  21
ENDBRANCH  19  20
ENDBRANCH   2  19
BRANCH  10  27
HETATM   27  C   UNL     1      41.075 -10.789  -1.061  1.00  0.00     0.026 A 
HETATM   28  C   UNL     1      41.108 -10.419  -2.415  1.00  0.00     0.078 A 
HETATM   29  C   UNL     1      41.595  -9.177  -2.816  1.00  0.00     0.037 A 
HETATM   30  C   UNL     1      42.092  -8.290  -1.865  1.00  0.00     0.003 A 
HETATM   31  C   UNL     1      42.086  -8.644  -0.517  1.00  0.00     0.001 A 
HETATM   32  C   UNL     1      41.572  -9.882  -0.117  1.00  0.00     0.016 A 
BRANCH  28  33
HETATM   33  O   UNL     1      40.680 -11.253  -3.414  1.00  0.00    -0.360 OA
HETATM   34  H   UNL     1      41.366 -11.930  -3.554  1.00  0.00     0.217 HD
ENDBRANCH  28  33
ENDBRANCH  10  27
TORSDOF 7
ENDMDL
MODEL 9
REMARK VINA RESULT:      -7.1     16.001     19.717
REMARK  7 active torsions:
REMARK  status: ('A' for Active; 'I' for Inactive)
REMARK    1  A    between atoms: S_2  and  C_3 
REMARK    2  A    between atoms: C_6  and  C_7 
REMARK    3  A    between atoms: N_8  and  C_9 
REMARK    4  A    between atoms: C_9  and  C_10 
REMARK    5  A    between atoms: C_10  and  C_11 
REMARK    6  A    between atoms: C_24  and  C_25 
REMARK    7  A    between atoms: C_26  and  O_27 
ROOT
HETATM    1  C   UNL     1      48.613 -29.729  -0.519  1.00  0.00     0.159 A 
HETATM    2  N   UNL     1      47.801 -28.701   0.173  1.00  0.00    -0.333 N 
HETATM    3  C   UNL     1      47.848 -28.774   1.574  1.00  0.00     0.275 A 
HETATM    4  O   UNL     1      47.241 -28.086   2.377  1.00  0.00    -0.266 OA
HETATM    5  C   UNL     1      48.816 -29.818   1.835  1.00  0.00     0.155 A 
HETATM    6  C   UNL     1      49.294 -30.362   0.637  1.00  0.00     0.034 A 
HETATM    7  N   UNL     1      49.398 -30.327   2.915  1.00  0.00    -0.168 NA
HETATM    8  N   UNL     1      50.260 -31.227   2.381  1.00  0.00    -0.276 N 
HETATM    9  H   UNL     1      50.835 -31.779   3.010  1.00  0.00     0.189 HD
HETATM   10  C   UNL     1      50.301 -31.225   0.995  1.00  0.00     0.074 A 
ENDROOT
BRANCH   1  11
HETATM   11  C   UNL     1      47.770 -30.802  -1.178  1.00  0.00    -0.031 A 
HETATM   12  C   UNL     1      47.817 -30.965  -2.571  1.00  0.00     0.011 A 
HETATM   13  C   UNL     1      47.086 -31.980  -3.201  1.00  0.00     0.019 A 
HETATM   14  C   UNL     1      46.297 -32.856  -2.453  1.00  0.00    -0.000 A 
HETATM   15  C   UNL     1      46.205 -32.676  -1.073  1.00  0.00     0.019 A 
HETATM   16  C   UNL     1      46.930 -31.662  -0.443  1.00  0.00     0.011 A 
BRANCH  14  17
HETATM   17  S   UNL     1      45.411 -34.162  -3.283  1.00  0.00    -0.134 SA
HETATM   18  C   UNL     1      43.732 -33.828  -2.679  1.00  0.00     0.095 C 
ENDBRANCH  14  17
ENDBRANCH   1  11
BRANCH   2  19
HETATM   19  C   UNL     1      47.051 -27.689  -0.555  1.00  0.00     0.132 C 
BRANCH  19  20
HETATM   20  C   UNL     1      45.548 -27.995  -0.589  1.00  0.00     0.058 C 
BRANCH  20  21
HETATM   21  C   UNL     1      45.083 -28.553  -1.912  1.00  0.00    -0.057 A 
HETATM   22  C   UNL     1      45.530 -28.005  -3.121  1.00  0.00     0.007 A 
HETATM   23  C   UNL     1      45.112 -28.542  -4.339  1.00  0.00     0.001 A 
HETATM   24  C   UNL     1      44.247 -29.635  -4.362  1.00  0.00     0.000 A 
HETATM   25  C   UNL     1      43.800 -30.191  -3.165  1.00  0.00     0.001 A 
HETATM   26  C   UNL     1      44.215 -29.653  -1.947  1.00  0.00     0.007 A 
ENDBRANCH  20  21
ENDBRANCH  19  20
ENDBRANCH   2  19
BRANCH  10  27
HETATM   27  C   UNL     1      51.267 -32.017   0.241  1.00  0.00     0.026 A 
HETATM   28  C   UNL     1      51.576 -33.339   0.600  1.00  0.00     0.078 A 
HETATM   29  C   UNL     1      52.450 -34.111  -0.161  1.00  0.00     0.037 A 
HETATM   30  C   UNL     1      53.060 -33.559  -1.285  1.00  0.00     0.003 A 
HETATM   31  C   UNL     1      52.782 -32.243  -1.649  1.00  0.00     0.001 A 
HETATM   32  C   UNL     1      51.883 -31.480  -0.896  1.00  0.00     0.016 A 
BRANCH  28  33
HETATM   33  O   UNL     1      51.052 -33.937   1.716  1.00  0.00    -0.360 OA
HETATM   34  H   UNL     1      50.118 -33.671   1.788  1.00  0.00     0.217 HD
ENDBRANCH  28  33
ENDBRANCH  10  27
TORSDOF 7
ENDMDL
MODEL 10
REMARK VINA RESULT:      -6.9      3.165      5.212
REMARK  7 active torsions:
REMARK  status: ('A' for Active; 'I' for Inactive)
REMARK    1  A    between atoms: S_2  and  C_3 
REMARK    2  A    between atoms: C_6  and  C_7 
REMARK    3  A    between atoms: N_8  and  C_9 
REMARK    4  A    between atoms: C_9  and  C_10 
REMARK    5  A    between atoms: C_10  and  C_11 
REMARK    6  A    between atoms: C_24  and  C_25 
REMARK    7  A    between atoms: C_26  and  O_27 
ROOT
HETATM    1  C   UNL     1      41.906 -13.578   4.093  1.00  0.00     0.159 A 
HETATM    2  N   UNL     1      41.812 -14.844   4.855  1.00  0.00    -0.333 N 
HETATM    3  C   UNL     1      40.857 -15.746   4.361  1.00  0.00     0.275 A 
HETATM    4  O   UNL     1      40.545 -16.830   4.825  1.00  0.00    -0.266 OA
HETATM    5  C   UNL     1      40.370 -15.112   3.155  1.00  0.00     0.155 A 
HETATM    6  C   UNL     1      40.988 -13.869   2.964  1.00  0.00     0.034 A 
HETATM    7  N   UNL     1      39.545 -15.447   2.169  1.00  0.00    -0.168 NA
HETATM    8  N   UNL     1      39.637 -14.379   1.340  1.00  0.00    -0.276 N 
HETATM    9  H   UNL     1      39.080 -14.376   0.491  1.00  0.00     0.189 HD
HETATM   10  C   UNL     1      40.569 -13.430   1.731  1.00  0.00     0.074 A 
ENDROOT
BRANCH   1  11
HETATM   11  C   UNL     1      41.327 -12.393   4.839  1.00  0.00    -0.031 A 
HETATM   12  C   UNL     1      42.120 -11.258   5.064  1.00  0.00     0.011 A 
HETATM   13  C   UNL     1      41.595 -10.131   5.708  1.00  0.00     0.019 A 
HETATM   14  C   UNL     1      40.267 -10.112   6.138  1.00  0.00    -0.000 A 
HETATM   15  C   UNL     1      39.482 -11.251   5.963  1.00  0.00     0.019 A 
HETATM   16  C   UNL     1      40.004 -12.378   5.324  1.00  0.00     0.011 A 
BRANCH  14  17
HETATM   17  S   UNL     1      39.620  -8.646   6.919  1.00  0.00    -0.134 SA
HETATM   18  C   UNL     1      39.922  -9.065   8.660  1.00  0.00     0.095 C 
ENDBRANCH  14  17
ENDBRANCH   1  11
BRANCH   2  19
HETATM   19  C   UNL     1      42.668 -15.124   5.997  1.00  0.00     0.132 C 
BRANCH  19  20
HETATM   20  C   UNL     1      43.987 -15.790   5.584  1.00  0.00     0.058 C 
BRANCH  20  21
HETATM   21  C   UNL     1      43.930 -17.297   5.623  1.00  0.00    -0.057 A 
HETATM   22  C   UNL     1      43.409 -17.970   6.735  1.00  0.00     0.007 A 
HETATM   23  C   UNL     1      43.341 -19.364   6.752  1.00  0.00     0.001 A 
HETATM   24  C   UNL     1      43.788 -20.099   5.656  1.00  0.00     0.000 A 
HETATM   25  C   UNL     1      44.304 -19.441   4.541  1.00  0.00     0.001 A 
HETATM   26  C   UNL     1      44.375 -18.047   4.525  1.00  0.00     0.007 A 
ENDBRANCH  20  21
ENDBRANCH  19  20
ENDBRANCH   2  19
BRANCH  10  27
HETATM   27  C   UNL     1      40.917 -12.285   0.898  1.00  0.00     0.026 A 
HETATM   28  C   UNL     1      40.960 -12.379  -0.503  1.00  0.00     0.078 A 
HETATM   29  C   UNL     1      41.229 -11.267  -1.296  1.00  0.00     0.037 A 
HETATM   30  C   UNL     1      41.495 -10.038  -0.697  1.00  0.00     0.003 A 
HETATM   31  C   UNL     1      41.476  -9.926   0.692  1.00  0.00     0.001 A 
HETATM   32  C   UNL     1      41.179 -11.041   1.484  1.00  0.00     0.016 A 
BRANCH  28  33
HETATM   33  O   UNL     1      40.753 -13.561  -1.165  1.00  0.00    -0.360 OA
HETATM   34  H   UNL     1      41.478 -13.676  -1.805  1.00  0.00     0.217 HD
ENDBRANCH  28  33
ENDBRANCH  10  27
TORSDOF 7
ENDMDL
