MODEL 1
REMARK VINA RESULT:      -9.0      0.000      0.000
REMARK  7 active torsions:
REMARK  status: ('A' for Active; 'I' for Inactive)
REMARK    1  A    between atoms: C_10  and  C_11 
REMARK    2  A    between atoms: C_11  and  C_12 
REMARK       I    between atoms: C_12  and  N_13 
REMARK    3  A    between atoms: N_13  and  N_14 
REMARK       I    between atoms: N_14  and  C_15 
REMARK    4  A    between atoms: C_15  and  C_16 
REMARK    5  A    between atoms: C_16  and  C_17 
REMARK    6  A    between atoms: C_17  and  C_18 
REMARK       I    between atoms: C_18  and  N_19 
REMARK    7  A    between atoms: N_19  and  C_20 
ROOT
HETATM    1  C   UNL     1      42.451  -8.884  11.760  1.00  0.00     0.034 A 
HETATM    2  C   UNL     1      43.219  -8.012  12.533  1.00  0.00     0.031 A 
HETATM    3  C   UNL     1      42.870  -7.744  13.863  1.00  0.00     0.025 A 
HETATM    4  C   UNL     1      41.749  -8.351  14.434  1.00  0.00     0.044 A 
HETATM    5  C   UNL     1      41.394  -8.079  15.795  1.00  0.00     0.099 C 
HETATM    6  N   UNL     1      41.102  -7.863  16.898  1.00  0.00    -0.191 NA
HETATM    7  C   UNL     1      40.976  -9.225  13.665  1.00  0.00     0.025 A 
HETATM    8  C   UNL     1      41.324  -9.486  12.335  1.00  0.00     0.031 A 
ENDROOT
BRANCH   1   9
HETATM    9  N   UNL     1      42.730  -9.200  10.416  1.00  0.00    -0.327 N 
HETATM   10  C   UNL     1      43.518 -10.229   9.940  1.00  0.00     0.222 C 
HETATM   11  O   UNL     1      44.097 -11.079  10.609  1.00  0.00    -0.273 OA
HETATM   12  H   UNL     1      42.270  -8.617   9.714  1.00  0.00     0.169 HD
BRANCH  10  13
HETATM   13  C   UNL     1      43.607 -10.258   8.425  1.00  0.00     0.112 C 
BRANCH  13  14
HETATM   14  C   UNL     1      44.554 -11.348   7.936  1.00  0.00     0.114 C 
BRANCH  14  15
HETATM   15  C   UNL     1      43.849 -12.349   7.044  1.00  0.00     0.236 C 
HETATM   16  N   UNL     1      42.498 -12.118   6.926  1.00  0.00    -0.268 N 
HETATM   17  H   UNL     1      41.999 -11.397   7.450  1.00  0.00     0.190 HD
HETATM   18  O   UNL     1      44.435 -13.255   6.452  1.00  0.00    -0.272 OA
BRANCH  16  19
HETATM   19  N   UNL     1      41.700 -13.074   6.291  1.00  0.00    -0.267 N 
HETATM   20  C   UNL     1      41.145 -12.736   5.071  1.00  0.00     0.240 C 
HETATM   21  O   UNL     1      41.286 -11.616   4.578  1.00  0.00    -0.272 OA
HETATM   22  H   UNL     1      41.783 -14.040   6.607  1.00  0.00     0.190 HD
BRANCH  20  23
HETATM   23  C   UNL     1      40.308 -13.824   4.443  1.00  0.00     0.146 C 
BRANCH  23  24
HETATM   24  C   UNL     1      40.978 -14.685   3.412  1.00  0.00    -0.015 A 
HETATM   25  C   UNL     1      41.868 -15.808   3.564  1.00  0.00    -0.000 A 
HETATM   26  C   UNL     1      42.454 -16.491   4.656  1.00  0.00     0.021 A 
HETATM   27  C   UNL     1      42.169 -16.274   2.283  1.00  0.00     0.043 A 
HETATM   28  C   UNL     1      43.297 -17.598   4.443  1.00  0.00    -0.061 A 
HETATM   29  C   UNL     1      43.875 -18.338   5.613  1.00  0.00     0.048 C 
HETATM   30  C   UNL     1      43.545 -18.037   3.142  1.00  0.00     0.009 A 
HETATM   31  C   UNL     1      42.997 -17.377   2.041  1.00  0.00     0.031 A 
HETATM   32  N   UNL     1      41.520 -15.463   1.388  1.00  0.00    -0.359 N 
HETATM   33  H   UNL     1      41.576 -15.568   0.384  1.00  0.00     0.166 HD
HETATM   34  C   UNL     1      40.795 -14.506   2.044  1.00  0.00     0.013 A 
HETATM   35  C   UNL     1      39.992 -13.501   1.298  1.00  0.00     0.068 C 
ENDBRANCH  23  24
ENDBRANCH  20  23
ENDBRANCH  16  19
ENDBRANCH  14  15
ENDBRANCH  13  14
ENDBRANCH  10  13
ENDBRANCH   1   9
TORSDOF 7
ENDMDL
MODEL 2
REMARK VINA RESULT:      -8.8      1.322      2.984
REMARK  7 active torsions:
REMARK  status: ('A' for Active; 'I' for Inactive)
REMARK    1  A    between atoms: C_10  and  C_11 
REMARK    2  A    between atoms: C_11  and  C_12 
REMARK       I    between atoms: C_12  and  N_13 
REMARK    3  A    between atoms: N_13  and  N_14 
REMARK       I    between atoms: N_14  and  C_15 
REMARK    4  A    between atoms: C_15  and  C_16 
REMARK    5  A    between atoms: C_16  and  C_17 
REMARK    6  A    between atoms: C_17  and  C_18 
REMARK       I    between atoms: C_18  and  N_19 
REMARK    7  A    between atoms: N_19  and  C_20 
ROOT
HETATM    1  C   UNL     1      43.011  -8.907  11.783  1.00  0.00     0.034 A 
HETATM    2  C   UNL     1      43.564  -7.938  12.623  1.00  0.00     0.031 A 
HETATM    3  C   UNL     1      43.005  -7.684  13.881  1.00  0.00     0.025 A 
HETATM    4  C   UNL     1      41.886  -8.400  14.313  1.00  0.00     0.044 A 
HETATM    5  C   UNL     1      41.317  -8.142  15.603  1.00  0.00     0.099 C 
HETATM    6  N   UNL     1      40.851  -7.937  16.646  1.00  0.00    -0.191 NA
HETATM    7  C   UNL     1      41.328  -9.370  13.478  1.00  0.00     0.025 A 
HETATM    8  C   UNL     1      41.885  -9.618  12.218  1.00  0.00     0.031 A 
ENDROOT
BRANCH   1   9
HETATM    9  N   UNL     1      43.509  -9.217  10.502  1.00  0.00    -0.327 N 
HETATM   10  C   UNL     1      44.501 -10.123  10.182  1.00  0.00     0.222 C 
HETATM   11  O   UNL     1      45.110 -10.849  10.961  1.00  0.00    -0.273 OA
HETATM   12  H   UNL     1      43.061  -8.737   9.719  1.00  0.00     0.169 HD
BRANCH  10  13
HETATM   13  C   UNL     1      44.791 -10.186   8.694  1.00  0.00     0.112 C 
BRANCH  13  14
HETATM   14  C   UNL     1      43.559 -10.591   7.894  1.00  0.00     0.114 C 
BRANCH  14  15
HETATM   15  C   UNL     1      43.881 -11.649   6.859  1.00  0.00     0.236 C 
HETATM   16  N   UNL     1      43.581 -12.926   7.272  1.00  0.00    -0.268 N 
HETATM   17  H   UNL     1      43.252 -13.154   8.212  1.00  0.00     0.190 HD
HETATM   18  O   UNL     1      44.329 -11.386   5.743  1.00  0.00    -0.272 OA
BRANCH  16  19
HETATM   19  N   UNL     1      44.003 -14.007   6.493  1.00  0.00    -0.267 N 
HETATM   20  C   UNL     1      43.345 -15.211   6.658  1.00  0.00     0.240 C 
HETATM   21  O   UNL     1      42.459 -15.360   7.500  1.00  0.00    -0.272 OA
HETATM   22  H   UNL     1      44.571 -13.800   5.671  1.00  0.00     0.190 HD
BRANCH  20  23
HETATM   23  C   UNL     1      43.850 -16.325   5.773  1.00  0.00     0.146 C 
BRANCH  23  24
HETATM   24  C   UNL     1      43.089 -16.582   4.505  1.00  0.00    -0.015 A 
HETATM   25  C   UNL     1      42.029 -15.835   3.880  1.00  0.00    -0.000 A 
HETATM   26  C   UNL     1      41.304 -14.660   4.190  1.00  0.00     0.021 A 
HETATM   27  C   UNL     1      41.703 -16.491   2.692  1.00  0.00     0.043 A 
HETATM   28  C   UNL     1      40.305 -14.181   3.321  1.00  0.00    -0.061 A 
HETATM   29  C   UNL     1      39.576 -12.909   3.642  1.00  0.00     0.048 C 
HETATM   30  C   UNL     1      40.036 -14.863   2.135  1.00  0.00     0.009 A 
HETATM   31  C   UNL     1      40.720 -16.035   1.805  1.00  0.00     0.031 A 
HETATM   32  N   UNL     1      42.502 -17.602   2.604  1.00  0.00    -0.359 N 
HETATM   33  H   UNL     1      42.466 -18.268   1.844  1.00  0.00     0.166 HD
HETATM   34  C   UNL     1      43.346 -17.673   3.679  1.00  0.00     0.013 A 
HETATM   35  C   UNL     1      44.324 -18.785   3.819  1.00  0.00     0.068 C 
ENDBRANCH  23  24
ENDBRANCH  20  23
ENDBRANCH  16  19
ENDBRANCH  14  15
ENDBRANCH  13  14
ENDBRANCH  10  13
ENDBRANCH   1   9
TORSDOF 7
ENDMDL
MODEL 3
REMARK VINA RESULT:      -8.8      5.063      8.951
REMARK  7 active torsions:
REMARK  status: ('A' for Active; 'I' for Inactive)
REMARK    1  A    between atoms: C_10  and  C_11 
REMARK    2  A    between atoms: C_11  and  C_12 
REMARK       I    between atoms: C_12  and  N_13 
REMARK    3  A    between atoms: N_13  and  N_14 
REMARK       I    between atoms: N_14  and  C_15 
REMARK    4  A    between atoms: C_15  and  C_16 
REMARK    5  A    between atoms: C_16  and  C_17 
REMARK    6  A    between atoms: C_17  and  C_18 
REMARK       I    between atoms: C_18  and  N_19 
REMARK    7  A    between atoms: N_19  and  C_20 
ROOT
HETATM    1  C   UNL     1      43.612 -16.414   4.607  1.00  0.00     0.034 A 
HETATM    2  C   UNL     1      42.901 -16.465   3.407  1.00  0.00     0.031 A 
HETATM    3  C   UNL     1      42.921 -17.621   2.616  1.00  0.00     0.025 A 
HETATM    4  C   UNL     1      43.652 -18.740   3.022  1.00  0.00     0.044 A 
HETATM    5  C   UNL     1      43.669 -19.924   2.215  1.00  0.00     0.099 C 
HETATM    6  N   UNL     1      43.687 -20.885   1.565  1.00  0.00    -0.191 NA
HETATM    7  C   UNL     1      44.366 -18.695   4.222  1.00  0.00     0.025 A 
HETATM    8  C   UNL     1      44.349 -17.536   5.007  1.00  0.00     0.031 A 
ENDROOT
BRANCH   1   9
HETATM    9  N   UNL     1      43.648 -15.288   5.454  1.00  0.00    -0.327 N 
HETATM   10  C   UNL     1      42.944 -15.094   6.626  1.00  0.00     0.222 C 
HETATM   11  O   UNL     1      42.175 -15.888   7.159  1.00  0.00    -0.273 OA
HETATM   12  H   UNL     1      44.295 -14.545   5.183  1.00  0.00     0.169 HD
BRANCH  10  13
HETATM   13  C   UNL     1      43.221 -13.749   7.270  1.00  0.00     0.112 C 
BRANCH  13  14
HETATM   14  C   UNL     1      43.967 -12.813   6.327  1.00  0.00     0.114 C 
BRANCH  14  15
HETATM   15  C   UNL     1      43.151 -12.488   5.093  1.00  0.00     0.236 C 
HETATM   16  N   UNL     1      41.823 -12.251   5.364  1.00  0.00    -0.268 N 
HETATM   17  H   UNL     1      41.405 -12.364   6.289  1.00  0.00     0.190 HD
HETATM   18  O   UNL     1      43.637 -12.404   3.966  1.00  0.00    -0.272 OA
BRANCH  16  19
HETATM   19  N   UNL     1      40.925 -12.129   4.299  1.00  0.00    -0.267 N 
HETATM   20  C   UNL     1      40.193 -13.247   3.948  1.00  0.00     0.240 C 
HETATM   21  O   UNL     1      40.358 -14.336   4.501  1.00  0.00    -0.272 OA
HETATM   22  H   UNL     1      40.657 -11.186   4.016  1.00  0.00     0.190 HD
BRANCH  20  23
HETATM   23  C   UNL     1      39.239 -13.032   2.799  1.00  0.00     0.146 C 
BRANCH  23  24
HETATM   24  C   UNL     1      39.824 -13.062   1.416  1.00  0.00    -0.015 A 
HETATM   25  C   UNL     1      40.190 -11.986   0.530  1.00  0.00    -0.000 A 
HETATM   26  C   UNL     1      40.129 -10.574   0.579  1.00  0.00     0.021 A 
HETATM   27  C   UNL     1      40.726 -12.563  -0.622  1.00  0.00     0.043 A 
HETATM   28  C   UNL     1      40.603  -9.796  -0.494  1.00  0.00    -0.061 A 
HETATM   29  C   UNL     1      40.572  -8.298  -0.408  1.00  0.00     0.048 C 
HETATM   30  C   UNL     1      41.152 -10.424  -1.613  1.00  0.00     0.009 A 
HETATM   31  C   UNL     1      41.213 -11.816  -1.702  1.00  0.00     0.031 A 
HETATM   32  N   UNL     1      40.668 -13.924  -0.466  1.00  0.00    -0.359 N 
HETATM   33  H   UNL     1      40.981 -14.589  -1.160  1.00  0.00     0.166 HD
HETATM   34  C   UNL     1      40.135 -14.245   0.753  1.00  0.00     0.013 A 
HETATM   35  C   UNL     1      39.968 -15.663   1.172  1.00  0.00     0.068 C 
ENDBRANCH  23  24
ENDBRANCH  20  23
ENDBRANCH  16  19
ENDBRANCH  14  15
ENDBRANCH  13  14
ENDBRANCH  10  13
ENDBRANCH   1   9
TORSDOF 7
ENDMDL
MODEL 4
REMARK VINA RESULT:      -8.7      3.022     10.319
REMARK  7 active torsions:
REMARK  status: ('A' for Active; 'I' for Inactive)
REMARK    1  A    between atoms: C_10  and  C_11 
REMARK    2  A    between atoms: C_11  and  C_12 
REMARK       I    between atoms: C_12  and  N_13 
REMARK    3  A    between atoms: N_13  and  N_14 
REMARK       I    between atoms: N_14  and  C_15 
REMARK    4  A    between atoms: C_15  and  C_16 
REMARK    5  A    between atoms: C_16  and  C_17 
REMARK    6  A    between atoms: C_17  and  C_18 
REMARK       I    between atoms: C_18  and  N_19 
REMARK    7  A    between atoms: N_19  and  C_20 
ROOT
HETATM    1  C   UNL     1      40.224 -14.619   2.202  1.00  0.00     0.034 A 
HETATM    2  C   UNL     1      40.624 -13.338   1.818  1.00  0.00     0.031 A 
HETATM    3  C   UNL     1      40.634 -12.970   0.466  1.00  0.00     0.025 A 
HETATM    4  C   UNL     1      40.239 -13.882  -0.515  1.00  0.00     0.044 A 
HETATM    5  C   UNL     1      40.246 -13.505  -1.897  1.00  0.00     0.099 C 
HETATM    6  N   UNL     1      40.251 -13.204  -3.019  1.00  0.00    -0.191 NA
HETATM    7  C   UNL     1      39.838 -15.166  -0.138  1.00  0.00     0.025 A 
HETATM    8  C   UNL     1      39.834 -15.532   1.213  1.00  0.00     0.031 A 
ENDROOT
BRANCH   1   9
HETATM    9  N   UNL     1      40.192 -15.068   3.537  1.00  0.00    -0.327 N 
HETATM   10  C   UNL     1      40.927 -16.094   4.098  1.00  0.00     0.222 C 
HETATM   11  O   UNL     1      41.769 -16.785   3.534  1.00  0.00    -0.273 OA
HETATM   12  H   UNL     1      39.575 -14.552   4.168  1.00  0.00     0.169 HD
BRANCH  10  13
HETATM   13  C   UNL     1      40.621 -16.310   5.568  1.00  0.00     0.112 C 
BRANCH  13  14
HETATM   14  C   UNL     1      41.889 -16.557   6.378  1.00  0.00     0.114 C 
BRANCH  14  15
HETATM   15  C   UNL     1      42.731 -15.304   6.502  1.00  0.00     0.236 C 
HETATM   16  N   UNL     1      42.037 -14.228   7.004  1.00  0.00    -0.268 N 
HETATM   17  H   UNL     1      41.035 -14.240   7.197  1.00  0.00     0.190 HD
HETATM   18  O   UNL     1      43.928 -15.266   6.219  1.00  0.00    -0.272 OA
BRANCH  16  19
HETATM   19  N   UNL     1      42.642 -12.966   6.990  1.00  0.00    -0.267 N 
HETATM   20  C   UNL     1      42.198 -12.055   6.049  1.00  0.00     0.240 C 
HETATM   21  O   UNL     1      41.349 -12.348   5.207  1.00  0.00    -0.272 OA
HETATM   22  H   UNL     1      43.168 -12.688   7.818  1.00  0.00     0.190 HD
BRANCH  20  23
HETATM   23  C   UNL     1      42.890 -10.715   6.106  1.00  0.00     0.146 C 
BRANCH  23  24
HETATM   24  C   UNL     1      43.867 -10.502   7.225  1.00  0.00    -0.015 A 
HETATM   25  C   UNL     1      43.674  -9.969   8.549  1.00  0.00    -0.000 A 
HETATM   26  C   UNL     1      42.579  -9.443   9.276  1.00  0.00     0.021 A 
HETATM   27  C   UNL     1      44.906 -10.027   9.203  1.00  0.00     0.043 A 
HETATM   28  C   UNL     1      42.740  -9.009  10.605  1.00  0.00    -0.061 A 
HETATM   29  C   UNL     1      41.560  -8.495  11.376  1.00  0.00     0.048 C 
HETATM   30  C   UNL     1      43.989  -9.111  11.219  1.00  0.00     0.009 A 
HETATM   31  C   UNL     1      45.094  -9.610  10.526  1.00  0.00     0.031 A 
HETATM   32  N   UNL     1      45.817 -10.542   8.317  1.00  0.00    -0.359 N 
HETATM   33  H   UNL     1      46.796 -10.681   8.528  1.00  0.00     0.166 HD
HETATM   34  C   UNL     1      45.214 -10.839   7.126  1.00  0.00     0.013 A 
HETATM   35  C   UNL     1      45.986 -11.420   5.995  1.00  0.00     0.068 C 
ENDBRANCH  23  24
ENDBRANCH  20  23
ENDBRANCH  16  19
ENDBRANCH  14  15
ENDBRANCH  13  14
ENDBRANCH  10  13
ENDBRANCH   1   9
TORSDOF 7
ENDMDL
MODEL 5
REMARK VINA RESULT:      -8.6      6.802     10.420
REMARK  7 active torsions:
REMARK  status: ('A' for Active; 'I' for Inactive)
REMARK    1  A    between atoms: C_10  and  C_11 
REMARK    2  A    between atoms: C_11  and  C_12 
REMARK       I    between atoms: C_12  and  N_13 
REMARK    3  A    between atoms: N_13  and  N_14 
REMARK       I    between atoms: N_14  and  C_15 
REMARK    4  A    between atoms: C_15  and  C_16 
REMARK    5  A    between atoms: C_16  and  C_17 
REMARK    6  A    between atoms: C_17  and  C_18 
REMARK       I    between atoms: C_18  and  N_19 
REMARK    7  A    between atoms: N_19  and  C_20 
ROOT
HETATM    1  C   UNL     1      41.673  -8.452  -2.734  1.00  0.00     0.034 A 
HETATM    2  C   UNL     1      41.834  -7.303  -3.511  1.00  0.00     0.031 A 
HETATM    3  C   UNL     1      42.681  -6.271  -3.088  1.00  0.00     0.025 A 
HETATM    4  C   UNL     1      43.378  -6.380  -1.882  1.00  0.00     0.044 A 
HETATM    5  C   UNL     1      44.247  -5.325  -1.452  1.00  0.00     0.099 C 
HETATM    6  N   UNL     1      44.952  -4.473  -1.099  1.00  0.00    -0.191 NA
HETATM    7  C   UNL     1      43.221  -7.527  -1.100  1.00  0.00     0.025 A 
HETATM    8  C   UNL     1      42.370  -8.554  -1.522  1.00  0.00     0.031 A 
ENDROOT
BRANCH   1   9
HETATM    9  N   UNL     1      40.836  -9.530  -3.085  1.00  0.00    -0.327 N 
HETATM   10  C   UNL     1      39.932 -10.192  -2.277  1.00  0.00     0.222 C 
HETATM   11  O   UNL     1      39.672  -9.936  -1.105  1.00  0.00    -0.273 OA
HETATM   12  H   UNL     1      40.884  -9.835  -4.059  1.00  0.00     0.169 HD
BRANCH  10  13
HETATM   13  C   UNL     1      39.211 -11.320  -2.990  1.00  0.00     0.112 C 
BRANCH  13  14
HETATM   14  C   UNL     1      40.011 -12.617  -2.949  1.00  0.00     0.114 C 
BRANCH  14  15
HETATM   15  C   UNL     1      39.480 -13.574  -1.902  1.00  0.00     0.236 C 
HETATM   16  N   UNL     1      39.731 -13.165  -0.613  1.00  0.00    -0.268 N 
HETATM   17  H   UNL     1      40.291 -12.345  -0.378  1.00  0.00     0.190 HD
HETATM   18  O   UNL     1      38.851 -14.594  -2.179  1.00  0.00    -0.272 OA
BRANCH  16  19
HETATM   19  N   UNL     1      39.465 -14.046   0.441  1.00  0.00    -0.267 N 
HETATM   20  C   UNL     1      40.525 -14.772   0.951  1.00  0.00     0.240 C 
HETATM   21  O   UNL     1      41.655 -14.705   0.466  1.00  0.00    -0.272 OA
HETATM   22  H   UNL     1      38.591 -13.918   0.951  1.00  0.00     0.190 HD
BRANCH  20  23
HETATM   23  C   UNL     1      40.160 -15.690   2.092  1.00  0.00     0.146 C 
BRANCH  23  24
HETATM   24  C   UNL     1      41.239 -15.995   3.089  1.00  0.00    -0.015 A 
HETATM   25  C   UNL     1      42.192 -17.075   3.139  1.00  0.00    -0.000 A 
HETATM   26  C   UNL     1      42.465 -18.217   2.350  1.00  0.00     0.021 A 
HETATM   27  C   UNL     1      42.999 -16.863   4.258  1.00  0.00     0.043 A 
HETATM   28  C   UNL     1      43.517 -19.089   2.688  1.00  0.00    -0.061 A 
HETATM   29  C   UNL     1      43.821 -20.272   1.815  1.00  0.00     0.048 C 
HETATM   30  C   UNL     1      44.308 -18.818   3.804  1.00  0.00     0.009 A 
HETATM   31  C   UNL     1      44.057 -17.709   4.614  1.00  0.00     0.031 A 
HETATM   32  N   UNL     1      42.549 -15.728   4.881  1.00  0.00    -0.359 N 
HETATM   33  H   UNL     1      42.949 -15.350   5.729  1.00  0.00     0.166 HD
HETATM   34  C   UNL     1      41.497 -15.187   4.193  1.00  0.00     0.013 A 
HETATM   35  C   UNL     1      40.829 -13.942   4.659  1.00  0.00     0.068 C 
ENDBRANCH  23  24
ENDBRANCH  20  23
ENDBRANCH  16  19
ENDBRANCH  14  15
ENDBRANCH  13  14
ENDBRANCH  10  13
ENDBRANCH   1   9
TORSDOF 7
ENDMDL
MODEL 6
REMARK VINA RESULT:      -8.6      2.311     11.564
REMARK  7 active torsions:
REMARK  status: ('A' for Active; 'I' for Inactive)
REMARK    1  A    between atoms: C_10  and  C_11 
REMARK    2  A    between atoms: C_11  and  C_12 
REMARK       I    between atoms: C_12  and  N_13 
REMARK    3  A    between atoms: N_13  and  N_14 
REMARK       I    between atoms: N_14  and  C_15 
REMARK    4  A    between atoms: C_15  and  C_16 
REMARK    5  A    between atoms: C_16  and  C_17 
REMARK    6  A    between atoms: C_17  and  C_18 
REMARK       I    between atoms: C_18  and  N_19 
REMARK    7  A    between atoms: N_19  and  C_20 
ROOT
HETATM    1  C   UNL     1      43.366 -16.214   4.377  1.00  0.00     0.034 A 
HETATM    2  C   UNL     1      43.898 -17.317   5.049  1.00  0.00     0.031 A 
HETATM    3  C   UNL     1      44.027 -18.551   4.400  1.00  0.00     0.025 A 
HETATM    4  C   UNL     1      43.628 -18.693   3.068  1.00  0.00     0.044 A 
HETATM    5  C   UNL     1      43.764 -19.955   2.404  1.00  0.00     0.099 C 
HETATM    6  N   UNL     1      43.871 -20.975   1.861  1.00  0.00    -0.191 NA
HETATM    7  C   UNL     1      43.096 -17.593   2.391  1.00  0.00     0.025 A 
HETATM    8  C   UNL     1      42.963 -16.362   3.044  1.00  0.00     0.031 A 
ENDROOT
BRANCH   1   9
HETATM    9  N   UNL     1      43.198 -14.943   4.960  1.00  0.00    -0.327 N 
HETATM   10  C   UNL     1      42.060 -14.435   5.558  1.00  0.00     0.222 C 
HETATM   11  O   UNL     1      40.993 -15.018   5.716  1.00  0.00    -0.273 OA
HETATM   12  H   UNL     1      44.023 -14.340   4.968  1.00  0.00     0.169 HD
BRANCH  10  13
HETATM   13  C   UNL     1      42.238 -13.016   6.066  1.00  0.00     0.112 C 
BRANCH  13  14
HETATM   14  C   UNL     1      43.499 -12.369   5.505  1.00  0.00     0.114 C 
BRANCH  14  15
HETATM   15  C   UNL     1      44.273 -11.625   6.573  1.00  0.00     0.236 C 
HETATM   16  N   UNL     1      43.623 -11.577   7.785  1.00  0.00    -0.268 N 
HETATM   17  H   UNL     1      42.678 -11.931   7.934  1.00  0.00     0.190 HD
HETATM   18  O   UNL     1      45.392 -11.147   6.385  1.00  0.00    -0.272 OA
BRANCH  16  19
HETATM   19  N   UNL     1      44.138 -10.761   8.797  1.00  0.00    -0.267 N 
HETATM   20  C   UNL     1      43.403  -9.647   9.157  1.00  0.00     0.240 C 
HETATM   21  O   UNL     1      42.364  -9.335   8.574  1.00  0.00    -0.272 OA
HETATM   22  H   UNL     1      44.864 -11.156   9.395  1.00  0.00     0.190 HD
BRANCH  20  23
HETATM   23  C   UNL     1      44.017  -8.825  10.263  1.00  0.00     0.146 C 
BRANCH  23  24
HETATM   24  C   UNL     1      43.227  -8.699  11.533  1.00  0.00    -0.015 A 
HETATM   25  C   UNL     1      42.570  -7.558  12.119  1.00  0.00    -0.000 A 
HETATM   26  C   UNL     1      42.431  -6.191  11.782  1.00  0.00     0.021 A 
HETATM   27  C   UNL     1      41.943  -7.996  13.287  1.00  0.00     0.043 A 
HETATM   28  C   UNL     1      41.681  -5.323  12.598  1.00  0.00    -0.061 A 
HETATM   29  C   UNL     1      41.507  -3.885  12.204  1.00  0.00     0.048 C 
HETATM   30  C   UNL     1      41.056  -5.817  13.743  1.00  0.00     0.009 A 
HETATM   31  C   UNL     1      41.185  -7.157  14.113  1.00  0.00     0.031 A 
HETATM   32  N   UNL     1      42.224  -9.330  13.429  1.00  0.00    -0.359 N 
HETATM   33  H   UNL     1      41.903  -9.898  14.201  1.00  0.00     0.166 HD
HETATM   34  C   UNL     1      42.988  -9.774  12.385  1.00  0.00     0.013 A 
HETATM   35  C   UNL     1      43.425 -11.194  12.297  1.00  0.00     0.068 C 
ENDBRANCH  23  24
ENDBRANCH  20  23
ENDBRANCH  16  19
ENDBRANCH  14  15
ENDBRANCH  13  14
ENDBRANCH  10  13
ENDBRANCH   1   9
TORSDOF 7
ENDMDL
MODEL 7
REMARK VINA RESULT:      -8.5      5.358      9.020
REMARK  7 active torsions:
REMARK  status: ('A' for Active; 'I' for Inactive)
REMARK    1  A    between atoms: C_10  and  C_11 
REMARK    2  A    between atoms: C_11  and  C_12 
REMARK       I    between atoms: C_12  and  N_13 
REMARK    3  A    between atoms: N_13  and  N_14 
REMARK       I    between atoms: N_14  and  C_15 
REMARK    4  A    between atoms: C_15  and  C_16 
REMARK    5  A    between atoms: C_16  and  C_17 
REMARK    6  A    between atoms: C_17  and  C_18 
REMARK       I    between atoms: C_18  and  N_19 
REMARK    7  A    between atoms: N_19  and  C_20 
ROOT
HETATM    1  C   UNL     1      43.361 -15.889   4.253  1.00  0.00     0.034 A 
HETATM    2  C   UNL     1      43.940 -16.996   4.878  1.00  0.00     0.031 A 
HETATM    3  C   UNL     1      43.968 -18.241   4.237  1.00  0.00     0.025 A 
HETATM    4  C   UNL     1      43.418 -18.390   2.961  1.00  0.00     0.044 A 
HETATM    5  C   UNL     1      43.450 -19.663   2.304  1.00  0.00     0.099 C 
HETATM    6  N   UNL     1      43.473 -20.692   1.768  1.00  0.00    -0.191 NA
HETATM    7  C   UNL     1      42.837 -17.286   2.331  1.00  0.00     0.025 A 
HETATM    8  C   UNL     1      42.806 -16.045   2.977  1.00  0.00     0.031 A 
ENDROOT
BRANCH   1   9
HETATM    9  N   UNL     1      43.287 -14.607   4.832  1.00  0.00    -0.327 N 
HETATM   10  C   UNL     1      42.791 -14.273   6.078  1.00  0.00     0.222 C 
HETATM   11  O   UNL     1      42.350 -15.046   6.922  1.00  0.00    -0.273 OA
HETATM   12  H   UNL     1      43.674 -13.842   4.277  1.00  0.00     0.169 HD
BRANCH  10  13
HETATM   13  C   UNL     1      42.856 -12.784   6.364  1.00  0.00     0.112 C 
BRANCH  13  14
HETATM   14  C   UNL     1      41.864 -12.002   5.513  1.00  0.00     0.114 C 
BRANCH  14  15
HETATM   15  C   UNL     1      42.499 -11.482   4.240  1.00  0.00     0.236 C 
HETATM   16  N   UNL     1      41.675 -10.651   3.518  1.00  0.00    -0.268 N 
HETATM   17  H   UNL     1      40.702 -10.466   3.764  1.00  0.00     0.190 HD
HETATM   18  O   UNL     1      43.654 -11.746   3.907  1.00  0.00    -0.272 OA
BRANCH  16  19
HETATM   19  N   UNL     1      42.066 -10.258   2.234  1.00  0.00    -0.267 N 
HETATM   20  C   UNL     1      41.077  -9.829   1.367  1.00  0.00     0.240 C 
HETATM   21  O   UNL     1      39.886  -9.846   1.677  1.00  0.00    -0.272 OA
HETATM   22  H   UNL     1      43.053 -10.050   2.087  1.00  0.00     0.190 HD
BRANCH  20  23
HETATM   23  C   UNL     1      41.580  -9.411   0.007  1.00  0.00     0.146 C 
BRANCH  23  24
HETATM   24  C   UNL     1      41.206 -10.286  -1.153  1.00  0.00    -0.015 A 
HETATM   25  C   UNL     1      40.821 -11.674  -1.195  1.00  0.00    -0.000 A 
HETATM   26  C   UNL     1      40.674 -12.709  -0.241  1.00  0.00     0.021 A 
HETATM   27  C   UNL     1      40.539 -11.986  -2.526  1.00  0.00     0.043 A 
HETATM   28  C   UNL     1      40.251 -13.993  -0.634  1.00  0.00    -0.061 A 
HETATM   29  C   UNL     1      40.058 -15.068   0.395  1.00  0.00     0.048 C 
HETATM   30  C   UNL     1      39.960 -14.245  -1.975  1.00  0.00     0.009 A 
HETATM   31  C   UNL     1      40.109 -13.251  -2.944  1.00  0.00     0.031 A 
HETATM   32  N   UNL     1      40.766 -10.857  -3.269  1.00  0.00    -0.359 N 
HETATM   33  H   UNL     1      40.650 -10.806  -4.273  1.00  0.00     0.166 HD
HETATM   34  C   UNL     1      41.161  -9.823  -2.465  1.00  0.00     0.013 A 
HETATM   35  C   UNL     1      41.465  -8.480  -3.029  1.00  0.00     0.068 C 
ENDBRANCH  23  24
ENDBRANCH  20  23
ENDBRANCH  16  19
ENDBRANCH  14  15
ENDBRANCH  13  14
ENDBRANCH  10  13
ENDBRANCH   1   9
TORSDOF 7
ENDMDL
MODEL 8
REMARK VINA RESULT:      -8.5      5.032      8.617
REMARK  7 active torsions:
REMARK  status: ('A' for Active; 'I' for Inactive)
REMARK    1  A    between atoms: C_10  and  C_11 
REMARK    2  A    between atoms: C_11  and  C_12 
REMARK       I    between atoms: C_12  and  N_13 
REMARK    3  A    between atoms: N_13  and  N_14 
REMARK       I    between atoms: N_14  and  C_15 
REMARK    4  A    between atoms: C_15  and  C_16 
REMARK    5  A    between atoms: C_16  and  C_17 
REMARK    6  A    between atoms: C_17  and  C_18 
REMARK       I    between atoms: C_18  and  N_19 
REMARK    7  A    between atoms: N_19  and  C_20 
ROOT
HETATM    1  C   UNL     1      43.606 -16.479   4.641  1.00  0.00     0.034 A 
HETATM    2  C   UNL     1      42.948 -16.443   3.411  1.00  0.00     0.031 A 
HETATM    3  C   UNL     1      42.944 -17.566   2.573  1.00  0.00     0.025 A 
HETATM    4  C   UNL     1      43.597 -18.738   2.962  1.00  0.00     0.044 A 
HETATM    5  C   UNL     1      43.589 -19.887   2.106  1.00  0.00     0.099 C 
HETATM    6  N   UNL     1      43.587 -20.821   1.416  1.00  0.00    -0.191 NA
HETATM    7  C   UNL     1      44.257 -18.780   4.192  1.00  0.00     0.025 A 
HETATM    8  C   UNL     1      44.265 -17.655   5.024  1.00  0.00     0.031 A 
ENDROOT
BRANCH   1   9
HETATM    9  N   UNL     1      43.663 -15.392   5.537  1.00  0.00    -0.327 N 
HETATM   10  C   UNL     1      42.882 -15.184   6.657  1.00  0.00     0.222 C 
HETATM   11  O   UNL     1      42.012 -15.930   7.093  1.00  0.00    -0.273 OA
HETATM   12  H   UNL     1      44.386 -14.695   5.351  1.00  0.00     0.169 HD
BRANCH  10  13
HETATM   13  C   UNL     1      43.212 -13.891   7.379  1.00  0.00     0.112 C 
BRANCH  13  14
HETATM   14  C   UNL     1      44.120 -12.994   6.547  1.00  0.00     0.114 C 
BRANCH  14  15
HETATM   15  C   UNL     1      43.340 -12.202   5.517  1.00  0.00     0.236 C 
HETATM   16  N   UNL     1      42.208 -11.610   6.027  1.00  0.00    -0.268 N 
HETATM   17  H   UNL     1      41.875 -11.754   6.982  1.00  0.00     0.190 HD
HETATM   18  O   UNL     1      43.707 -12.069   4.350  1.00  0.00    -0.272 OA
BRANCH  16  19
HETATM   19  N   UNL     1      41.301 -11.012   5.147  1.00  0.00    -0.267 N 
HETATM   20  C   UNL     1      40.036 -11.562   5.061  1.00  0.00     0.240 C 
HETATM   21  O   UNL     1      39.722 -12.578   5.683  1.00  0.00    -0.272 OA
HETATM   22  H   UNL     1      41.513 -10.068   4.824  1.00  0.00     0.190 HD
BRANCH  20  23
HETATM   23  C   UNL     1      39.112 -10.855   4.100  1.00  0.00     0.146 C 
BRANCH  23  24
HETATM   24  C   UNL     1      39.399 -11.022   2.636  1.00  0.00    -0.015 A 
HETATM   25  C   UNL     1      39.628 -12.211   1.855  1.00  0.00    -0.000 A 
HETATM   26  C   UNL     1      39.700 -13.598   2.126  1.00  0.00     0.021 A 
HETATM   27  C   UNL     1      39.808 -11.808   0.531  1.00  0.00     0.043 A 
HETATM   28  C   UNL     1      39.933 -14.521   1.090  1.00  0.00    -0.061 A 
HETATM   29  C   UNL     1      39.962 -15.992   1.387  1.00  0.00     0.048 C 
HETATM   30  C   UNL     1      40.082 -14.067  -0.220  1.00  0.00     0.009 A 
HETATM   31  C   UNL     1      40.034 -12.704  -0.521  1.00  0.00     0.031 A 
HETATM   32  N   UNL     1      39.722 -10.440   0.502  1.00  0.00    -0.359 N 
HETATM   33  H   UNL     1      39.828  -9.883  -0.335  1.00  0.00     0.166 HD
HETATM   34  C   UNL     1      39.472  -9.948   1.753  1.00  0.00     0.013 A 
HETATM   35  C   UNL     1      39.327  -8.487   1.992  1.00  0.00     0.068 C 
ENDBRANCH  23  24
ENDBRANCH  20  23
ENDBRANCH  16  19
ENDBRANCH  14  15
ENDBRANCH  13  14
ENDBRANCH  10  13
ENDBRANCH   1   9
TORSDOF 7
ENDMDL
MODEL 9
REMARK VINA RESULT:      -8.3      6.800     11.488
REMARK  7 active torsions:
REMARK  status: ('A' for Active; 'I' for Inactive)
REMARK    1  A    between atoms: C_10  and  C_11 
REMARK    2  A    between atoms: C_11  and  C_12 
REMARK       I    between atoms: C_12  and  N_13 
REMARK    3  A    between atoms: N_13  and  N_14 
REMARK       I    between atoms: N_14  and  C_15 
REMARK    4  A    between atoms: C_15  and  C_16 
REMARK    5  A    between atoms: C_16  and  C_17 
REMARK    6  A    between atoms: C_17  and  C_18 
REMARK       I    between atoms: C_18  and  N_19 
REMARK    7  A    between atoms: N_19  and  C_20 
ROOT
HETATM    1  C   UNL     1      39.919  -9.715  -3.167  1.00  0.00     0.034 A 
HETATM    2  C   UNL     1      39.753  -9.418  -4.521  1.00  0.00     0.031 A 
HETATM    3  C   UNL     1      40.482  -8.381  -5.117  1.00  0.00     0.025 A 
HETATM    4  C   UNL     1      41.389  -7.633  -4.362  1.00  0.00     0.044 A 
HETATM    5  C   UNL     1      42.138  -6.575  -4.973  1.00  0.00     0.099 C 
HETATM    6  N   UNL     1      42.746  -5.717  -5.463  1.00  0.00    -0.191 NA
HETATM    7  C   UNL     1      41.560  -7.926  -3.007  1.00  0.00     0.025 A 
HETATM    8  C   UNL     1      40.826  -8.958  -2.413  1.00  0.00     0.031 A 
ENDROOT
BRANCH   1   9
HETATM    9  N   UNL     1      39.220 -10.736  -2.492  1.00  0.00    -0.327 N 
HETATM   10  C   UNL     1      37.874 -11.033  -2.580  1.00  0.00     0.222 C 
HETATM   11  O   UNL     1      37.045 -10.475  -3.290  1.00  0.00    -0.273 OA
HETATM   12  H   UNL     1      39.782 -11.344  -1.894  1.00  0.00     0.169 HD
BRANCH  10  13
HETATM   13  C   UNL     1      37.463 -12.195  -1.695  1.00  0.00     0.112 C 
BRANCH  13  14
HETATM   14  C   UNL     1      37.886 -13.534  -2.288  1.00  0.00     0.114 C 
BRANCH  14  15
HETATM   15  C   UNL     1      39.337 -13.849  -1.989  1.00  0.00     0.236 C 
HETATM   16  N   UNL     1      39.587 -14.053  -0.652  1.00  0.00    -0.268 N 
HETATM   17  H   UNL     1      38.888 -13.923   0.081  1.00  0.00     0.190 HD
HETATM   18  O   UNL     1      40.198 -13.953  -2.862  1.00  0.00    -0.272 OA
BRANCH  16  19
HETATM   19  N   UNL     1      40.913 -14.162  -0.220  1.00  0.00    -0.267 N 
HETATM   20  C   UNL     1      41.146 -14.829   0.969  1.00  0.00     0.240 C 
HETATM   21  O   UNL     1      40.226 -15.261   1.665  1.00  0.00    -0.272 OA
HETATM   22  H   UNL     1      41.647 -13.995  -0.908  1.00  0.00     0.190 HD
BRANCH  20  23
HETATM   23  C   UNL     1      42.600 -14.915   1.361  1.00  0.00     0.146 C 
BRANCH  23  24
HETATM   24  C   UNL     1      42.914 -15.599   2.660  1.00  0.00    -0.015 A 
HETATM   25  C   UNL     1      43.225 -16.977   2.942  1.00  0.00    -0.000 A 
HETATM   26  C   UNL     1      43.329 -18.165   2.180  1.00  0.00     0.021 A 
HETATM   27  C   UNL     1      43.474 -17.073   4.312  1.00  0.00     0.043 A 
HETATM   28  C   UNL     1      43.680 -19.383   2.792  1.00  0.00    -0.061 A 
HETATM   29  C   UNL     1      43.829 -20.625   1.962  1.00  0.00     0.048 C 
HETATM   30  C   UNL     1      43.941 -19.419   4.162  1.00  0.00     0.009 A 
HETATM   31  C   UNL     1      43.832 -18.269   4.947  1.00  0.00     0.031 A 
HETATM   32  N   UNL     1      43.297 -15.825   4.850  1.00  0.00    -0.359 N 
HETATM   33  H   UNL     1      43.403 -15.611   5.833  1.00  0.00     0.166 HD
HETATM   34  C   UNL     1      42.966 -14.924   3.876  1.00  0.00     0.013 A 
HETATM   35  C   UNL     1      42.726 -13.492   4.199  1.00  0.00     0.068 C 
ENDBRANCH  23  24
ENDBRANCH  20  23
ENDBRANCH  16  19
ENDBRANCH  14  15
ENDBRANCH  13  14
ENDBRANCH  10  13
ENDBRANCH   1   9
TORSDOF 7
ENDMDL
MODEL 10
REMARK VINA RESULT:      -8.3      2.292     11.360
REMARK  7 active torsions:
REMARK  status: ('A' for Active; 'I' for Inactive)
REMARK    1  A    between atoms: C_10  and  C_11 
REMARK    2  A    between atoms: C_11  and  C_12 
REMARK       I    between atoms: C_12  and  N_13 
REMARK    3  A    between atoms: N_13  and  N_14 
REMARK       I    between atoms: N_14  and  C_15 
REMARK    4  A    between atoms: C_15  and  C_16 
REMARK    5  A    between atoms: C_16  and  C_17 
REMARK    6  A    between atoms: C_17  and  C_18 
REMARK       I    between atoms: C_18  and  N_19 
REMARK    7  A    between atoms: N_19  and  C_20 
ROOT
HETATM    1  C   UNL     1      42.875 -15.601   3.356  1.00  0.00     0.034 A 
HETATM    2  C   UNL     1      42.913 -16.074   2.044  1.00  0.00     0.031 A 
HETATM    3  C   UNL     1      43.179 -17.424   1.781  1.00  0.00     0.025 A 
HETATM    4  C   UNL     1      43.405 -18.315   2.832  1.00  0.00     0.044 A 
HETATM    5  C   UNL     1      43.672 -19.697   2.563  1.00  0.00     0.099 C 
HETATM    6  N   UNL     1      43.890 -20.817   2.351  1.00  0.00    -0.191 NA
HETATM    7  C   UNL     1      43.368 -17.848   4.148  1.00  0.00     0.025 A 
HETATM    8  C   UNL     1      43.108 -16.497   4.407  1.00  0.00     0.031 A 
ENDROOT
BRANCH   1   9
HETATM    9  N   UNL     1      42.622 -14.259   3.704  1.00  0.00    -0.327 N 
HETATM   10  C   UNL     1      41.466 -13.536   3.481  1.00  0.00     0.222 C 
HETATM   11  O   UNL     1      40.433 -13.946   2.964  1.00  0.00    -0.273 OA
HETATM   12  H   UNL     1      43.370 -13.777   4.205  1.00  0.00     0.169 HD
BRANCH  10  13
HETATM   13  C   UNL     1      41.555 -12.104   3.978  1.00  0.00     0.112 C 
BRANCH  13  14
HETATM   14  C   UNL     1      41.080 -11.976   5.420  1.00  0.00     0.114 C 
BRANCH  14  15
HETATM   15  C   UNL     1      41.745 -10.817   6.132  1.00  0.00     0.236 C 
HETATM   16  N   UNL     1      42.408 -11.189   7.279  1.00  0.00    -0.268 N 
HETATM   17  H   UNL     1      42.387 -12.135   7.663  1.00  0.00     0.190 HD
HETATM   18  O   UNL     1      41.729  -9.663   5.705  1.00  0.00    -0.272 OA
BRANCH  16  19
HETATM   19  N   UNL     1      42.901 -10.194   8.130  1.00  0.00    -0.267 N 
HETATM   20  C   UNL     1      44.154 -10.387   8.681  1.00  0.00     0.240 C 
HETATM   21  O   UNL     1      44.799 -11.419   8.490  1.00  0.00    -0.272 OA
HETATM   22  H   UNL     1      42.454  -9.279   8.091  1.00  0.00     0.190 HD
BRANCH  20  23
HETATM   23  C   UNL     1      44.621  -9.266   9.576  1.00  0.00     0.146 C 
BRANCH  23  24
HETATM   24  C   UNL     1      43.688  -8.840  10.672  1.00  0.00    -0.015 A 
HETATM   25  C   UNL     1      43.005  -7.590  10.889  1.00  0.00    -0.000 A 
HETATM   26  C   UNL     1      42.957  -6.339  10.229  1.00  0.00     0.021 A 
HETATM   27  C   UNL     1      42.227  -7.736  12.039  1.00  0.00     0.043 A 
HETATM   28  C   UNL     1      42.145  -5.299  10.719  1.00  0.00    -0.061 A 
HETATM   29  C   UNL     1      42.070  -3.993   9.983  1.00  0.00     0.048 C 
HETATM   30  C   UNL     1      41.369  -5.507  11.860  1.00  0.00     0.009 A 
HETATM   31  C   UNL     1      41.405  -6.722  12.545  1.00  0.00     0.031 A 
HETATM   32  N   UNL     1      42.442  -9.002  12.521  1.00  0.00    -0.359 N 
HETATM   33  H   UNL     1      42.010  -9.370  13.358  1.00  0.00     0.166 HD
HETATM   34  C   UNL     1      43.310  -9.683  11.713  1.00  0.00     0.013 A 
HETATM   35  C   UNL     1      43.704 -11.086  12.014  1.00  0.00     0.068 C 
ENDBRANCH  23  24
ENDBRANCH  20  23
ENDBRANCH  16  19
ENDBRANCH  14  15
ENDBRANCH  13  14
ENDBRANCH  10  13
ENDBRANCH   1   9
TORSDOF 7
ENDMDL
