MODEL 1
REMARK VINA RESULT:      -9.1      0.000      0.000
REMARK  6 active torsions:
REMARK  status: ('A' for Active; 'I' for Inactive)
REMARK    1  A    between atoms: C_2  and  C_3 
REMARK    2  A    between atoms: C_6  and  N_7 
REMARK    3  A    between atoms: N_7  and  C_8 
REMARK    4  A    between atoms: C_8  and  C_9 
REMARK    5  A    between atoms: N_15  and  C_16 
REMARK    6  A    between atoms: C_23  and  C_24 
ROOT
HETATM    1  C   UNL     1      41.607 -12.650   3.142  1.00  0.00     0.028 A 
HETATM    2  C   UNL     1      41.829 -11.210   3.446  1.00  0.00     0.255 A 
HETATM    3  O   UNL     1      41.420 -10.262   2.806  1.00  0.00    -0.268 OA
HETATM    4  N   UNL     1      42.570 -10.922   4.636  1.00  0.00    -0.307 N 
HETATM    5  C   UNL     1      42.982 -11.937   5.485  1.00  0.00     0.144 A 
HETATM    6  C   UNL     1      42.656 -13.244   5.231  1.00  0.00     0.038 A 
HETATM    7  N   UNL     1      43.665 -11.923   6.688  1.00  0.00    -0.216 N 
HETATM    8  N   UNL     1      43.619 -13.151   7.272  1.00  0.00    -0.169 NA
HETATM    9  C   UNL     1      43.060 -13.976   6.373  1.00  0.00     0.077 C 
HETATM   10  C   UNL     1      41.991 -13.590   4.028  1.00  0.00     0.032 A 
HETATM   11  H   UNL     1      42.688  -9.945   4.870  1.00  0.00     0.170 HD
ENDROOT
BRANCH   1  12
HETATM   12  C   UNL     1      40.889 -12.959   1.867  1.00  0.00     0.164 C 
BRANCH  12  13
HETATM   13  N   UNL     1      41.726 -13.833   1.064  1.00  0.00    -0.385 N 
HETATM   14  H   UNL     1      42.526 -13.386   0.622  1.00  0.00     0.160 HD
BRANCH  13  15
HETATM   15  C   UNL     1      42.098 -15.092   1.557  1.00  0.00     0.028 A 
HETATM   16  C   UNL     1      43.462 -15.409   1.585  1.00  0.00     0.029 A 
HETATM   17  C   UNL     1      43.914 -16.661   2.020  1.00  0.00     0.009 A 
HETATM   18  C   UNL     1      43.003 -17.638   2.428  1.00  0.00    -0.058 A 
HETATM   19  C   UNL     1      41.639 -17.342   2.377  1.00  0.00     0.009 A 
HETATM   20  C   UNL     1      41.193 -16.093   1.926  1.00  0.00     0.029 A 
BRANCH  18  21
HETATM   21  C   UNL     1      43.484 -18.980   2.919  1.00  0.00     0.034 C 
HETATM   22  C   UNL     1      43.163 -20.094   1.934  1.00  0.00     0.010 C 
ENDBRANCH  18  21
ENDBRANCH  13  15
ENDBRANCH  12  13
ENDBRANCH   1  12
BRANCH   9  23
HETATM   23  C   UNL     1      42.906 -15.463   6.692  1.00  0.00    -0.004 C 
HETATM   24  C   UNL     1      41.475 -15.972   6.392  1.00  0.00     0.021 C 
HETATM   25  C   UNL     1      43.877 -16.301   5.835  1.00  0.00     0.021 C 
HETATM   26  C   UNL     1      43.181 -15.724   8.186  1.00  0.00     0.021 C 
ENDBRANCH   9  23
BRANCH   7  27
HETATM   27  C   UNL     1      44.350 -10.853   7.323  1.00  0.00     0.060 A 
HETATM   28  C   UNL     1      45.752 -10.807   7.253  1.00  0.00     0.031 A 
HETATM   29  C   UNL     1      46.455  -9.771   7.871  1.00  0.00     0.002 A 
HETATM   30  C   UNL     1      45.767  -8.767   8.546  1.00  0.00     0.000 A 
HETATM   31  C   UNL     1      44.374  -8.789   8.594  1.00  0.00     0.002 A 
HETATM   32  C   UNL     1      43.662  -9.826   7.982  1.00  0.00     0.031 A 
ENDBRANCH   7  27
TORSDOF 6
ENDMDL
MODEL 2
REMARK VINA RESULT:      -8.6      2.145      8.436
REMARK  6 active torsions:
REMARK  status: ('A' for Active; 'I' for Inactive)
REMARK    1  A    between atoms: C_2  and  C_3 
REMARK    2  A    between atoms: C_6  and  N_7 
REMARK    3  A    between atoms: N_7  and  C_8 
REMARK    4  A    between atoms: C_8  and  C_9 
REMARK    5  A    between atoms: N_15  and  C_16 
REMARK    6  A    between atoms: C_23  and  C_24 
ROOT
HETATM    1  C   UNL     1      42.542 -12.432   5.436  1.00  0.00     0.028 A 
HETATM    2  C   UNL     1      43.078 -13.610   6.172  1.00  0.00     0.255 A 
HETATM    3  O   UNL     1      43.465 -13.630   7.323  1.00  0.00    -0.268 OA
HETATM    4  N   UNL     1      43.100 -14.848   5.455  1.00  0.00    -0.307 N 
HETATM    5  C   UNL     1      42.578 -14.942   4.176  1.00  0.00     0.144 A 
HETATM    6  C   UNL     1      41.985 -13.862   3.574  1.00  0.00     0.038 A 
HETATM    7  N   UNL     1      42.448 -16.005   3.300  1.00  0.00    -0.216 N 
HETATM    8  N   UNL     1      41.643 -15.664   2.257  1.00  0.00    -0.169 NA
HETATM    9  C   UNL     1      41.403 -14.349   2.380  1.00  0.00     0.077 C 
HETATM   10  C   UNL     1      42.005 -12.595   4.211  1.00  0.00     0.032 A 
HETATM   11  H   UNL     1      43.424 -15.660   5.964  1.00  0.00     0.170 HD
ENDROOT
BRANCH   1  12
HETATM   12  C   UNL     1      42.575 -11.124   6.157  1.00  0.00     0.164 C 
BRANCH  12  13
HETATM   13  N   UNL     1      43.848 -11.006   6.846  1.00  0.00    -0.385 N 
HETATM   14  H   UNL     1      44.618 -10.651   6.283  1.00  0.00     0.160 HD
BRANCH  13  15
HETATM   15  C   UNL     1      43.900 -10.444   8.129  1.00  0.00     0.028 A 
HETATM   16  C   UNL     1      42.769  -9.757   8.591  1.00  0.00     0.029 A 
HETATM   17  C   UNL     1      42.755  -9.129   9.841  1.00  0.00     0.009 A 
HETATM   18  C   UNL     1      43.885  -9.161  10.662  1.00  0.00    -0.058 A 
HETATM   19  C   UNL     1      45.027  -9.819  10.200  1.00  0.00     0.009 A 
HETATM   20  C   UNL     1      45.039 -10.433   8.940  1.00  0.00     0.029 A 
BRANCH  18  21
HETATM   21  C   UNL     1      43.869  -8.506  12.019  1.00  0.00     0.034 C 
HETATM   22  C   UNL     1      42.684  -8.963  12.858  1.00  0.00     0.010 C 
ENDBRANCH  18  21
ENDBRANCH  13  15
ENDBRANCH  12  13
ENDBRANCH   1  12
BRANCH   9  23
HETATM   23  C   UNL     1      40.564 -13.624   1.328  1.00  0.00    -0.004 C 
HETATM   24  C   UNL     1      41.351 -12.472   0.658  1.00  0.00     0.021 C 
HETATM   25  C   UNL     1      40.143 -14.599   0.210  1.00  0.00     0.021 C 
HETATM   26  C   UNL     1      39.308 -13.007   1.973  1.00  0.00     0.021 C 
ENDBRANCH   9  23
BRANCH   7  27
HETATM   27  C   UNL     1      43.018 -17.305   3.369  1.00  0.00     0.060 A 
HETATM   28  C   UNL     1      42.841 -18.183   2.287  1.00  0.00     0.031 A 
HETATM   29  C   UNL     1      43.385 -19.469   2.326  1.00  0.00     0.002 A 
HETATM   30  C   UNL     1      44.121 -19.881   3.433  1.00  0.00     0.000 A 
HETATM   31  C   UNL     1      44.327 -19.005   4.498  1.00  0.00     0.002 A 
HETATM   32  C   UNL     1      43.781 -17.717   4.469  1.00  0.00     0.031 A 
ENDBRANCH   7  27
TORSDOF 6
ENDMDL
MODEL 3
REMARK VINA RESULT:      -8.6      3.579      6.696
REMARK  6 active torsions:
REMARK  status: ('A' for Active; 'I' for Inactive)
REMARK    1  A    between atoms: C_2  and  C_3 
REMARK    2  A    between atoms: C_6  and  N_7 
REMARK    3  A    between atoms: N_7  and  C_8 
REMARK    4  A    between atoms: C_8  and  C_9 
REMARK    5  A    between atoms: N_15  and  C_16 
REMARK    6  A    between atoms: C_23  and  C_24 
ROOT
HETATM    1  C   UNL     1      41.453 -12.584   2.770  1.00  0.00     0.028 A 
HETATM    2  C   UNL     1      42.264 -11.339   2.870  1.00  0.00     0.255 A 
HETATM    3  O   UNL     1      42.996 -11.023   3.786  1.00  0.00    -0.268 OA
HETATM    4  N   UNL     1      42.198 -10.449   1.751  1.00  0.00    -0.307 N 
HETATM    5  C   UNL     1      41.475 -10.780   0.617  1.00  0.00     0.144 A 
HETATM    6  C   UNL     1      40.836 -11.989   0.515  1.00  0.00     0.038 A 
HETATM    7  N   UNL     1      41.284 -10.126  -0.587  1.00  0.00    -0.216 N 
HETATM    8  N   UNL     1      40.700 -10.960  -1.490  1.00  0.00    -0.169 NA
HETATM    9  C   UNL     1      40.369 -12.073  -0.818  1.00  0.00     0.077 C 
HETATM   10  C   UNL     1      40.807 -12.873   1.624  1.00  0.00     0.032 A 
HETATM   11  H   UNL     1      42.780  -9.623   1.796  1.00  0.00     0.170 HD
ENDROOT
BRANCH   1  12
HETATM   12  C   UNL     1      41.468 -13.486   3.961  1.00  0.00     0.164 C 
BRANCH  12  13
HETATM   13  N   UNL     1      42.802 -14.042   4.106  1.00  0.00    -0.385 N 
HETATM   14  H   UNL     1      43.289 -13.789   4.963  1.00  0.00     0.160 HD
BRANCH  13  15
HETATM   15  C   UNL     1      43.034 -15.391   3.807  1.00  0.00     0.028 A 
HETATM   16  C   UNL     1      43.515 -16.218   4.832  1.00  0.00     0.029 A 
HETATM   17  C   UNL     1      43.814 -17.565   4.605  1.00  0.00     0.009 A 
HETATM   18  C   UNL     1      43.652 -18.122   3.334  1.00  0.00    -0.058 A 
HETATM   19  C   UNL     1      43.201 -17.300   2.298  1.00  0.00     0.009 A 
HETATM   20  C   UNL     1      42.917 -15.947   2.529  1.00  0.00     0.029 A 
BRANCH  18  21
HETATM   21  C   UNL     1      43.951 -19.579   3.088  1.00  0.00     0.034 C 
HETATM   22  C   UNL     1      43.160 -20.132   1.913  1.00  0.00     0.010 C 
ENDBRANCH  18  21
ENDBRANCH  13  15
ENDBRANCH  12  13
ENDBRANCH   1  12
BRANCH   9  23
HETATM   23  C   UNL     1      39.636 -13.208  -1.532  1.00  0.00    -0.004 C 
HETATM   24  C   UNL     1      39.708 -14.533  -0.734  1.00  0.00     0.021 C 
HETATM   25  C   UNL     1      38.143 -12.860  -1.705  1.00  0.00     0.021 C 
HETATM   26  C   UNL     1      40.267 -13.471  -2.914  1.00  0.00     0.021 C 
ENDBRANCH   9  23
BRANCH   7  27
HETATM   27  C   UNL     1      41.606  -8.791  -0.949  1.00  0.00     0.060 A 
HETATM   28  C   UNL     1      40.602  -7.810  -0.893  1.00  0.00     0.031 A 
HETATM   29  C   UNL     1      40.886  -6.490  -1.247  1.00  0.00     0.002 A 
HETATM   30  C   UNL     1      42.173  -6.134  -1.640  1.00  0.00     0.000 A 
HETATM   31  C   UNL     1      43.182  -7.096  -1.670  1.00  0.00     0.002 A 
HETATM   32  C   UNL     1      42.905  -8.422  -1.322  1.00  0.00     0.031 A 
ENDBRANCH   7  27
TORSDOF 6
ENDMDL
MODEL 4
REMARK VINA RESULT:      -8.6     16.001     18.826
REMARK  6 active torsions:
REMARK  status: ('A' for Active; 'I' for Inactive)
REMARK    1  A    between atoms: C_2  and  C_3 
REMARK    2  A    between atoms: C_6  and  N_7 
REMARK    3  A    between atoms: N_7  and  C_8 
REMARK    4  A    between atoms: C_8  and  C_9 
REMARK    5  A    between atoms: N_15  and  C_16 
REMARK    6  A    between atoms: C_23  and  C_24 
ROOT
HETATM    1  C   UNL     1      47.935 -28.536   0.170  1.00  0.00     0.028 A 
HETATM    2  C   UNL     1      47.620 -28.702   1.615  1.00  0.00     0.255 A 
HETATM    3  O   UNL     1      46.716 -28.167   2.226  1.00  0.00    -0.268 OA
HETATM    4  N   UNL     1      48.447 -29.615   2.343  1.00  0.00    -0.307 N 
HETATM    5  C   UNL     1      49.432 -30.351   1.705  1.00  0.00     0.144 A 
HETATM    6  C   UNL     1      49.615 -30.258   0.349  1.00  0.00     0.038 A 
HETATM    7  N   UNL     1      50.324 -31.304   2.162  1.00  0.00    -0.216 N 
HETATM    8  N   UNL     1      50.927 -31.929   1.115  1.00  0.00    -0.169 NA
HETATM    9  C   UNL     1      50.550 -31.264   0.011  1.00  0.00     0.077 C 
HETATM   10  C   UNL     1      48.874 -29.313  -0.405  1.00  0.00     0.032 A 
HETATM   11  H   UNL     1      48.210 -29.763   3.315  1.00  0.00     0.170 HD
ENDROOT
BRANCH   1  12
HETATM   12  C   UNL     1      47.115 -27.537  -0.581  1.00  0.00     0.164 C 
BRANCH  12  13
HETATM   13  N   UNL     1      45.742 -28.007  -0.631  1.00  0.00    -0.385 N 
HETATM   14  H   UNL     1      45.043 -27.349  -0.293  1.00  0.00     0.160 HD
BRANCH  13  15
HETATM   15  C   UNL     1      45.267 -28.658  -1.778  1.00  0.00     0.028 A 
HETATM   16  C   UNL     1      45.526 -28.068  -3.022  1.00  0.00     0.029 A 
HETATM   17  C   UNL     1      45.048 -28.629  -4.212  1.00  0.00     0.009 A 
HETATM   18  C   UNL     1      44.283 -29.797  -4.186  1.00  0.00    -0.058 A 
HETATM   19  C   UNL     1      43.995 -30.378  -2.949  1.00  0.00     0.009 A 
HETATM   20  C   UNL     1      44.463 -29.802  -1.760  1.00  0.00     0.029 A 
BRANCH  18  21
HETATM   21  C   UNL     1      43.785 -30.419  -5.465  1.00  0.00     0.034 C 
HETATM   22  C   UNL     1      44.881 -31.187  -6.188  1.00  0.00     0.010 C 
ENDBRANCH  18  21
ENDBRANCH  13  15
ENDBRANCH  12  13
ENDBRANCH   1  12
BRANCH   9  23
HETATM   23  C   UNL     1      51.099 -31.677  -1.354  1.00  0.00    -0.004 C 
HETATM   24  C   UNL     1      52.393 -32.518  -1.225  1.00  0.00     0.021 C 
HETATM   25  C   UNL     1      50.068 -32.541  -2.110  1.00  0.00     0.021 C 
HETATM   26  C   UNL     1      51.443 -30.433  -2.195  1.00  0.00     0.021 C 
ENDBRANCH   9  23
BRANCH   7  27
HETATM   27  C   UNL     1      50.647 -31.670   3.496  1.00  0.00     0.060 A 
HETATM   28  C   UNL     1      51.261 -30.721   4.331  1.00  0.00     0.031 A 
HETATM   29  C   UNL     1      51.596 -31.051   5.646  1.00  0.00     0.002 A 
HETATM   30  C   UNL     1      51.305 -32.318   6.143  1.00  0.00     0.000 A 
HETATM   31  C   UNL     1      50.669 -33.255   5.330  1.00  0.00     0.002 A 
HETATM   32  C   UNL     1      50.335 -32.935   4.010  1.00  0.00     0.031 A 
ENDBRANCH   7  27
TORSDOF 6
ENDMDL
MODEL 5
REMARK VINA RESULT:      -8.5      2.257      4.045
REMARK  6 active torsions:
REMARK  status: ('A' for Active; 'I' for Inactive)
REMARK    1  A    between atoms: C_2  and  C_3 
REMARK    2  A    between atoms: C_6  and  N_7 
REMARK    3  A    between atoms: N_7  and  C_8 
REMARK    4  A    between atoms: C_8  and  C_9 
REMARK    5  A    between atoms: N_15  and  C_16 
REMARK    6  A    between atoms: C_23  and  C_24 
ROOT
HETATM    1  C   UNL     1      42.684 -13.211   2.791  1.00  0.00     0.028 A 
HETATM    2  C   UNL     1      42.824 -11.741   2.979  1.00  0.00     0.255 A 
HETATM    3  O   UNL     1      42.565 -10.878   2.164  1.00  0.00    -0.268 OA
HETATM    4  N   UNL     1      43.272 -11.307   4.267  1.00  0.00    -0.307 N 
HETATM    5  C   UNL     1      43.486 -12.214   5.292  1.00  0.00     0.144 A 
HETATM    6  C   UNL     1      43.233 -13.551   5.115  1.00  0.00     0.038 A 
HETATM    7  N   UNL     1      43.877 -12.054   6.609  1.00  0.00    -0.216 N 
HETATM    8  N   UNL     1      43.706 -13.215   7.298  1.00  0.00    -0.169 NA
HETATM    9  C   UNL     1      43.372 -14.146   6.391  1.00  0.00     0.077 C 
HETATM   10  C   UNL     1      42.862 -14.041   3.837  1.00  0.00     0.032 A 
HETATM   11  H   UNL     1      43.328 -10.308   4.413  1.00  0.00     0.170 HD
ENDROOT
BRANCH   1  12
HETATM   12  C   UNL     1      42.277 -13.673   1.429  1.00  0.00     0.164 C 
BRANCH  12  13
HETATM   13  N   UNL     1      40.876 -14.053   1.467  1.00  0.00    -0.385 N 
HETATM   14  H   UNL     1      40.411 -13.915   2.362  1.00  0.00     0.160 HD
BRANCH  13  15
HETATM   15  C   UNL     1      40.020 -13.674   0.424  1.00  0.00     0.028 A 
HETATM   16  C   UNL     1      39.302 -12.479   0.564  1.00  0.00     0.029 A 
HETATM   17  C   UNL     1      38.393 -12.053  -0.411  1.00  0.00     0.009 A 
HETATM   18  C   UNL     1      38.168 -12.824  -1.554  1.00  0.00    -0.058 A 
HETATM   19  C   UNL     1      38.858 -14.032  -1.690  1.00  0.00     0.009 A 
HETATM   20  C   UNL     1      39.754 -14.460  -0.702  1.00  0.00     0.029 A 
BRANCH  18  21
HETATM   21  C   UNL     1      37.208 -12.360  -2.618  1.00  0.00     0.034 C 
HETATM   22  C   UNL     1      37.275 -10.854  -2.828  1.00  0.00     0.010 C 
ENDBRANCH  18  21
ENDBRANCH  13  15
ENDBRANCH  12  13
ENDBRANCH   1  12
BRANCH   9  23
HETATM   23  C   UNL     1      43.158 -15.595   6.827  1.00  0.00    -0.004 C 
HETATM   24  C   UNL     1      44.248 -16.535   6.258  1.00  0.00     0.021 C 
HETATM   25  C   UNL     1      43.215 -15.709   8.364  1.00  0.00     0.021 C 
HETATM   26  C   UNL     1      41.797 -16.114   6.323  1.00  0.00     0.021 C 
ENDBRANCH   9  23
BRANCH   7  27
HETATM   27  C   UNL     1      44.393 -10.903   7.262  1.00  0.00     0.060 A 
HETATM   28  C   UNL     1      45.785 -10.755   7.379  1.00  0.00     0.031 A 
HETATM   29  C   UNL     1      46.324  -9.637   8.020  1.00  0.00     0.002 A 
HETATM   30  C   UNL     1      45.482  -8.653   8.531  1.00  0.00     0.000 A 
HETATM   31  C   UNL     1      44.101  -8.778   8.392  1.00  0.00     0.002 A 
HETATM   32  C   UNL     1      43.553  -9.897   7.757  1.00  0.00     0.031 A 
ENDBRANCH   7  27
TORSDOF 6
ENDMDL
MODEL 6
REMARK VINA RESULT:      -8.5      2.531      8.652
REMARK  6 active torsions:
REMARK  status: ('A' for Active; 'I' for Inactive)
REMARK    1  A    between atoms: C_2  and  C_3 
REMARK    2  A    between atoms: C_6  and  N_7 
REMARK    3  A    between atoms: N_7  and  C_8 
REMARK    4  A    between atoms: C_8  and  C_9 
REMARK    5  A    between atoms: N_15  and  C_16 
REMARK    6  A    between atoms: C_23  and  C_24 
ROOT
HETATM    1  C   UNL     1      43.055 -11.372   6.101  1.00  0.00     0.028 A 
HETATM    2  C   UNL     1      43.529 -12.625   6.752  1.00  0.00     0.255 A 
HETATM    3  O   UNL     1      43.941 -12.740   7.889  1.00  0.00    -0.268 OA
HETATM    4  N   UNL     1      43.452 -13.816   5.963  1.00  0.00    -0.307 N 
HETATM    5  C   UNL     1      42.895 -13.799   4.695  1.00  0.00     0.144 A 
HETATM    6  C   UNL     1      42.361 -12.647   4.175  1.00  0.00     0.038 A 
HETATM    7  N   UNL     1      42.674 -14.796   3.763  1.00  0.00    -0.216 N 
HETATM    8  N   UNL     1      41.869 -14.341   2.764  1.00  0.00    -0.169 NA
HETATM    9  C   UNL     1      41.720 -13.023   2.971  1.00  0.00     0.077 C 
HETATM   10  C   UNL     1      42.481 -11.425   4.884  1.00  0.00     0.032 A 
HETATM   11  H   UNL     1      43.733 -14.676   6.415  1.00  0.00     0.170 HD
ENDROOT
BRANCH   1  12
HETATM   12  C   UNL     1      43.192 -10.115   6.897  1.00  0.00     0.164 C 
BRANCH  12  13
HETATM   13  N   UNL     1      42.191 -10.121   7.950  1.00  0.00    -0.385 N 
HETATM   14  H   UNL     1      41.657 -10.983   8.038  1.00  0.00     0.160 HD
BRANCH  13  15
HETATM   15  C   UNL     1      42.511  -9.627   9.222  1.00  0.00     0.028 A 
HETATM   16  C   UNL     1      41.490  -9.024   9.969  1.00  0.00     0.029 A 
HETATM   17  C   UNL     1      41.737  -8.466  11.228  1.00  0.00     0.009 A 
HETATM   18  C   UNL     1      43.024  -8.486  11.771  1.00  0.00    -0.058 A 
HETATM   19  C   UNL     1      44.055  -9.059  11.023  1.00  0.00     0.009 A 
HETATM   20  C   UNL     1      43.804  -9.602   9.756  1.00  0.00     0.029 A 
BRANCH  18  21
HETATM   21  C   UNL     1      43.291  -7.907  13.137  1.00  0.00     0.034 C 
HETATM   22  C   UNL     1      42.344  -8.467  14.187  1.00  0.00     0.010 C 
ENDBRANCH  18  21
ENDBRANCH  13  15
ENDBRANCH  12  13
ENDBRANCH   1  12
BRANCH   9  23
HETATM   23  C   UNL     1      40.907 -12.183   1.986  1.00  0.00    -0.004 C 
HETATM   24  C   UNL     1      39.560 -11.724   2.596  1.00  0.00     0.021 C 
HETATM   25  C   UNL     1      41.686 -10.911   1.593  1.00  0.00     0.021 C 
HETATM   26  C   UNL     1      40.583 -13.000   0.721  1.00  0.00     0.021 C 
ENDBRANCH   9  23
BRANCH   7  27
HETATM   27  C   UNL     1      43.157 -16.132   3.740  1.00  0.00     0.060 A 
HETATM   28  C   UNL     1      43.042 -16.877   2.554  1.00  0.00     0.031 A 
HETATM   29  C   UNL     1      43.503 -18.194   2.501  1.00  0.00     0.002 A 
HETATM   30  C   UNL     1      44.098 -18.770   3.620  1.00  0.00     0.000 A 
HETATM   31  C   UNL     1      44.244 -18.027   4.791  1.00  0.00     0.002 A 
HETATM   32  C   UNL     1      43.779 -16.709   4.854  1.00  0.00     0.031 A 
ENDBRANCH   7  27
TORSDOF 6
ENDMDL
MODEL 7
REMARK VINA RESULT:      -8.4      2.346      8.285
REMARK  6 active torsions:
REMARK  status: ('A' for Active; 'I' for Inactive)
REMARK    1  A    between atoms: C_2  and  C_3 
REMARK    2  A    between atoms: C_6  and  N_7 
REMARK    3  A    between atoms: N_7  and  C_8 
REMARK    4  A    between atoms: C_8  and  C_9 
REMARK    5  A    between atoms: N_15  and  C_16 
REMARK    6  A    between atoms: C_23  and  C_24 
ROOT
HETATM    1  C   UNL     1      43.561 -12.199   6.498  1.00  0.00     0.028 A 
HETATM    2  C   UNL     1      43.085 -11.431   5.315  1.00  0.00     0.255 A 
HETATM    3  O   UNL     1      43.110 -10.224   5.176  1.00  0.00    -0.268 OA
HETATM    4  N   UNL     1      42.584 -12.202   4.219  1.00  0.00    -0.307 N 
HETATM    5  C   UNL     1      42.619 -13.587   4.245  1.00  0.00     0.144 A 
HETATM    6  C   UNL     1      43.173 -14.259   5.304  1.00  0.00     0.038 A 
HETATM    7  N   UNL     1      42.239 -14.544   3.322  1.00  0.00    -0.216 N 
HETATM    8  N   UNL     1      42.698 -15.770   3.695  1.00  0.00    -0.169 NA
HETATM    9  C   UNL     1      43.215 -15.621   4.924  1.00  0.00     0.077 C 
HETATM   10  C   UNL     1      43.613 -13.544   6.448  1.00  0.00     0.032 A 
HETATM   11  H   UNL     1      42.299 -11.687   3.396  1.00  0.00     0.170 HD
ENDROOT
BRANCH   1  12
HETATM   12  C   UNL     1      44.025 -11.397   7.671  1.00  0.00     0.164 C 
BRANCH  12  13
HETATM   13  N   UNL     1      42.978 -10.458   8.034  1.00  0.00    -0.385 N 
HETATM   14  H   UNL     1      42.026 -10.787   7.886  1.00  0.00     0.160 HD
BRANCH  13  15
HETATM   15  C   UNL     1      43.055  -9.760   9.247  1.00  0.00     0.028 A 
HETATM   16  C   UNL     1      43.530 -10.447  10.372  1.00  0.00     0.029 A 
HETATM   17  C   UNL     1      43.596  -9.836  11.629  1.00  0.00     0.009 A 
HETATM   18  C   UNL     1      43.173  -8.516  11.797  1.00  0.00    -0.058 A 
HETATM   19  C   UNL     1      42.671  -7.830  10.689  1.00  0.00     0.009 A 
HETATM   20  C   UNL     1      42.593  -8.453   9.436  1.00  0.00     0.029 A 
BRANCH  18  21
HETATM   21  C   UNL     1      43.263  -7.845  13.144  1.00  0.00     0.034 C 
HETATM   22  C   UNL     1      42.352  -8.504  14.169  1.00  0.00     0.010 C 
ENDBRANCH  18  21
ENDBRANCH  13  15
ENDBRANCH  12  13
ENDBRANCH   1  12
BRANCH   9  23
HETATM   23  C   UNL     1      43.776 -16.832   5.669  1.00  0.00    -0.004 C 
HETATM   24  C   UNL     1      42.794 -17.350   6.748  1.00  0.00     0.021 C 
HETATM   25  C   UNL     1      44.032 -17.995   4.689  1.00  0.00     0.021 C 
HETATM   26  C   UNL     1      45.090 -16.463   6.385  1.00  0.00     0.021 C 
ENDBRANCH   9  23
BRANCH   7  27
HETATM   27  C   UNL     1      41.486 -14.395   2.126  1.00  0.00     0.060 A 
HETATM   28  C   UNL     1      41.597 -13.200   1.397  1.00  0.00     0.031 A 
HETATM   29  C   UNL     1      40.867 -13.021   0.221  1.00  0.00     0.002 A 
HETATM   30  C   UNL     1      40.037 -14.036  -0.246  1.00  0.00     0.000 A 
HETATM   31  C   UNL     1      39.944 -15.237   0.456  1.00  0.00     0.002 A 
HETATM   32  C   UNL     1      40.668 -15.423   1.638  1.00  0.00     0.031 A 
ENDBRANCH   7  27
TORSDOF 6
ENDMDL
MODEL 8
REMARK VINA RESULT:      -8.3      3.040      9.087
REMARK  6 active torsions:
REMARK  status: ('A' for Active; 'I' for Inactive)
REMARK    1  A    between atoms: C_2  and  C_3 
REMARK    2  A    between atoms: C_6  and  N_7 
REMARK    3  A    between atoms: N_7  and  C_8 
REMARK    4  A    between atoms: C_8  and  C_9 
REMARK    5  A    between atoms: N_15  and  C_16 
REMARK    6  A    between atoms: C_23  and  C_24 
ROOT
HETATM    1  C   UNL     1      42.829 -10.778   6.875  1.00  0.00     0.028 A 
HETATM    2  C   UNL     1      43.509 -12.101   6.917  1.00  0.00     0.255 A 
HETATM    3  O   UNL     1      44.262 -12.502   7.782  1.00  0.00    -0.268 OA
HETATM    4  N   UNL     1      43.211 -13.001   5.845  1.00  0.00    -0.307 N 
HETATM    5  C   UNL     1      42.281 -12.670   4.873  1.00  0.00     0.144 A 
HETATM    6  C   UNL     1      41.587 -11.489   4.933  1.00  0.00     0.038 A 
HETATM    7  N   UNL     1      41.797 -13.361   3.776  1.00  0.00    -0.216 N 
HETATM    8  N   UNL     1      40.709 -12.727   3.260  1.00  0.00    -0.169 NA
HETATM    9  C   UNL     1      40.606 -11.560   3.916  1.00  0.00     0.077 C 
HETATM   10  C   UNL     1      41.900 -10.531   5.931  1.00  0.00     0.032 A 
HETATM   11  H   UNL     1      43.638 -13.917   5.891  1.00  0.00     0.170 HD
ENDROOT
BRANCH   1  12
HETATM   12  C   UNL     1      43.185  -9.810   7.957  1.00  0.00     0.164 C 
BRANCH  12  13
HETATM   13  N   UNL     1      42.977 -10.455   9.242  1.00  0.00    -0.385 N 
HETATM   14  H   UNL     1      43.524 -11.299   9.401  1.00  0.00     0.160 HD
BRANCH  13  15
HETATM   15  C   UNL     1      42.940  -9.685  10.413  1.00  0.00     0.028 A 
HETATM   16  C   UNL     1      43.008  -8.292  10.285  1.00  0.00     0.029 A 
HETATM   17  C   UNL     1      43.023  -7.454  11.406  1.00  0.00     0.009 A 
HETATM   18  C   UNL     1      42.982  -7.994  12.693  1.00  0.00    -0.058 A 
HETATM   19  C   UNL     1      42.943  -9.384  12.833  1.00  0.00     0.009 A 
HETATM   20  C   UNL     1      42.944 -10.217  11.706  1.00  0.00     0.029 A 
BRANCH  18  21
HETATM   21  C   UNL     1      42.975  -7.096  13.904  1.00  0.00     0.034 C 
HETATM   22  C   UNL     1      42.105  -7.654  15.020  1.00  0.00     0.010 C 
ENDBRANCH  18  21
ENDBRANCH  13  15
ENDBRANCH  12  13
ENDBRANCH   1  12
BRANCH   9  23
HETATM   23  C   UNL     1      39.507 -10.567   3.540  1.00  0.00    -0.004 C 
HETATM   24  C   UNL     1      38.632 -10.187   4.760  1.00  0.00     0.021 C 
HETATM   25  C   UNL     1      40.123  -9.262   2.997  1.00  0.00     0.021 C 
HETATM   26  C   UNL     1      38.571 -11.177   2.478  1.00  0.00     0.021 C 
ENDBRANCH   9  23
BRANCH   7  27
HETATM   27  C   UNL     1      42.275 -14.559   3.182  1.00  0.00     0.060 A 
HETATM   28  C   UNL     1      41.943 -15.790   3.773  1.00  0.00     0.031 A 
HETATM   29  C   UNL     1      42.401 -16.986   3.216  1.00  0.00     0.002 A 
HETATM   30  C   UNL     1      43.175 -16.965   2.060  1.00  0.00     0.000 A 
HETATM   31  C   UNL     1      43.485 -15.749   1.451  1.00  0.00     0.002 A 
HETATM   32  C   UNL     1      43.034 -14.547   2.005  1.00  0.00     0.031 A 
ENDBRANCH   7  27
TORSDOF 6
ENDMDL
MODEL 9
REMARK VINA RESULT:      -8.3      3.147      7.215
REMARK  6 active torsions:
REMARK  status: ('A' for Active; 'I' for Inactive)
REMARK    1  A    between atoms: C_2  and  C_3 
REMARK    2  A    between atoms: C_6  and  N_7 
REMARK    3  A    between atoms: N_7  and  C_8 
REMARK    4  A    between atoms: C_8  and  C_9 
REMARK    5  A    between atoms: N_15  and  C_16 
REMARK    6  A    between atoms: C_23  and  C_24 
ROOT
HETATM    1  C   UNL     1      40.058 -13.549   1.632  1.00  0.00     0.028 A 
HETATM    2  C   UNL     1      40.290 -14.823   0.898  1.00  0.00     0.255 A 
HETATM    3  O   UNL     1      39.831 -15.129  -0.185  1.00  0.00    -0.268 OA
HETATM    4  N   UNL     1      41.174 -15.761   1.520  1.00  0.00    -0.307 N 
HETATM    5  C   UNL     1      41.827 -15.451   2.702  1.00  0.00     0.144 A 
HETATM    6  C   UNL     1      41.679 -14.220   3.288  1.00  0.00     0.038 A 
HETATM    7  N   UNL     1      42.739 -16.151   3.472  1.00  0.00    -0.216 N 
HETATM    8  N   UNL     1      43.291 -15.335   4.410  1.00  0.00    -0.169 NA
HETATM    9  C   UNL     1      42.615 -14.177   4.348  1.00  0.00     0.077 C 
HETATM   10  C   UNL     1      40.757 -13.285   2.753  1.00  0.00     0.032 A 
HETATM   11  H   UNL     1      41.367 -16.610   1.006  1.00  0.00     0.170 HD
ENDROOT
BRANCH   1  12
HETATM   12  C   UNL     1      39.087 -12.593   1.018  1.00  0.00     0.164 C 
BRANCH  12  13
HETATM   13  N   UNL     1      39.473 -12.363  -0.363  1.00  0.00    -0.385 N 
HETATM   14  H   UNL     1      38.717 -12.420  -1.042  1.00  0.00     0.160 HD
BRANCH  13  15
HETATM   15  C   UNL     1      40.321 -11.294  -0.684  1.00  0.00     0.028 A 
HETATM   16  C   UNL     1      40.872 -10.553   0.371  1.00  0.00     0.029 A 
HETATM   17  C   UNL     1      41.691  -9.444   0.136  1.00  0.00     0.009 A 
HETATM   18  C   UNL     1      41.972  -9.036  -1.170  1.00  0.00    -0.058 A 
HETATM   19  C   UNL     1      41.406  -9.750  -2.229  1.00  0.00     0.009 A 
HETATM   20  C   UNL     1      40.573 -10.850  -1.986  1.00  0.00     0.029 A 
BRANCH  18  21
HETATM   21  C   UNL     1      42.873  -7.855  -1.430  1.00  0.00     0.034 C 
HETATM   22  C   UNL     1      42.800  -7.393  -2.878  1.00  0.00     0.010 C 
ENDBRANCH  18  21
ENDBRANCH  13  15
ENDBRANCH  12  13
ENDBRANCH   1  12
BRANCH   9  23
HETATM   23  C   UNL     1      42.950 -13.045   5.319  1.00  0.00    -0.004 C 
HETATM   24  C   UNL     1      43.916 -13.509   6.435  1.00  0.00     0.021 C 
HETATM   25  C   UNL     1      43.639 -11.883   4.574  1.00  0.00     0.021 C 
HETATM   26  C   UNL     1      41.670 -12.529   6.005  1.00  0.00     0.021 C 
ENDBRANCH   9  23
BRANCH   7  27
HETATM   27  C   UNL     1      43.126 -17.516   3.392  1.00  0.00     0.060 A 
HETATM   28  C   UNL     1      43.758 -18.109   4.497  1.00  0.00     0.031 A 
HETATM   29  C   UNL     1      44.155 -19.447   4.449  1.00  0.00     0.002 A 
HETATM   30  C   UNL     1      43.910 -20.205   3.308  1.00  0.00     0.000 A 
HETATM   31  C   UNL     1      43.257 -19.633   2.217  1.00  0.00     0.002 A 
HETATM   32  C   UNL     1      42.860 -18.292   2.256  1.00  0.00     0.031 A 
ENDBRANCH   7  27
TORSDOF 6
ENDMDL
MODEL 10
REMARK VINA RESULT:      -8.2      3.625      7.709
REMARK  6 active torsions:
REMARK  status: ('A' for Active; 'I' for Inactive)
REMARK    1  A    between atoms: C_2  and  C_3 
REMARK    2  A    between atoms: C_6  and  N_7 
REMARK    3  A    between atoms: N_7  and  C_8 
REMARK    4  A    between atoms: C_8  and  C_9 
REMARK    5  A    between atoms: N_15  and  C_16 
REMARK    6  A    between atoms: C_23  and  C_24 
ROOT
HETATM    1  C   UNL     1      40.687 -13.770   3.916  1.00  0.00     0.028 A 
HETATM    2  C   UNL     1      40.236 -14.895   3.051  1.00  0.00     0.255 A 
HETATM    3  O   UNL     1      40.233 -16.075   3.340  1.00  0.00    -0.268 OA
HETATM    4  N   UNL     1      39.721 -14.537   1.765  1.00  0.00    -0.307 N 
HETATM    5  C   UNL     1      39.585 -13.210   1.394  1.00  0.00     0.144 A 
HETATM    6  C   UNL     1      39.901 -12.198   2.264  1.00  0.00     0.038 A 
HETATM    7  N   UNL     1      39.093 -12.610   0.249  1.00  0.00    -0.216 N 
HETATM    8  N   UNL     1      38.929 -11.274   0.447  1.00  0.00    -0.169 NA
HETATM    9  C   UNL     1      39.471 -11.001   1.645  1.00  0.00     0.077 C 
HETATM   10  C   UNL     1      40.488 -12.498   3.520  1.00  0.00     0.032 A 
HETATM   11  H   UNL     1      39.374 -15.295   1.190  1.00  0.00     0.170 HD
ENDROOT
BRANCH   1  12
HETATM   12  C   UNL     1      41.285 -14.142   5.234  1.00  0.00     0.164 C 
BRANCH  12  13
HETATM   13  N   UNL     1      42.657 -14.566   5.018  1.00  0.00    -0.385 N 
HETATM   14  H   UNL     1      43.363 -14.040   5.529  1.00  0.00     0.160 HD
BRANCH  13  15
HETATM   15  C   UNL     1      42.978 -15.931   5.033  1.00  0.00     0.028 A 
HETATM   16  C   UNL     1      42.883 -16.614   6.253  1.00  0.00     0.029 A 
HETATM   17  C   UNL     1      43.228 -17.965   6.363  1.00  0.00     0.009 A 
HETATM   18  C   UNL     1      43.693 -18.670   5.250  1.00  0.00    -0.058 A 
HETATM   19  C   UNL     1      43.818 -17.992   4.035  1.00  0.00     0.009 A 
HETATM   20  C   UNL     1      43.486 -16.634   3.936  1.00  0.00     0.029 A 
BRANCH  18  21
HETATM   21  C   UNL     1      44.044 -20.132   5.357  1.00  0.00     0.034 C 
HETATM   22  C   UNL     1      43.939 -20.842   4.016  1.00  0.00     0.010 C 
ENDBRANCH  18  21
ENDBRANCH  13  15
ENDBRANCH  12  13
ENDBRANCH   1  12
BRANCH   9  23
HETATM   23  C   UNL     1      39.505  -9.562   2.157  1.00  0.00    -0.004 C 
HETATM   24  C   UNL     1      39.108  -8.548   1.057  1.00  0.00     0.021 C 
HETATM   25  C   UNL     1      38.512  -9.381   3.323  1.00  0.00     0.021 C 
HETATM   26  C   UNL     1      40.925  -9.193   2.629  1.00  0.00     0.021 C 
ENDBRANCH   9  23
BRANCH   7  27
HETATM   27  C   UNL     1      38.766 -13.193  -1.005  1.00  0.00     0.060 A 
HETATM   28  C   UNL     1      37.639 -12.725  -1.700  1.00  0.00     0.031 A 
HETATM   29  C   UNL     1      37.289 -13.279  -2.933  1.00  0.00     0.002 A 
HETATM   30  C   UNL     1      38.069 -14.289  -3.489  1.00  0.00     0.000 A 
HETATM   31  C   UNL     1      39.207 -14.739  -2.820  1.00  0.00     0.002 A 
HETATM   32  C   UNL     1      39.561 -14.192  -1.582  1.00  0.00     0.031 A 
ENDBRANCH   7  27
TORSDOF 6
ENDMDL
