MODEL 1
REMARK VINA RESULT:      -9.0      0.000      0.000
REMARK  5 active torsions:
REMARK  status: ('A' for Active; 'I' for Inactive)
REMARK    1  A    between atoms: C_7  and  C_8 
REMARK    2  A    between atoms: N_9  and  N_10 
REMARK       I    between atoms: N_10  and  C_11 
REMARK    3  A    between atoms: C_11  and  C_12 
REMARK    4  A    between atoms: C_12  and  N_13 
REMARK       I    between atoms: N_13  and  C_14 
REMARK    5  A    between atoms: C_14  and  C_15 
ROOT
HETATM    1  N   UNL     1      43.186 -12.449   6.940  1.00  0.00    -0.246 N 
HETATM    2  C   UNL     1      44.028 -11.465   7.435  1.00  0.00     0.255 C 
HETATM    3  O   UNL     1      45.221 -11.612   7.699  1.00  0.00    -0.270 OA
HETATM    4  H   UNL     1      42.183 -12.258   6.882  1.00  0.00     0.192 HD
ENDROOT
BRANCH   1   5
HETATM    5  N   UNL     1      43.660 -13.701   6.683  1.00  0.00    -0.184 NA
HETATM    6  C   UNL     1      42.875 -14.456   5.985  1.00  0.00     0.153 C 
BRANCH   6   7
HETATM    7  C   UNL     1      43.256 -15.820   5.670  1.00  0.00     0.018 A 
HETATM    8  C   UNL     1      43.678 -16.799   6.562  1.00  0.00     0.018 A 
HETATM    9  C   UNL     1      43.864 -16.761   8.038  1.00  0.00     0.069 C 
HETATM   10  N   UNL     1      43.921 -17.943   5.845  1.00  0.00    -0.358 N 
HETATM   11  H   UNL     1      44.236 -18.818   6.240  1.00  0.00     0.166 HD
HETATM   12  C   UNL     1      43.674 -17.741   4.509  1.00  0.00     0.043 A 
HETATM   13  C   UNL     1      43.260 -16.417   4.364  1.00  0.00     0.004 A 
HETATM   14  C   UNL     1      43.789 -18.625   3.429  1.00  0.00     0.030 A 
HETATM   15  C   UNL     1      42.949 -15.953   3.067  1.00  0.00     0.014 A 
HETATM   16  C   UNL     1      43.062 -16.823   1.975  1.00  0.00     0.001 A 
HETATM   17  C   UNL     1      43.475 -18.139   2.157  1.00  0.00     0.002 A 
ENDBRANCH   6   7
ENDBRANCH   1   5
BRANCH   2  18
HETATM   18  C   UNL     1      43.300 -10.158   7.759  1.00  0.00     0.227 C 
BRANCH  18  19
HETATM   19  N   UNL     1      42.829 -10.053   9.136  1.00  0.00    -0.348 N 
HETATM   20  C   UNL     1      43.494  -9.300  10.077  1.00  0.00     0.252 C 
HETATM   21  O   UNL     1      44.597  -8.816   9.836  1.00  0.00    -0.268 OA
HETATM   22  H   UNL     1      42.047 -10.637   9.395  1.00  0.00     0.163 HD
BRANCH  20  23
HETATM   23  C   UNL     1      42.874  -9.136  11.424  1.00  0.00     0.033 A 
HETATM   24  C   UNL     1      41.718  -9.880  11.702  1.00  0.00     0.041 A 
HETATM   25  C   UNL     1      41.103  -9.780  12.949  1.00  0.00     0.035 A 
HETATM   26 CL   UNL     1      39.688 -10.700  13.281  1.00  0.00    -0.084 Cl
HETATM   27  C   UNL     1      41.628  -8.944  13.931  1.00  0.00     0.024 A 
HETATM   28  C   UNL     1      42.783  -8.207  13.667  1.00  0.00     0.003 A 
HETATM   29  C   UNL     1      43.409  -8.305  12.420  1.00  0.00     0.017 A 
ENDBRANCH  20  23
ENDBRANCH  18  19
ENDBRANCH   2  18
TORSDOF 5
ENDMDL
MODEL 2
REMARK VINA RESULT:      -9.0      6.613      9.531
REMARK  5 active torsions:
REMARK  status: ('A' for Active; 'I' for Inactive)
REMARK    1  A    between atoms: C_7  and  C_8 
REMARK    2  A    between atoms: N_9  and  N_10 
REMARK       I    between atoms: N_10  and  C_11 
REMARK    3  A    between atoms: C_11  and  C_12 
REMARK    4  A    between atoms: C_12  and  N_13 
REMARK       I    between atoms: N_13  and  C_14 
REMARK    5  A    between atoms: C_14  and  C_15 
ROOT
HETATM    1  N   UNL     1      40.852 -14.019   3.011  1.00  0.00    -0.246 N 
HETATM    2  C   UNL     1      40.034 -13.099   3.651  1.00  0.00     0.255 C 
HETATM    3  O   UNL     1      39.659 -13.169   4.820  1.00  0.00    -0.270 OA
HETATM    4  H   UNL     1      40.994 -13.935   2.003  1.00  0.00     0.192 HD
ENDROOT
BRANCH   1   5
HETATM    5  N   UNL     1      41.331 -15.104   3.683  1.00  0.00    -0.184 NA
HETATM    6  C   UNL     1      42.563 -15.408   3.432  1.00  0.00     0.153 C 
BRANCH   6   7
HETATM    7  C   UNL     1      43.178 -16.561   4.065  1.00  0.00     0.018 A 
HETATM    8  C   UNL     1      43.760 -16.611   5.326  1.00  0.00     0.018 A 
HETATM    9  C   UNL     1      43.931 -15.562   6.368  1.00  0.00     0.069 C 
HETATM   10  N   UNL     1      44.203 -17.894   5.532  1.00  0.00    -0.358 N 
HETATM   11  H   UNL     1      44.664 -18.219   6.369  1.00  0.00     0.166 HD
HETATM   12  C   UNL     1      43.931 -18.682   4.441  1.00  0.00     0.043 A 
HETATM   13  C   UNL     1      43.292 -17.875   3.500  1.00  0.00     0.004 A 
HETATM   14  C   UNL     1      44.203 -20.039   4.220  1.00  0.00     0.030 A 
HETATM   15  C   UNL     1      42.910 -18.457   2.271  1.00  0.00     0.014 A 
HETATM   16  C   UNL     1      43.179 -19.810   2.032  1.00  0.00     0.001 A 
HETATM   17  C   UNL     1      43.815 -20.587   2.996  1.00  0.00     0.002 A 
ENDBRANCH   6   7
ENDBRANCH   1   5
BRANCH   2  18
HETATM   18  C   UNL     1      39.511 -12.007   2.715  1.00  0.00     0.227 C 
BRANCH  18  19
HETATM   19  N   UNL     1      38.950 -12.502   1.461  1.00  0.00    -0.348 N 
HETATM   20  C   UNL     1      39.703 -12.585   0.312  1.00  0.00     0.252 C 
HETATM   21  O   UNL     1      40.830 -12.098   0.256  1.00  0.00    -0.268 OA
HETATM   22  H   UNL     1      37.958 -12.688   1.449  1.00  0.00     0.163 HD
BRANCH  20  23
HETATM   23  C   UNL     1      39.095 -13.227  -0.891  1.00  0.00     0.033 A 
HETATM   24  C   UNL     1      37.988 -12.593  -1.474  1.00  0.00     0.041 A 
HETATM   25  C   UNL     1      37.387 -13.138  -2.609  1.00  0.00     0.035 A 
HETATM   26 CL   UNL     1      36.033 -12.350  -3.319  1.00  0.00    -0.084 Cl
HETATM   27  C   UNL     1      37.878 -14.311  -3.174  1.00  0.00     0.024 A 
HETATM   28  C   UNL     1      38.984 -14.943  -2.606  1.00  0.00     0.003 A 
HETATM   29  C   UNL     1      39.596 -14.401  -1.470  1.00  0.00     0.017 A 
ENDBRANCH  20  23
ENDBRANCH  18  19
ENDBRANCH   2  18
TORSDOF 5
ENDMDL
MODEL 3
REMARK VINA RESULT:      -8.7      1.476      2.076
REMARK  5 active torsions:
REMARK  status: ('A' for Active; 'I' for Inactive)
REMARK    1  A    between atoms: C_7  and  C_8 
REMARK    2  A    between atoms: N_9  and  N_10 
REMARK       I    between atoms: N_10  and  C_11 
REMARK    3  A    between atoms: C_11  and  C_12 
REMARK    4  A    between atoms: C_12  and  N_13 
REMARK       I    between atoms: N_13  and  C_14 
REMARK    5  A    between atoms: C_14  and  C_15 
ROOT
HETATM    1  N   UNL     1      43.290 -12.936   7.327  1.00  0.00    -0.246 N 
HETATM    2  C   UNL     1      43.529 -11.581   7.154  1.00  0.00     0.255 C 
HETATM    3  O   UNL     1      43.213 -10.921   6.166  1.00  0.00    -0.270 OA
HETATM    4  H   UNL     1      43.712 -13.414   8.127  1.00  0.00     0.192 HD
ENDROOT
BRANCH   1   5
HETATM    5  N   UNL     1      42.637 -13.652   6.368  1.00  0.00    -0.184 NA
HETATM    6  C   UNL     1      43.387 -14.423   5.650  1.00  0.00     0.153 C 
BRANCH   6   7
HETATM    7  C   UNL     1      42.812 -15.215   4.577  1.00  0.00     0.018 A 
HETATM    8  C   UNL     1      41.751 -14.862   3.752  1.00  0.00     0.018 A 
HETATM    9  C   UNL     1      40.913 -13.632   3.709  1.00  0.00     0.069 C 
HETATM   10  N   UNL     1      41.546 -15.892   2.869  1.00  0.00    -0.358 N 
HETATM   11  H   UNL     1      40.838 -15.904   2.149  1.00  0.00     0.166 HD
HETATM   12  C   UNL     1      42.439 -16.910   3.096  1.00  0.00     0.043 A 
HETATM   13  C   UNL     1      43.246 -16.519   4.164  1.00  0.00     0.004 A 
HETATM   14  C   UNL     1      42.589 -18.139   2.438  1.00  0.00     0.030 A 
HETATM   15  C   UNL     1      44.252 -17.409   4.601  1.00  0.00     0.014 A 
HETATM   16  C   UNL     1      44.412 -18.643   3.958  1.00  0.00     0.001 A 
HETATM   17  C   UNL     1      43.592 -18.999   2.892  1.00  0.00     0.002 A 
ENDBRANCH   6   7
ENDBRANCH   1   5
BRANCH   2  18
HETATM   18  C   UNL     1      44.361 -10.969   8.284  1.00  0.00     0.227 C 
BRANCH  18  19
HETATM   19  N   UNL     1      43.595 -10.605   9.472  1.00  0.00    -0.348 N 
HETATM   20  C   UNL     1      44.148  -9.872  10.497  1.00  0.00     0.252 C 
HETATM   21  O   UNL     1      45.352  -9.631  10.525  1.00  0.00    -0.268 OA
HETATM   22  H   UNL     1      42.669 -11.000   9.553  1.00  0.00     0.163 HD
BRANCH  20  23
HETATM   23  C   UNL     1      43.261  -9.428  11.612  1.00  0.00     0.033 A 
HETATM   24  C   UNL     1      42.077 -10.150  11.827  1.00  0.00     0.041 A 
HETATM   25  C   UNL     1      41.217  -9.791  12.863  1.00  0.00     0.035 A 
HETATM   26 CL   UNL     1      39.771 -10.687  13.121  1.00  0.00    -0.084 Cl
HETATM   27  C   UNL     1      41.521  -8.718  13.695  1.00  0.00     0.024 A 
HETATM   28  C   UNL     1      42.700  -8.000  13.494  1.00  0.00     0.003 A 
HETATM   29  C   UNL     1      43.572  -8.355  12.460  1.00  0.00     0.017 A 
ENDBRANCH  20  23
ENDBRANCH  18  19
ENDBRANCH   2  18
TORSDOF 5
ENDMDL
MODEL 4
REMARK VINA RESULT:      -8.6      6.271      8.920
REMARK  5 active torsions:
REMARK  status: ('A' for Active; 'I' for Inactive)
REMARK    1  A    between atoms: C_7  and  C_8 
REMARK    2  A    between atoms: N_9  and  N_10 
REMARK       I    between atoms: N_10  and  C_11 
REMARK    3  A    between atoms: C_11  and  C_12 
REMARK    4  A    between atoms: C_12  and  N_13 
REMARK       I    between atoms: N_13  and  C_14 
REMARK    5  A    between atoms: C_14  and  C_15 
ROOT
HETATM    1  N   UNL     1      42.616 -13.240   2.638  1.00  0.00    -0.246 N 
HETATM    2  C   UNL     1      43.081 -11.965   2.920  1.00  0.00     0.255 C 
HETATM    3  O   UNL     1      44.093 -11.700   3.568  1.00  0.00    -0.270 OA
HETATM    4  H   UNL     1      41.695 -13.345   2.207  1.00  0.00     0.192 HD
ENDROOT
BRANCH   1   5
HETATM    5  N   UNL     1      43.300 -14.337   3.069  1.00  0.00    -0.184 NA
HETATM    6  C   UNL     1      42.592 -15.215   3.703  1.00  0.00     0.153 C 
BRANCH   6   7
HETATM    7  C   UNL     1      43.213 -16.414   4.236  1.00  0.00     0.018 A 
HETATM    8  C   UNL     1      43.839 -16.555   5.469  1.00  0.00     0.018 A 
HETATM    9  C   UNL     1      44.061 -15.580   6.570  1.00  0.00     0.069 C 
HETATM   10  N   UNL     1      44.270 -17.854   5.573  1.00  0.00    -0.358 N 
HETATM   11  H   UNL     1      44.756 -18.240   6.370  1.00  0.00     0.166 HD
HETATM   12  C   UNL     1      43.948 -18.565   4.443  1.00  0.00     0.043 A 
HETATM   13  C   UNL     1      43.287 -17.690   3.582  1.00  0.00     0.004 A 
HETATM   14  C   UNL     1      44.192 -19.907   4.124  1.00  0.00     0.030 A 
HETATM   15  C   UNL     1      42.854 -18.184   2.331  1.00  0.00     0.014 A 
HETATM   16  C   UNL     1      43.094 -19.522   1.995  1.00  0.00     0.001 A 
HETATM   17  C   UNL     1      43.753 -20.369   2.881  1.00  0.00     0.002 A 
ENDBRANCH   6   7
ENDBRANCH   1   5
BRANCH   2  18
HETATM   18  C   UNL     1      42.132 -10.860   2.447  1.00  0.00     0.227 C 
BRANCH  18  19
HETATM   19  N   UNL     1      41.256 -11.246   1.345  1.00  0.00    -0.348 N 
HETATM   20  C   UNL     1      41.378 -10.692   0.092  1.00  0.00     0.252 C 
HETATM   21  O   UNL     1      42.124  -9.736  -0.108  1.00  0.00    -0.268 OA
HETATM   22  H   UNL     1      40.492 -11.867   1.568  1.00  0.00     0.163 HD
BRANCH  20  23
HETATM   23  C   UNL     1      40.535 -11.236  -1.012  1.00  0.00     0.033 A 
HETATM   24  C   UNL     1      40.230 -12.605  -0.981  1.00  0.00     0.041 A 
HETATM   25  C   UNL     1      39.432 -13.168  -1.977  1.00  0.00     0.035 A 
HETATM   26 CL   UNL     1      39.060 -14.847  -1.926  1.00  0.00    -0.084 Cl
HETATM   27  C   UNL     1      38.931 -12.381  -3.009  1.00  0.00     0.024 A 
HETATM   28  C   UNL     1      39.222 -11.017  -3.043  1.00  0.00     0.003 A 
HETATM   29  C   UNL     1      40.017 -10.443  -2.046  1.00  0.00     0.017 A 
ENDBRANCH  20  23
ENDBRANCH  18  19
ENDBRANCH   2  18
TORSDOF 5
ENDMDL
MODEL 5
REMARK VINA RESULT:      -8.4      6.471      9.723
REMARK  5 active torsions:
REMARK  status: ('A' for Active; 'I' for Inactive)
REMARK    1  A    between atoms: C_7  and  C_8 
REMARK    2  A    between atoms: N_9  and  N_10 
REMARK       I    between atoms: N_10  and  C_11 
REMARK    3  A    between atoms: C_11  and  C_12 
REMARK    4  A    between atoms: C_12  and  N_13 
REMARK       I    between atoms: N_13  and  C_14 
REMARK    5  A    between atoms: C_14  and  C_15 
ROOT
HETATM    1  N   UNL     1      42.264 -14.023   2.873  1.00  0.00    -0.246 N 
HETATM    2  C   UNL     1      42.159 -13.749   4.228  1.00  0.00     0.255 C 
HETATM    3  O   UNL     1      41.493 -12.842   4.724  1.00  0.00    -0.270 OA
HETATM    4  H   UNL     1      42.948 -14.715   2.560  1.00  0.00     0.192 HD
ENDROOT
BRANCH   1   5
HETATM    5  N   UNL     1      41.580 -13.275   1.960  1.00  0.00    -0.184 NA
HETATM    6  C   UNL     1      40.436 -13.757   1.599  1.00  0.00     0.153 C 
BRANCH   6   7
HETATM    7  C   UNL     1      39.627 -13.065   0.611  1.00  0.00     0.018 A 
HETATM    8  C   UNL     1      39.107 -11.780   0.707  1.00  0.00     0.018 A 
HETATM    9  C   UNL     1      39.206 -10.763   1.789  1.00  0.00     0.069 C 
HETATM   10  N   UNL     1      38.421 -11.518  -0.452  1.00  0.00    -0.358 N 
HETATM   11  H   UNL     1      37.942 -10.653  -0.658  1.00  0.00     0.166 HD
HETATM   12  C   UNL     1      38.473 -12.596  -1.301  1.00  0.00     0.043 A 
HETATM   13  C   UNL     1      39.219 -13.586  -0.662  1.00  0.00     0.004 A 
HETATM   14  C   UNL     1      37.917 -12.765  -2.576  1.00  0.00     0.030 A 
HETATM   15  C   UNL     1      39.414 -14.813  -1.334  1.00  0.00     0.014 A 
HETATM   16  C   UNL     1      38.862 -15.000  -2.608  1.00  0.00     0.001 A 
HETATM   17  C   UNL     1      38.126 -13.989  -3.217  1.00  0.00     0.002 A 
ENDBRANCH   6   7
ENDBRANCH   1   5
BRANCH   2  18
HETATM   18  C   UNL     1      43.074 -14.622   5.090  1.00  0.00     0.227 C 
BRANCH  18  19
HETATM   19  N   UNL     1      43.139 -16.021   4.678  1.00  0.00    -0.348 N 
HETATM   20  C   UNL     1      44.006 -16.913   5.268  1.00  0.00     0.252 C 
HETATM   21  O   UNL     1      44.871 -16.531   6.052  1.00  0.00    -0.268 OA
HETATM   22  H   UNL     1      42.588 -16.284   3.874  1.00  0.00     0.163 HD
BRANCH  20  23
HETATM   23  C   UNL     1      43.916 -18.352   4.883  1.00  0.00     0.033 A 
HETATM   24  C   UNL     1      43.867 -18.657   3.514  1.00  0.00     0.041 A 
HETATM   25  C   UNL     1      43.797 -19.984   3.095  1.00  0.00     0.035 A 
HETATM   26 CL   UNL     1      43.743 -20.347   1.414  1.00  0.00    -0.084 Cl
HETATM   27  C   UNL     1      43.776 -21.019   4.025  1.00  0.00     0.024 A 
HETATM   28  C   UNL     1      43.834 -20.727   5.387  1.00  0.00     0.003 A 
HETATM   29  C   UNL     1      43.908 -19.398   5.818  1.00  0.00     0.017 A 
ENDBRANCH  20  23
ENDBRANCH  18  19
ENDBRANCH   2  18
TORSDOF 5
ENDMDL
MODEL 6
REMARK VINA RESULT:      -8.4      2.894      4.371
REMARK  5 active torsions:
REMARK  status: ('A' for Active; 'I' for Inactive)
REMARK    1  A    between atoms: C_7  and  C_8 
REMARK    2  A    between atoms: N_9  and  N_10 
REMARK       I    between atoms: N_10  and  C_11 
REMARK    3  A    between atoms: C_11  and  C_12 
REMARK    4  A    between atoms: C_12  and  N_13 
REMARK       I    between atoms: N_13  and  C_14 
REMARK    5  A    between atoms: C_14  and  C_15 
ROOT
HETATM    1  N   UNL     1      41.505 -13.556   5.064  1.00  0.00    -0.246 N 
HETATM    2  C   UNL     1      40.354 -12.823   4.820  1.00  0.00     0.255 C 
HETATM    3  O   UNL     1      39.478 -13.116   4.009  1.00  0.00    -0.270 OA
HETATM    4  H   UNL     1      42.230 -13.154   5.662  1.00  0.00     0.192 HD
ENDROOT
BRANCH   1   5
HETATM    5  N   UNL     1      41.738 -14.721   4.395  1.00  0.00    -0.184 NA
HETATM    6  C   UNL     1      42.820 -15.344   4.731  1.00  0.00     0.153 C 
BRANCH   6   7
HETATM    7  C   UNL     1      43.191 -16.582   4.070  1.00  0.00     0.018 A 
HETATM    8  C   UNL     1      43.411 -16.771   2.711  1.00  0.00     0.018 A 
HETATM    9  C   UNL     1      43.337 -15.822   1.566  1.00  0.00     0.069 C 
HETATM   10  N   UNL     1      43.755 -18.086   2.521  1.00  0.00    -0.358 N 
HETATM   11  H   UNL     1      43.975 -18.504   1.629  1.00  0.00     0.166 HD
HETATM   12  C   UNL     1      43.764 -18.762   3.716  1.00  0.00     0.043 A 
HETATM   13  C   UNL     1      43.411 -17.848   4.708  1.00  0.00     0.004 A 
HETATM   14  C   UNL     1      44.056 -20.105   3.988  1.00  0.00     0.030 A 
HETATM   15  C   UNL     1      43.339 -18.306   6.043  1.00  0.00     0.014 A 
HETATM   16  C   UNL     1      43.623 -19.646   6.331  1.00  0.00     0.001 A 
HETATM   17  C   UNL     1      43.977 -20.530   5.316  1.00  0.00     0.002 A 
ENDBRANCH   6   7
ENDBRANCH   1   5
BRANCH   2  18
HETATM   18  C   UNL     1      40.314 -11.497   5.585  1.00  0.00     0.227 C 
BRANCH  18  19
HETATM   19  N   UNL     1      41.402 -11.316   6.541  1.00  0.00    -0.348 N 
HETATM   20  C   UNL     1      42.590 -10.720   6.186  1.00  0.00     0.252 C 
HETATM   21  O   UNL     1      42.842 -10.460   5.012  1.00  0.00    -0.268 OA
HETATM   22  H   UNL     1      41.281 -11.737   7.451  1.00  0.00     0.163 HD
BRANCH  20  23
HETATM   23  C   UNL     1      43.598 -10.452   7.253  1.00  0.00     0.033 A 
HETATM   24  C   UNL     1      43.172  -9.742   8.385  1.00  0.00     0.041 A 
HETATM   25  C   UNL     1      44.066  -9.475   9.422  1.00  0.00     0.035 A 
HETATM   26 CL   UNL     1      43.532  -8.607  10.807  1.00  0.00    -0.084 Cl
HETATM   27  C   UNL     1      45.386  -9.910   9.346  1.00  0.00     0.024 A 
HETATM   28  C   UNL     1      45.816 -10.626   8.228  1.00  0.00     0.003 A 
HETATM   29  C   UNL     1      44.925 -10.901   7.186  1.00  0.00     0.017 A 
ENDBRANCH  20  23
ENDBRANCH  18  19
ENDBRANCH   2  18
TORSDOF 5
ENDMDL
MODEL 7
REMARK VINA RESULT:      -8.4      7.392     10.060
REMARK  5 active torsions:
REMARK  status: ('A' for Active; 'I' for Inactive)
REMARK    1  A    between atoms: C_7  and  C_8 
REMARK    2  A    between atoms: N_9  and  N_10 
REMARK       I    between atoms: N_10  and  C_11 
REMARK    3  A    between atoms: C_11  and  C_12 
REMARK    4  A    between atoms: C_12  and  N_13 
REMARK       I    between atoms: N_13  and  C_14 
REMARK    5  A    between atoms: C_14  and  C_15 
ROOT
HETATM    1  N   UNL     1      41.595 -14.746   0.386  1.00  0.00    -0.246 N 
HETATM    2  C   UNL     1      40.508 -13.904   0.208  1.00  0.00     0.255 C 
HETATM    3  O   UNL     1      39.697 -13.589   1.077  1.00  0.00    -0.270 OA
HETATM    4  H   UNL     1      42.128 -15.046  -0.433  1.00  0.00     0.192 HD
ENDROOT
BRANCH   1   5
HETATM    5  N   UNL     1      41.856 -15.289   1.610  1.00  0.00    -0.184 NA
HETATM    6  C   UNL     1      42.837 -16.131   1.641  1.00  0.00     0.153 C 
BRANCH   6   7
HETATM    7  C   UNL     1      43.193 -16.798   2.881  1.00  0.00     0.018 A 
HETATM    8  C   UNL     1      43.357 -16.210   4.130  1.00  0.00     0.018 A 
HETATM    9  C   UNL     1      43.230 -14.794   4.569  1.00  0.00     0.069 C 
HETATM   10  N   UNL     1      43.676 -17.203   5.021  1.00  0.00    -0.358 N 
HETATM   11  H   UNL     1      43.847 -17.063   6.006  1.00  0.00     0.166 HD
HETATM   12  C   UNL     1      43.729 -18.422   4.391  1.00  0.00     0.043 A 
HETATM   13  C   UNL     1      43.435 -18.202   3.046  1.00  0.00     0.004 A 
HETATM   14  C   UNL     1      44.015 -19.692   4.910  1.00  0.00     0.030 A 
HETATM   15  C   UNL     1      43.433 -19.313   2.173  1.00  0.00     0.014 A 
HETATM   16  C   UNL     1      43.721 -20.588   2.675  1.00  0.00     0.001 A 
HETATM   17  C   UNL     1      44.006 -20.772   4.024  1.00  0.00     0.002 A 
ENDBRANCH   6   7
ENDBRANCH   1   5
BRANCH   2  18
HETATM   18  C   UNL     1      40.315 -13.474  -1.249  1.00  0.00     0.227 C 
BRANCH  18  19
HETATM   19  N   UNL     1      41.044 -12.267  -1.626  1.00  0.00    -0.348 N 
HETATM   20  C   UNL     1      40.399 -11.079  -1.884  1.00  0.00     0.252 C 
HETATM   21  O   UNL     1      39.174 -11.027  -1.963  1.00  0.00    -0.268 OA
HETATM   22  H   UNL     1      42.036 -12.367  -1.785  1.00  0.00     0.163 HD
BRANCH  20  23
HETATM   23  C   UNL     1      41.225  -9.861  -2.131  1.00  0.00     0.033 A 
HETATM   24  C   UNL     1      41.045  -9.190  -3.350  1.00  0.00     0.041 A 
HETATM   25  C   UNL     1      41.778  -8.038  -3.630  1.00  0.00     0.035 A 
HETATM   26 CL   UNL     1      41.545  -7.221  -5.126  1.00  0.00    -0.084 Cl
HETATM   27  C   UNL     1      42.692  -7.540  -2.706  1.00  0.00     0.024 A 
HETATM   28  C   UNL     1      42.871  -8.195  -1.488  1.00  0.00     0.003 A 
HETATM   29  C   UNL     1      42.137  -9.349  -1.196  1.00  0.00     0.017 A 
ENDBRANCH  20  23
ENDBRANCH  18  19
ENDBRANCH   2  18
TORSDOF 5
ENDMDL
MODEL 8
REMARK VINA RESULT:      -8.2      4.752      9.735
REMARK  5 active torsions:
REMARK  status: ('A' for Active; 'I' for Inactive)
REMARK    1  A    between atoms: C_7  and  C_8 
REMARK    2  A    between atoms: N_9  and  N_10 
REMARK       I    between atoms: N_10  and  C_11 
REMARK    3  A    between atoms: C_11  and  C_12 
REMARK    4  A    between atoms: C_12  and  N_13 
REMARK       I    between atoms: N_13  and  C_14 
REMARK    5  A    between atoms: C_14  and  C_15 
ROOT
HETATM    1  N   UNL     1      42.801 -12.347   3.133  1.00  0.00    -0.246 N 
HETATM    2  C   UNL     1      41.638 -12.572   2.412  1.00  0.00     0.255 C 
HETATM    3  O   UNL     1      40.581 -11.958   2.551  1.00  0.00    -0.270 OA
HETATM    4  H   UNL     1      43.580 -13.001   3.031  1.00  0.00     0.192 HD
ENDROOT
BRANCH   1   5
HETATM    5  N   UNL     1      42.851 -11.364   4.076  1.00  0.00    -0.184 NA
HETATM    6  C   UNL     1      42.849 -11.776   5.302  1.00  0.00     0.153 C 
BRANCH   6   7
HETATM    7  C   UNL     1      42.871 -10.823   6.397  1.00  0.00     0.018 A 
HETATM    8  C   UNL     1      41.794 -10.108   6.907  1.00  0.00     0.018 A 
HETATM    9  C   UNL     1      40.358 -10.090   6.514  1.00  0.00     0.069 C 
HETATM   10  N   UNL     1      42.255  -9.337   7.944  1.00  0.00    -0.358 N 
HETATM   11  H   UNL     1      41.686  -8.717   8.502  1.00  0.00     0.166 HD
HETATM   12  C   UNL     1      43.604  -9.524   8.125  1.00  0.00     0.043 A 
HETATM   13  C   UNL     1      44.022 -10.448   7.168  1.00  0.00     0.004 A 
HETATM   14  C   UNL     1      44.475  -8.946   9.058  1.00  0.00     0.030 A 
HETATM   15  C   UNL     1      45.388 -10.807   7.139  1.00  0.00     0.014 A 
HETATM   16  C   UNL     1      46.273 -10.236   8.062  1.00  0.00     0.001 A 
HETATM   17  C   UNL     1      45.820  -9.320   9.007  1.00  0.00     0.002 A 
ENDBRANCH   6   7
ENDBRANCH   1   5
BRANCH   2  18
HETATM   18  C   UNL     1      41.736 -13.778   1.474  1.00  0.00     0.227 C 
BRANCH  18  19
HETATM   19  N   UNL     1      42.518 -14.893   2.002  1.00  0.00    -0.348 N 
HETATM   20  C   UNL     1      41.960 -15.849   2.820  1.00  0.00     0.252 C 
HETATM   21  O   UNL     1      40.823 -15.714   3.267  1.00  0.00    -0.268 OA
HETATM   22  H   UNL     1      43.510 -14.878   1.820  1.00  0.00     0.163 HD
BRANCH  20  23
HETATM   23  C   UNL     1      42.791 -17.026   3.206  1.00  0.00     0.033 A 
HETATM   24  C   UNL     1      42.816 -18.120   2.328  1.00  0.00     0.041 A 
HETATM   25  C   UNL     1      43.586 -19.242   2.629  1.00  0.00     0.035 A 
HETATM   26 CL   UNL     1      43.614 -20.575   1.542  1.00  0.00    -0.084 Cl
HETATM   27  C   UNL     1      44.338 -19.290   3.799  1.00  0.00     0.024 A 
HETATM   28  C   UNL     1      44.326 -18.204   4.674  1.00  0.00     0.003 A 
HETATM   29  C   UNL     1      43.559 -17.072   4.378  1.00  0.00     0.017 A 
ENDBRANCH  20  23
ENDBRANCH  18  19
ENDBRANCH   2  18
TORSDOF 5
ENDMDL
MODEL 9
REMARK VINA RESULT:      -8.2      2.243      3.052
REMARK  5 active torsions:
REMARK  status: ('A' for Active; 'I' for Inactive)
REMARK    1  A    between atoms: C_7  and  C_8 
REMARK    2  A    between atoms: N_9  and  N_10 
REMARK       I    between atoms: N_10  and  C_11 
REMARK    3  A    between atoms: C_11  and  C_12 
REMARK    4  A    between atoms: C_12  and  N_13 
REMARK       I    between atoms: N_13  and  C_14 
REMARK    5  A    between atoms: C_14  and  C_15 
ROOT
HETATM    1  N   UNL     1      43.956 -11.500   6.650  1.00  0.00    -0.246 N 
HETATM    2  C   UNL     1      45.310 -11.216   6.552  1.00  0.00     0.255 C 
HETATM    3  O   UNL     1      46.034 -11.508   5.602  1.00  0.00    -0.270 OA
HETATM    4  H   UNL     1      43.479 -11.331   7.538  1.00  0.00     0.192 HD
ENDROOT
BRANCH   1   5
HETATM    5  N   UNL     1      43.307 -12.136   5.634  1.00  0.00    -0.184 NA
HETATM    6  C   UNL     1      42.388 -12.968   6.002  1.00  0.00     0.153 C 
BRANCH   6   7
HETATM    7  C   UNL     1      41.646 -13.728   5.013  1.00  0.00     0.018 A 
HETATM    8  C   UNL     1      40.376 -13.449   4.523  1.00  0.00     0.018 A 
HETATM    9  C   UNL     1      39.425 -12.348   4.840  1.00  0.00     0.069 C 
HETATM   10  N   UNL     1      40.063 -14.410   3.596  1.00  0.00    -0.358 N 
HETATM   11  H   UNL     1      39.199 -14.453   3.075  1.00  0.00     0.166 HD
HETATM   12  C   UNL     1      41.090 -15.313   3.467  1.00  0.00     0.043 A 
HETATM   13  C   UNL     1      42.098 -14.916   4.346  1.00  0.00     0.004 A 
HETATM   14  C   UNL     1      41.198 -16.442   2.645  1.00  0.00     0.030 A 
HETATM   15  C   UNL     1      43.274 -15.696   4.408  1.00  0.00     0.014 A 
HETATM   16  C   UNL     1      43.397 -16.830   3.597  1.00  0.00     0.001 A 
HETATM   17  C   UNL     1      42.373 -17.195   2.728  1.00  0.00     0.002 A 
ENDBRANCH   6   7
ENDBRANCH   1   5
BRANCH   2  18
HETATM   18  C   UNL     1      45.887 -10.593   7.826  1.00  0.00     0.227 C 
BRANCH  18  19
HETATM   19  N   UNL     1      44.975  -9.693   8.526  1.00  0.00    -0.348 N 
HETATM   20  C   UNL     1      44.752  -9.794   9.880  1.00  0.00     0.252 C 
HETATM   21  O   UNL     1      45.187 -10.745  10.525  1.00  0.00    -0.268 OA
HETATM   22  H   UNL     1      44.440  -9.055   7.955  1.00  0.00     0.163 HD
BRANCH  20  23
HETATM   23  C   UNL     1      43.911  -8.753  10.541  1.00  0.00     0.033 A 
HETATM   24  C   UNL     1      43.628  -8.917  11.905  1.00  0.00     0.041 A 
HETATM   25  C   UNL     1      42.860  -7.969  12.580  1.00  0.00     0.035 A 
HETATM   26 CL   UNL     1      42.524  -8.177  14.254  1.00  0.00    -0.084 Cl
HETATM   27  C   UNL     1      42.368  -6.852  11.910  1.00  0.00     0.024 A 
HETATM   28  C   UNL     1      42.652  -6.676  10.556  1.00  0.00     0.003 A 
HETATM   29  C   UNL     1      43.425  -7.620   9.873  1.00  0.00     0.017 A 
ENDBRANCH  20  23
ENDBRANCH  18  19
ENDBRANCH   2  18
TORSDOF 5
ENDMDL
MODEL 10
REMARK VINA RESULT:      -8.2      7.757     11.159
REMARK  5 active torsions:
REMARK  status: ('A' for Active; 'I' for Inactive)
REMARK    1  A    between atoms: C_7  and  C_8 
REMARK    2  A    between atoms: N_9  and  N_10 
REMARK       I    between atoms: N_10  and  C_11 
REMARK    3  A    between atoms: C_11  and  C_12 
REMARK    4  A    between atoms: C_12  and  N_13 
REMARK       I    between atoms: N_13  and  C_14 
REMARK    5  A    between atoms: C_14  and  C_15 
ROOT
HETATM    1  N   UNL     1      40.890 -12.832   0.828  1.00  0.00    -0.246 N 
HETATM    2  C   UNL     1      40.222 -14.045   0.905  1.00  0.00     0.255 C 
HETATM    3  O   UNL     1      39.711 -14.640  -0.042  1.00  0.00    -0.270 OA
HETATM    4  H   UNL     1      41.161 -12.361   1.694  1.00  0.00     0.192 HD
ENDROOT
BRANCH   1   5
HETATM    5  N   UNL     1      41.044 -12.202  -0.371  1.00  0.00    -0.184 NA
HETATM    6  C   UNL     1      40.532 -11.016  -0.441  1.00  0.00     0.153 C 
BRANCH   6   7
HETATM    7  C   UNL     1      40.607 -10.255  -1.675  1.00  0.00     0.018 A 
HETATM    8  C   UNL     1      39.809 -10.409  -2.802  1.00  0.00     0.018 A 
HETATM    9  C   UNL     1      38.691 -11.348  -3.089  1.00  0.00     0.069 C 
HETATM   10  N   UNL     1      40.208  -9.478  -3.728  1.00  0.00    -0.358 N 
HETATM   11  H   UNL     1      39.798  -9.358  -4.643  1.00  0.00     0.166 HD
HETATM   12  C   UNL     1      41.246  -8.722  -3.240  1.00  0.00     0.043 A 
HETATM   13  C   UNL     1      41.524  -9.187  -1.955  1.00  0.00     0.004 A 
HETATM   14  C   UNL     1      41.954  -7.672  -3.839  1.00  0.00     0.030 A 
HETATM   15  C   UNL     1      42.570  -8.571  -1.234  1.00  0.00     0.014 A 
HETATM   16  C   UNL     1      43.290  -7.522  -1.819  1.00  0.00     0.001 A 
HETATM   17  C   UNL     1      42.983  -7.081  -3.103  1.00  0.00     0.002 A 
ENDBRANCH   6   7
ENDBRANCH   1   5
BRANCH   2  18
HETATM   18  C   UNL     1      40.057 -14.549   2.341  1.00  0.00     0.227 C 
BRANCH  18  19
HETATM   19  N   UNL     1      40.838 -15.741   2.657  1.00  0.00    -0.348 N 
HETATM   20  C   UNL     1      42.201 -15.689   2.846  1.00  0.00     0.252 C 
HETATM   21  O   UNL     1      42.835 -14.666   2.599  1.00  0.00    -0.268 OA
HETATM   22  H   UNL     1      40.349 -16.624   2.635  1.00  0.00     0.163 HD
BRANCH  20  23
HETATM   23  C   UNL     1      42.904 -16.925   3.297  1.00  0.00     0.033 A 
HETATM   24  C   UNL     1      42.986 -17.993   2.392  1.00  0.00     0.041 A 
HETATM   25  C   UNL     1      43.644 -19.168   2.752  1.00  0.00     0.035 A 
HETATM   26 CL   UNL     1      43.743 -20.470   1.632  1.00  0.00    -0.084 Cl
HETATM   27  C   UNL     1      44.227 -19.294   4.010  1.00  0.00     0.024 A 
HETATM   28  C   UNL     1      44.158 -18.234   4.914  1.00  0.00     0.003 A 
HETATM   29  C   UNL     1      43.504 -17.050   4.559  1.00  0.00     0.017 A 
ENDBRANCH  20  23
ENDBRANCH  18  19
ENDBRANCH   2  18
TORSDOF 5
ENDMDL
