MODEL 1
REMARK VINA RESULT:      -8.6      0.000      0.000
REMARK  5 active torsions:
REMARK  status: ('A' for Active; 'I' for Inactive)
REMARK    1  A    between atoms: O_2  and  C_3 
REMARK    2  A    between atoms: C_4  and  N_5 
REMARK    3  A    between atoms: N_5  and  C_6 
REMARK    4  A    between atoms: C_6  and  C_7 
REMARK       I    between atoms: C_7  and  N_8 
REMARK    5  A    between atoms: N_8  and  C_9 
ROOT
HETATM    1  C   UNL     1      42.237 -13.947   5.783  1.00  0.00     0.235 C 
HETATM    2  N   UNL     1      43.315 -14.481   5.096  1.00  0.00    -0.326 N 
HETATM    3  O   UNL     1      41.192 -14.528   6.066  1.00  0.00    -0.272 OA
HETATM    4  H   UNL     1      44.174 -13.946   5.129  1.00  0.00     0.169 HD
ENDROOT
BRANCH   1   5
HETATM    5  C   UNL     1      42.452 -12.483   6.193  1.00  0.00     0.195 C 
BRANCH   5   6
HETATM    6  N   UNL     1      43.180 -12.375   7.455  1.00  0.00    -0.282 NA
HETATM    7  H   UNL     1      43.359 -13.298   7.862  1.00  0.00     0.128 HD
BRANCH   6   8
HETATM    8  C   UNL     1      44.312 -11.568   7.604  1.00  0.00     0.042 A 
HETATM    9  C   UNL     1      44.313 -10.564   8.596  1.00  0.00     0.089 A 
HETATM   10  C   UNL     1      45.402  -9.711   8.787  1.00  0.00     0.038 A 
HETATM   11  C   UNL     1      46.494  -9.792   7.932  1.00  0.00     0.003 A 
HETATM   12  C   UNL     1      46.488 -10.722   6.894  1.00  0.00     0.002 A 
HETATM   13  C   UNL     1      45.401 -11.592   6.726  1.00  0.00     0.026 A 
BRANCH   9  14
HETATM   14  O   UNL     1      43.248 -10.425   9.456  1.00  0.00    -0.354 OA
HETATM   15  C   UNL     1      43.694 -10.497  10.814  1.00  0.00     0.210 C 
ENDBRANCH   9  14
ENDBRANCH   6   8
ENDBRANCH   5   6
ENDBRANCH   1   5
BRANCH   2  16
HETATM   16  C   UNL     1      43.372 -15.715   4.414  1.00  0.00     0.035 A 
HETATM   17  C   UNL     1      43.725 -16.924   5.017  1.00  0.00     0.042 A 
HETATM   18  C   UNL     1      43.713 -18.133   4.295  1.00  0.00    -0.024 A 
HETATM   19  C   UNL     1      43.335 -18.125   2.935  1.00  0.00    -0.026 A 
HETATM   20  C   UNL     1      44.065 -19.350   4.902  1.00  0.00     0.012 A 
HETATM   21  C   UNL     1      42.989 -16.909   2.331  1.00  0.00     0.014 A 
HETATM   22  C   UNL     1      43.311 -19.334   2.220  1.00  0.00     0.012 A 
HETATM   23  C   UNL     1      43.008 -15.718   3.064  1.00  0.00     0.030 A 
HETATM   24  C   UNL     1      43.660 -20.536   2.839  1.00  0.00     0.001 A 
HETATM   25  C   UNL     1      44.038 -20.544   4.178  1.00  0.00     0.001 A 
ENDBRANCH   2  16
TORSDOF 5
ENDMDL
MODEL 2
REMARK VINA RESULT:      -8.3      4.782      7.885
REMARK  5 active torsions:
REMARK  status: ('A' for Active; 'I' for Inactive)
REMARK    1  A    between atoms: O_2  and  C_3 
REMARK    2  A    between atoms: C_4  and  N_5 
REMARK    3  A    between atoms: N_5  and  C_6 
REMARK    4  A    between atoms: C_6  and  C_7 
REMARK       I    between atoms: C_7  and  N_8 
REMARK    5  A    between atoms: N_8  and  C_9 
ROOT
HETATM    1  C   UNL     1      41.358 -14.044   1.865  1.00  0.00     0.235 C 
HETATM    2  N   UNL     1      42.512 -14.802   1.744  1.00  0.00    -0.326 N 
HETATM    3  O   UNL     1      40.519 -14.131   2.758  1.00  0.00    -0.272 OA
HETATM    4  H   UNL     1      43.196 -14.467   1.077  1.00  0.00     0.169 HD
ENDROOT
BRANCH   1   5
HETATM    5  C   UNL     1      41.190 -13.022   0.732  1.00  0.00     0.195 C 
BRANCH   5   6
HETATM    6  N   UNL     1      39.784 -12.821   0.388  1.00  0.00    -0.282 NA
HETATM    7  H   UNL     1      39.497 -11.850   0.548  1.00  0.00     0.128 HD
BRANCH   6   8
HETATM    8  C   UNL     1      39.227 -13.284  -0.808  1.00  0.00     0.042 A 
HETATM    9  C   UNL     1      38.192 -12.543  -1.416  1.00  0.00     0.089 A 
HETATM   10  C   UNL     1      37.578 -12.958  -2.599  1.00  0.00     0.038 A 
HETATM   11  C   UNL     1      37.936 -14.176  -3.166  1.00  0.00     0.003 A 
HETATM   12  C   UNL     1      38.900 -14.967  -2.545  1.00  0.00     0.002 A 
HETATM   13  C   UNL     1      39.529 -14.530  -1.370  1.00  0.00     0.026 A 
BRANCH   9  14
HETATM   14  O   UNL     1      37.784 -11.341  -0.886  1.00  0.00    -0.354 OA
HETATM   15  C   UNL     1      38.326 -10.254  -1.643  1.00  0.00     0.210 C 
ENDBRANCH   9  14
ENDBRANCH   6   8
ENDBRANCH   5   6
ENDBRANCH   1   5
BRANCH   2  16
HETATM   16  C   UNL     1      42.870 -15.945   2.489  1.00  0.00     0.035 A 
HETATM   17  C   UNL     1      42.882 -17.242   1.971  1.00  0.00     0.042 A 
HETATM   18  C   UNL     1      43.301 -18.337   2.750  1.00  0.00    -0.024 A 
HETATM   19  C   UNL     1      43.719 -18.122   4.081  1.00  0.00    -0.026 A 
HETATM   20  C   UNL     1      43.317 -19.642   2.229  1.00  0.00     0.012 A 
HETATM   21  C   UNL     1      43.698 -16.820   4.600  1.00  0.00     0.014 A 
HETATM   22  C   UNL     1      44.148 -19.215   4.854  1.00  0.00     0.012 A 
HETATM   23  C   UNL     1      43.277 -15.745   3.811  1.00  0.00     0.030 A 
HETATM   24  C   UNL     1      44.161 -20.505   4.319  1.00  0.00     0.001 A 
HETATM   25  C   UNL     1      43.745 -20.718   3.009  1.00  0.00     0.001 A 
ENDBRANCH   2  16
TORSDOF 5
ENDMDL
MODEL 3
REMARK VINA RESULT:      -8.1      1.523      2.181
REMARK  5 active torsions:
REMARK  status: ('A' for Active; 'I' for Inactive)
REMARK    1  A    between atoms: O_2  and  C_3 
REMARK    2  A    between atoms: C_4  and  N_5 
REMARK    3  A    between atoms: N_5  and  C_6 
REMARK    4  A    between atoms: C_6  and  C_7 
REMARK       I    between atoms: C_7  and  N_8 
REMARK    5  A    between atoms: N_8  and  C_9 
ROOT
HETATM    1  C   UNL     1      42.843 -12.719   4.619  1.00  0.00     0.235 C 
HETATM    2  N   UNL     1      42.575 -13.862   5.355  1.00  0.00    -0.326 N 
HETATM    3  O   UNL     1      43.312 -12.676   3.484  1.00  0.00    -0.272 OA
HETATM    4  H   UNL     1      42.000 -13.737   6.179  1.00  0.00     0.169 HD
ENDROOT
BRANCH   1   5
HETATM    5  C   UNL     1      42.493 -11.427   5.369  1.00  0.00     0.195 C 
BRANCH   5   6
HETATM    6  N   UNL     1      42.845 -11.508   6.784  1.00  0.00    -0.282 NA
HETATM    7  H   UNL     1      42.871 -12.480   7.106  1.00  0.00     0.128 HD
BRANCH   6   8
HETATM    8  C   UNL     1      43.919 -10.802   7.335  1.00  0.00     0.042 A 
HETATM    9  C   UNL     1      43.679  -9.549   7.939  1.00  0.00     0.089 A 
HETATM   10  C   UNL     1      44.707  -8.783   8.490  1.00  0.00     0.038 A 
HETATM   11  C   UNL     1      46.022  -9.220   8.382  1.00  0.00     0.003 A 
HETATM   12  C   UNL     1      46.297 -10.416   7.722  1.00  0.00     0.002 A 
HETATM   13  C   UNL     1      45.255 -11.191   7.193  1.00  0.00     0.026 A 
BRANCH   9  14
HETATM   14  O   UNL     1      42.399  -9.059   8.054  1.00  0.00    -0.354 OA
HETATM   15  C   UNL     1      42.215  -7.939   7.183  1.00  0.00     0.210 C 
ENDBRANCH   9  14
ENDBRANCH   6   8
ENDBRANCH   5   6
ENDBRANCH   1   5
BRANCH   2  16
HETATM   16  C   UNL     1      42.953 -15.187   5.051  1.00  0.00     0.035 A 
HETATM   17  C   UNL     1      42.597 -15.850   3.874  1.00  0.00     0.042 A 
HETATM   18  C   UNL     1      43.050 -17.156   3.605  1.00  0.00    -0.024 A 
HETATM   19  C   UNL     1      43.881 -17.809   4.540  1.00  0.00    -0.026 A 
HETATM   20  C   UNL     1      42.695 -17.822   2.420  1.00  0.00     0.012 A 
HETATM   21  C   UNL     1      44.230 -17.144   5.723  1.00  0.00     0.014 A 
HETATM   22  C   UNL     1      44.342 -19.108   4.263  1.00  0.00     0.012 A 
HETATM   23  C   UNL     1      43.769 -15.848   5.975  1.00  0.00     0.030 A 
HETATM   24  C   UNL     1      43.983 -19.754   3.079  1.00  0.00     0.001 A 
HETATM   25  C   UNL     1      43.160 -19.113   2.159  1.00  0.00     0.001 A 
ENDBRANCH   2  16
TORSDOF 5
ENDMDL
MODEL 4
REMARK VINA RESULT:      -8.0      4.446      7.508
REMARK  5 active torsions:
REMARK  status: ('A' for Active; 'I' for Inactive)
REMARK    1  A    between atoms: O_2  and  C_3 
REMARK    2  A    between atoms: C_4  and  N_5 
REMARK    3  A    between atoms: N_5  and  C_6 
REMARK    4  A    between atoms: C_6  and  C_7 
REMARK       I    between atoms: C_7  and  N_8 
REMARK    5  A    between atoms: N_8  and  C_9 
ROOT
HETATM    1  C   UNL     1      40.339 -13.617   2.838  1.00  0.00     0.235 C 
HETATM    2  N   UNL     1      41.509 -14.207   2.387  1.00  0.00    -0.326 N 
HETATM    3  O   UNL     1      39.745 -13.880   3.880  1.00  0.00    -0.272 OA
HETATM    4  H   UNL     1      41.979 -13.737   1.624  1.00  0.00     0.169 HD
ENDROOT
BRANCH   1   5
HETATM    5  C   UNL     1      39.802 -12.542   1.883  1.00  0.00     0.195 C 
BRANCH   5   6
HETATM    6  N   UNL     1      39.350 -13.118   0.618  1.00  0.00    -0.282 NA
HETATM    7  H   UNL     1      38.330 -13.078   0.533  1.00  0.00     0.128 HD
BRANCH   6   8
HETATM    8  C   UNL     1      39.937 -12.794  -0.609  1.00  0.00     0.042 A 
HETATM    9  C   UNL     1      39.876 -13.727  -1.666  1.00  0.00     0.089 A 
HETATM   10  C   UNL     1      40.457 -13.477  -2.911  1.00  0.00     0.038 A 
HETATM   11  C   UNL     1      41.185 -12.310  -3.105  1.00  0.00     0.003 A 
HETATM   12  C   UNL     1      41.329 -11.406  -2.054  1.00  0.00     0.002 A 
HETATM   13  C   UNL     1      40.721 -11.654  -0.815  1.00  0.00     0.026 A 
BRANCH   9  14
HETATM   14  O   UNL     1      39.185 -14.908  -1.522  1.00  0.00    -0.354 OA
HETATM   15  C   UNL     1      38.570 -15.279  -2.760  1.00  0.00     0.210 C 
ENDBRANCH   9  14
ENDBRANCH   6   8
ENDBRANCH   5   6
ENDBRANCH   1   5
BRANCH   2  16
HETATM   16  C   UNL     1      42.153 -15.347   2.912  1.00  0.00     0.035 A 
HETATM   17  C   UNL     1      42.202 -16.583   2.263  1.00  0.00     0.042 A 
HETATM   18  C   UNL     1      42.907 -17.671   2.814  1.00  0.00    -0.024 A 
HETATM   19  C   UNL     1      43.579 -17.510   4.045  1.00  0.00    -0.026 A 
HETATM   20  C   UNL     1      42.960 -18.914   2.162  1.00  0.00     0.012 A 
HETATM   21  C   UNL     1      43.521 -16.271   4.697  1.00  0.00     0.014 A 
HETATM   22  C   UNL     1      44.292 -18.593   4.587  1.00  0.00     0.012 A 
HETATM   23  C   UNL     1      42.815 -15.202   4.135  1.00  0.00     0.030 A 
HETATM   24  C   UNL     1      44.337 -19.821   3.924  1.00  0.00     0.001 A 
HETATM   25  C   UNL     1      43.671 -19.981   2.713  1.00  0.00     0.001 A 
ENDBRANCH   2  16
TORSDOF 5
ENDMDL
MODEL 5
REMARK VINA RESULT:      -8.0      3.667      6.111
REMARK  5 active torsions:
REMARK  status: ('A' for Active; 'I' for Inactive)
REMARK    1  A    between atoms: O_2  and  C_3 
REMARK    2  A    between atoms: C_4  and  N_5 
REMARK    3  A    between atoms: N_5  and  C_6 
REMARK    4  A    between atoms: C_6  and  C_7 
REMARK       I    between atoms: C_7  and  N_8 
REMARK    5  A    between atoms: N_8  and  C_9 
ROOT
HETATM    1  C   UNL     1      42.582 -13.496   4.114  1.00  0.00     0.235 C 
HETATM    2  N   UNL     1      43.075 -14.486   3.279  1.00  0.00    -0.326 N 
HETATM    3  O   UNL     1      42.395 -13.589   5.324  1.00  0.00    -0.272 OA
HETATM    4  H   UNL     1      43.366 -14.188   2.357  1.00  0.00     0.169 HD
ENDROOT
BRANCH   1   5
HETATM    5  C   UNL     1      42.265 -12.190   3.372  1.00  0.00     0.195 C 
BRANCH   5   6
HETATM    6  N   UNL     1      40.923 -12.206   2.796  1.00  0.00    -0.282 NA
HETATM    7  H   UNL     1      40.393 -11.370   3.062  1.00  0.00     0.128 HD
BRANCH   6   8
HETATM    8  C   UNL     1      40.683 -12.504   1.451  1.00  0.00     0.042 A 
HETATM    9  C   UNL     1      40.211 -13.789   1.107  1.00  0.00     0.089 A 
HETATM   10  C   UNL     1      39.970 -14.161  -0.217  1.00  0.00     0.038 A 
HETATM   11  C   UNL     1      40.271 -13.274  -1.243  1.00  0.00     0.003 A 
HETATM   12  C   UNL     1      40.813 -12.027  -0.938  1.00  0.00     0.002 A 
HETATM   13  C   UNL     1      41.028 -11.653   0.396  1.00  0.00     0.026 A 
BRANCH   9  14
HETATM   14  O   UNL     1      39.916 -14.713   2.082  1.00  0.00    -0.354 OA
HETATM   15  C   UNL     1      39.876 -16.030   1.524  1.00  0.00     0.210 C 
ENDBRANCH   9  14
ENDBRANCH   6   8
ENDBRANCH   5   6
ENDBRANCH   1   5
BRANCH   2  16
HETATM   16  C   UNL     1      43.279 -15.847   3.590  1.00  0.00     0.035 A 
HETATM   17  C   UNL     1      43.147 -16.887   2.667  1.00  0.00     0.042 A 
HETATM   18  C   UNL     1      43.416 -18.222   3.024  1.00  0.00    -0.024 A 
HETATM   19  C   UNL     1      43.830 -18.517   4.341  1.00  0.00    -0.026 A 
HETATM   20  C   UNL     1      43.287 -19.268   2.096  1.00  0.00     0.012 A 
HETATM   21  C   UNL     1      43.955 -17.472   5.267  1.00  0.00     0.014 A 
HETATM   22  C   UNL     1      44.111 -19.849   4.693  1.00  0.00     0.012 A 
HETATM   23  C   UNL     1      43.681 -16.153   4.894  1.00  0.00     0.030 A 
HETATM   24  C   UNL     1      43.980 -20.876   3.756  1.00  0.00     0.001 A 
HETATM   25  C   UNL     1      43.567 -20.586   2.460  1.00  0.00     0.001 A 
ENDBRANCH   2  16
TORSDOF 5
ENDMDL
MODEL 6
REMARK VINA RESULT:      -7.9      1.645      2.244
REMARK  5 active torsions:
REMARK  status: ('A' for Active; 'I' for Inactive)
REMARK    1  A    between atoms: O_2  and  C_3 
REMARK    2  A    between atoms: C_4  and  N_5 
REMARK    3  A    between atoms: N_5  and  C_6 
REMARK    4  A    between atoms: C_6  and  C_7 
REMARK       I    between atoms: C_7  and  N_8 
REMARK    5  A    between atoms: N_8  and  C_9 
ROOT
HETATM    1  C   UNL     1      41.580 -14.054   4.010  1.00  0.00     0.235 C 
HETATM    2  N   UNL     1      42.806 -14.700   4.029  1.00  0.00    -0.326 N 
HETATM    3  O   UNL     1      40.480 -14.582   3.865  1.00  0.00    -0.272 OA
HETATM    4  H   UNL     1      43.591 -14.157   4.366  1.00  0.00     0.169 HD
ENDROOT
BRANCH   1   5
HETATM    5  C   UNL     1      41.700 -12.535   4.194  1.00  0.00     0.195 C 
BRANCH   5   6
HETATM    6  N   UNL     1      41.515 -12.142   5.589  1.00  0.00    -0.282 NA
HETATM    7  H   UNL     1      41.123 -12.909   6.144  1.00  0.00     0.128 HD
BRANCH   6   8
HETATM    8  C   UNL     1      42.509 -11.489   6.325  1.00  0.00     0.042 A 
HETATM    9  C   UNL     1      43.624 -12.226   6.777  1.00  0.00     0.089 A 
HETATM   10  C   UNL     1      44.642 -11.642   7.533  1.00  0.00     0.038 A 
HETATM   11  C   UNL     1      44.530 -10.314   7.924  1.00  0.00     0.003 A 
HETATM   12  C   UNL     1      43.401  -9.582   7.559  1.00  0.00     0.002 A 
HETATM   13  C   UNL     1      42.395 -10.170   6.778  1.00  0.00     0.026 A 
BRANCH   9  14
HETATM   14  O   UNL     1      43.776 -13.550   6.436  1.00  0.00    -0.354 OA
HETATM   15  C   UNL     1      43.290 -14.392   7.486  1.00  0.00     0.210 C 
ENDBRANCH   9  14
ENDBRANCH   6   8
ENDBRANCH   5   6
ENDBRANCH   1   5
BRANCH   2  16
HETATM   16  C   UNL     1      43.072 -16.045   3.698  1.00  0.00     0.035 A 
HETATM   17  C   UNL     1      43.425 -17.024   4.631  1.00  0.00     0.042 A 
HETATM   18  C   UNL     1      43.627 -18.363   4.245  1.00  0.00    -0.024 A 
HETATM   19  C   UNL     1      43.470 -18.727   2.891  1.00  0.00    -0.026 A 
HETATM   20  C   UNL     1      43.979 -19.348   5.183  1.00  0.00     0.012 A 
HETATM   21  C   UNL     1      43.123 -17.741   1.956  1.00  0.00     0.014 A 
HETATM   22  C   UNL     1      43.660 -20.066   2.510  1.00  0.00     0.012 A 
HETATM   23  C   UNL     1      42.928 -16.416   2.357  1.00  0.00     0.030 A 
HETATM   24  C   UNL     1      44.005 -21.034   3.456  1.00  0.00     0.001 A 
HETATM   25  C   UNL     1      44.166 -20.675   4.790  1.00  0.00     0.001 A 
ENDBRANCH   2  16
TORSDOF 5
ENDMDL
MODEL 7
REMARK VINA RESULT:      -7.8      1.607      3.021
REMARK  5 active torsions:
REMARK  status: ('A' for Active; 'I' for Inactive)
REMARK    1  A    between atoms: O_2  and  C_3 
REMARK    2  A    between atoms: C_4  and  N_5 
REMARK    3  A    between atoms: N_5  and  C_6 
REMARK    4  A    between atoms: C_6  and  C_7 
REMARK       I    between atoms: C_7  and  N_8 
REMARK    5  A    between atoms: N_8  and  C_9 
ROOT
HETATM    1  C   UNL     1      42.382 -11.982   5.764  1.00  0.00     0.235 C 
HETATM    2  N   UNL     1      42.196 -13.240   6.314  1.00  0.00    -0.326 N 
HETATM    3  O   UNL     1      42.864 -11.732   4.662  1.00  0.00    -0.272 OA
HETATM    4  H   UNL     1      41.599 -13.285   7.131  1.00  0.00     0.169 HD
ENDROOT
BRANCH   1   5
HETATM    5  C   UNL     1      41.914 -10.848   6.687  1.00  0.00     0.195 C 
BRANCH   5   6
HETATM    6  N   UNL     1      42.996  -9.915   6.991  1.00  0.00    -0.282 NA
HETATM    7  H   UNL     1      42.890  -9.039   6.469  1.00  0.00     0.128 HD
BRANCH   6   8
HETATM    8  C   UNL     1      43.405  -9.636   8.298  1.00  0.00     0.042 A 
HETATM    9  C   UNL     1      44.467 -10.379   8.858  1.00  0.00     0.089 A 
HETATM   10  C   UNL     1      44.914 -10.166  10.163  1.00  0.00     0.038 A 
HETATM   11  C   UNL     1      44.253  -9.251  10.973  1.00  0.00     0.003 A 
HETATM   12  C   UNL     1      43.152  -8.559  10.473  1.00  0.00     0.002 A 
HETATM   13  C   UNL     1      42.726  -8.761   9.152  1.00  0.00     0.026 A 
BRANCH   9  14
HETATM   14  O   UNL     1      45.143 -11.312   8.107  1.00  0.00    -0.354 OA
HETATM   15  C   UNL     1      46.314 -10.730   7.526  1.00  0.00     0.210 C 
ENDBRANCH   9  14
ENDBRANCH   6   8
ENDBRANCH   5   6
ENDBRANCH   1   5
BRANCH   2  16
HETATM   16  C   UNL     1      42.687 -14.470   5.828  1.00  0.00     0.035 A 
HETATM   17  C   UNL     1      42.276 -15.055   4.628  1.00  0.00     0.042 A 
HETATM   18  C   UNL     1      42.841 -16.260   4.170  1.00  0.00    -0.024 A 
HETATM   19  C   UNL     1      43.846 -16.891   4.936  1.00  0.00    -0.026 A 
HETATM   20  C   UNL     1      42.431 -16.848   2.962  1.00  0.00     0.012 A 
HETATM   21  C   UNL     1      44.250 -16.305   6.144  1.00  0.00     0.014 A 
HETATM   22  C   UNL     1      44.418 -18.087   4.471  1.00  0.00     0.012 A 
HETATM   23  C   UNL     1      43.675 -15.108   6.583  1.00  0.00     0.030 A 
HETATM   24  C   UNL     1      44.001 -18.655   3.266  1.00  0.00     0.001 A 
HETATM   25  C   UNL     1      43.008 -18.037   2.513  1.00  0.00     0.001 A 
ENDBRANCH   2  16
TORSDOF 5
ENDMDL
MODEL 8
REMARK VINA RESULT:      -7.6      1.637      8.429
REMARK  5 active torsions:
REMARK  status: ('A' for Active; 'I' for Inactive)
REMARK    1  A    between atoms: O_2  and  C_3 
REMARK    2  A    between atoms: C_4  and  N_5 
REMARK    3  A    between atoms: N_5  and  C_6 
REMARK    4  A    between atoms: C_6  and  C_7 
REMARK       I    between atoms: C_7  and  N_8 
REMARK    5  A    between atoms: N_8  and  C_9 
ROOT
HETATM    1  C   UNL     1      42.292 -14.089   5.547  1.00  0.00     0.235 C 
HETATM    2  N   UNL     1      42.868 -12.888   5.167  1.00  0.00    -0.326 N 
HETATM    3  O   UNL     1      42.038 -14.445   6.695  1.00  0.00    -0.272 OA
HETATM    4  H   UNL     1      42.817 -12.661   4.181  1.00  0.00     0.169 HD
ENDROOT
BRANCH   1   5
HETATM    5  C   UNL     1      41.973 -15.005   4.357  1.00  0.00     0.195 C 
BRANCH   5   6
HETATM    6  N   UNL     1      43.184 -15.580   3.776  1.00  0.00    -0.282 NA
HETATM    7  H   UNL     1      44.027 -15.173   4.192  1.00  0.00     0.128 HD
BRANCH   6   8
HETATM    8  C   UNL     1      43.359 -16.957   3.609  1.00  0.00     0.042 A 
HETATM    9  C   UNL     1      43.950 -17.704   4.651  1.00  0.00     0.089 A 
HETATM   10  C   UNL     1      44.172 -19.078   4.544  1.00  0.00     0.038 A 
HETATM   11  C   UNL     1      43.876 -19.729   3.352  1.00  0.00     0.003 A 
HETATM   12  C   UNL     1      43.365 -19.003   2.279  1.00  0.00     0.002 A 
HETATM   13  C   UNL     1      43.122 -17.627   2.405  1.00  0.00     0.026 A 
BRANCH   9  14
HETATM   14  O   UNL     1      44.281 -17.105   5.844  1.00  0.00    -0.354 OA
HETATM   15  C   UNL     1      43.474 -17.629   6.904  1.00  0.00     0.210 C 
ENDBRANCH   9  14
ENDBRANCH   6   8
ENDBRANCH   5   6
ENDBRANCH   1   5
BRANCH   2  16
HETATM   16  C   UNL     1      43.456 -11.915   6.003  1.00  0.00     0.035 A 
HETATM   17  C   UNL     1      42.808 -10.750   6.419  1.00  0.00     0.042 A 
HETATM   18  C   UNL     1      43.430  -9.841   7.297  1.00  0.00    -0.024 A 
HETATM   19  C   UNL     1      44.732 -10.113   7.770  1.00  0.00    -0.026 A 
HETATM   20  C   UNL     1      42.778  -8.670   7.720  1.00  0.00     0.012 A 
HETATM   21  C   UNL     1      45.382 -11.280   7.344  1.00  0.00     0.014 A 
HETATM   22  C   UNL     1      45.345  -9.212   8.656  1.00  0.00     0.012 A 
HETATM   23  C   UNL     1      44.749 -12.169   6.469  1.00  0.00     0.030 A 
HETATM   24  C   UNL     1      44.682  -8.054   9.068  1.00  0.00     0.001 A 
HETATM   25  C   UNL     1      43.401  -7.783   8.600  1.00  0.00     0.001 A 
ENDBRANCH   2  16
TORSDOF 5
ENDMDL
MODEL 9
REMARK VINA RESULT:      -7.6      1.905      3.346
REMARK  5 active torsions:
REMARK  status: ('A' for Active; 'I' for Inactive)
REMARK    1  A    between atoms: O_2  and  C_3 
REMARK    2  A    between atoms: C_4  and  N_5 
REMARK    3  A    between atoms: N_5  and  C_6 
REMARK    4  A    between atoms: C_6  and  C_7 
REMARK       I    between atoms: C_7  and  N_8 
REMARK    5  A    between atoms: N_8  and  C_9 
ROOT
HETATM    1  C   UNL     1      43.900 -11.858   6.537  1.00  0.00     0.235 C 
HETATM    2  N   UNL     1      42.969 -12.849   6.272  1.00  0.00    -0.326 N 
HETATM    3  O   UNL     1      45.092 -11.881   6.243  1.00  0.00    -0.272 OA
HETATM    4  H   UNL     1      41.997 -12.590   6.388  1.00  0.00     0.169 HD
ENDROOT
BRANCH   1   5
HETATM    5  C   UNL     1      43.299 -10.651   7.272  1.00  0.00     0.195 C 
BRANCH   5   6
HETATM    6  N   UNL     1      44.266 -10.028   8.172  1.00  0.00    -0.282 NA
HETATM    7  H   UNL     1      45.075  -9.667   7.658  1.00  0.00     0.128 HD
BRANCH   6   8
HETATM    8  C   UNL     1      43.893  -9.116   9.163  1.00  0.00     0.042 A 
HETATM    9  C   UNL     1      43.850  -9.542  10.508  1.00  0.00     0.089 A 
HETATM   10  C   UNL     1      43.468  -8.690  11.545  1.00  0.00     0.038 A 
HETATM   11  C   UNL     1      43.042  -7.401  11.250  1.00  0.00     0.003 A 
HETATM   12  C   UNL     1      42.999  -6.976   9.923  1.00  0.00     0.002 A 
HETATM   13  C   UNL     1      43.408  -7.832   8.891  1.00  0.00     0.026 A 
BRANCH   9  14
HETATM   14  O   UNL     1      44.242 -10.815  10.854  1.00  0.00    -0.354 OA
HETATM   15  C   UNL     1      43.582 -11.230  12.053  1.00  0.00     0.210 C 
ENDBRANCH   9  14
ENDBRANCH   6   8
ENDBRANCH   5   6
ENDBRANCH   1   5
BRANCH   2  16
HETATM   16  C   UNL     1      43.216 -14.154   5.795  1.00  0.00     0.035 A 
HETATM   17  C   UNL     1      42.866 -14.597   4.518  1.00  0.00     0.042 A 
HETATM   18  C   UNL     1      43.187 -15.897   4.081  1.00  0.00    -0.024 A 
HETATM   19  C   UNL     1      43.878 -16.770   4.949  1.00  0.00    -0.026 A 
HETATM   20  C   UNL     1      42.839 -16.343   2.795  1.00  0.00     0.012 A 
HETATM   21  C   UNL     1      44.221 -16.324   6.233  1.00  0.00     0.014 A 
HETATM   22  C   UNL     1      44.208 -18.062   4.506  1.00  0.00     0.012 A 
HETATM   23  C   UNL     1      43.892 -15.030   6.650  1.00  0.00     0.030 A 
HETATM   24  C   UNL     1      43.858 -18.488   3.224  1.00  0.00     0.001 A 
HETATM   25  C   UNL     1      43.172 -17.630   2.370  1.00  0.00     0.001 A 
ENDBRANCH   2  16
TORSDOF 5
ENDMDL
MODEL 10
REMARK VINA RESULT:      -7.5      5.501      7.400
REMARK  5 active torsions:
REMARK  status: ('A' for Active; 'I' for Inactive)
REMARK    1  A    between atoms: O_2  and  C_3 
REMARK    2  A    between atoms: C_4  and  N_5 
REMARK    3  A    between atoms: N_5  and  C_6 
REMARK    4  A    between atoms: C_6  and  C_7 
REMARK       I    between atoms: C_7  and  N_8 
REMARK    5  A    between atoms: N_8  and  C_9 
ROOT
HETATM    1  C   UNL     1      40.539 -14.344  -0.009  1.00  0.00     0.235 C 
HETATM    2  N   UNL     1      41.627 -14.098   0.813  1.00  0.00    -0.326 N 
HETATM    3  O   UNL     1      39.740 -15.271   0.098  1.00  0.00    -0.272 OA
HETATM    4  H   UNL     1      42.057 -13.186   0.721  1.00  0.00     0.169 HD
ENDROOT
BRANCH   1   5
HETATM    5  C   UNL     1      40.392 -13.312  -1.136  1.00  0.00     0.195 C 
BRANCH   5   6
HETATM    6  N   UNL     1      41.226 -12.135  -0.906  1.00  0.00    -0.282 NA
HETATM    7  H   UNL     1      42.185 -12.401  -0.660  1.00  0.00     0.128 HD
BRANCH   6   8
HETATM    8  C   UNL     1      41.251 -11.046  -1.781  1.00  0.00     0.042 A 
HETATM    9  C   UNL     1      41.683  -9.790  -1.303  1.00  0.00     0.089 A 
HETATM   10  C   UNL     1      41.713  -8.657  -2.117  1.00  0.00     0.038 A 
HETATM   11  C   UNL     1      41.236  -8.736  -3.420  1.00  0.00     0.003 A 
HETATM   12  C   UNL     1      40.730  -9.944  -3.896  1.00  0.00     0.002 A 
HETATM   13  C   UNL     1      40.726 -11.083  -3.078  1.00  0.00     0.026 A 
BRANCH   9  14
HETATM   14  O   UNL     1      42.146  -9.651  -0.015  1.00  0.00    -0.354 OA
HETATM   15  C   UNL     1      41.137  -9.071   0.816  1.00  0.00     0.210 C 
ENDBRANCH   9  14
ENDBRANCH   6   8
ENDBRANCH   5   6
ENDBRANCH   1   5
BRANCH   2  16
HETATM   16  C   UNL     1      42.160 -14.943   1.808  1.00  0.00     0.035 A 
HETATM   17  C   UNL     1      42.492 -16.284   1.597  1.00  0.00     0.042 A 
HETATM   18  C   UNL     1      43.070 -17.064   2.617  1.00  0.00    -0.024 A 
HETATM   19  C   UNL     1      43.323 -16.480   3.877  1.00  0.00    -0.026 A 
HETATM   20  C   UNL     1      43.407 -18.411   2.405  1.00  0.00     0.012 A 
HETATM   21  C   UNL     1      42.982 -15.137   4.088  1.00  0.00     0.014 A 
HETATM   22  C   UNL     1      43.912 -17.257   4.890  1.00  0.00     0.012 A 
HETATM   23  C   UNL     1      42.406 -14.379   3.063  1.00  0.00     0.030 A 
HETATM   24  C   UNL     1      44.244 -18.593   4.661  1.00  0.00     0.001 A 
HETATM   25  C   UNL     1      43.991 -19.170   3.421  1.00  0.00     0.001 A 
ENDBRANCH   2  16
TORSDOF 5
ENDMDL
