MODEL 1
REMARK VINA RESULT:      -7.5      0.000      0.000
REMARK  7 active torsions:
REMARK  status: ('A' for Active; 'I' for Inactive)
REMARK    1  A    between atoms: O_2  and  C_3 
REMARK    2  A    between atoms: C_6  and  C_7 
REMARK    3  A    between atoms: C_7  and  N_8 
REMARK    4  A    between atoms: N_8  and  C_11 
REMARK    5  A    between atoms: C_11  and  C_12 
REMARK    6  A    between atoms: C_11  and  C_20 
REMARK       I    between atoms: C_12  and  N_13 
REMARK    7  A    between atoms: N_13  and  C_14 
ROOT
HETATM    1  C   UNL     1      41.413 -15.199   3.527  1.00  0.00     0.310 C 
ENDROOT
BRANCH   1   2
HETATM    2  N   UNL     1      40.679 -15.108   4.852  1.00  0.00    -0.054 N 
HETATM    3  H   UNL     1      41.269 -15.614   5.529  1.00  0.00     0.278 HD
HETATM    4  H   UNL     1      39.778 -15.593   4.814  1.00  0.00     0.278 HD
BRANCH   2   5
HETATM    5  C   UNL     1      40.489 -13.745   5.425  1.00  0.00     0.272 C 
BRANCH   5   6
HETATM    6  C   UNL     1      41.810 -13.052   5.588  1.00  0.00    -0.033 A 
HETATM    7  C   UNL     1      42.107 -11.905   4.835  1.00  0.00     0.011 A 
HETATM    8  C   UNL     1      43.348 -11.270   4.963  1.00  0.00     0.037 A 
HETATM    9  C   UNL     1      44.306 -11.773   5.842  1.00  0.00     0.068 A 
HETATM   10  C   UNL     1      44.016 -12.920   6.582  1.00  0.00     0.037 A 
HETATM   11  C   UNL     1      42.781 -13.560   6.460  1.00  0.00     0.011 A 
BRANCH   9  12
HETATM   12  O   UNL     1      45.548 -11.251   6.064  1.00  0.00    -0.356 OA
HETATM   13  C   UNL     1      45.864 -10.874   7.399  1.00  0.00     0.210 C 
ENDBRANCH   9  12
ENDBRANCH   5   6
ENDBRANCH   2   5
ENDBRANCH   1   2
BRANCH   1  14
HETATM   14  C   UNL     1      40.418 -15.005   2.358  1.00  0.00     0.259 C 
HETATM   15  N   UNL     1      40.756 -14.041   1.439  1.00  0.00    -0.304 N 
HETATM   16  H   UNL     1      41.594 -13.478   1.507  1.00  0.00     0.171 HD
HETATM   17  O   UNL     1      39.394 -15.692   2.377  1.00  0.00    -0.270 OA
BRANCH  15  18
HETATM   18  C   UNL     1      40.008 -13.842   0.310  1.00  0.00     0.172 A 
HETATM   19  S   UNL     1      39.254 -12.315   0.224  1.00  0.00    -0.062 SA
HETATM   20  C   UNL     1      38.603 -12.750  -1.304  1.00  0.00     0.072 A 
HETATM   21  C   UNL     1      39.012 -14.025  -1.631  1.00  0.00     0.126 A 
HETATM   22  N   UNL     1      39.825 -14.647  -0.702  1.00  0.00    -0.236 NA
ENDBRANCH  15  18
ENDBRANCH   1  14
BRANCH   1  23
HETATM   23  C   UNL     1      42.312 -16.415   3.447  1.00  0.00    -0.019 A 
HETATM   24  C   UNL     1      43.163 -16.715   4.526  1.00  0.00     0.010 A 
HETATM   25  C   UNL     1      43.977 -17.848   4.495  1.00  0.00     0.001 A 
HETATM   26  C   UNL     1      43.948 -18.699   3.394  1.00  0.00     0.000 A 
HETATM   27  C   UNL     1      43.105 -18.421   2.321  1.00  0.00     0.001 A 
HETATM   28  C   UNL     1      42.288 -17.290   2.346  1.00  0.00     0.010 A 
ENDBRANCH   1  23
TORSDOF 7
ENDMDL
MODEL 2
REMARK VINA RESULT:      -7.4      1.549      1.890
REMARK  7 active torsions:
REMARK  status: ('A' for Active; 'I' for Inactive)
REMARK    1  A    between atoms: O_2  and  C_3 
REMARK    2  A    between atoms: C_6  and  C_7 
REMARK    3  A    between atoms: C_7  and  N_8 
REMARK    4  A    between atoms: N_8  and  C_11 
REMARK    5  A    between atoms: C_11  and  C_12 
REMARK    6  A    between atoms: C_11  and  C_20 
REMARK       I    between atoms: C_12  and  N_13 
REMARK    7  A    between atoms: N_13  and  C_14 
ROOT
HETATM    1  C   UNL     1      42.712 -16.526   3.570  1.00  0.00     0.310 C 
ENDROOT
BRANCH   1   2
HETATM    2  N   UNL     1      41.503 -16.416   4.479  1.00  0.00    -0.054 N 
HETATM    3  H   UNL     1      41.072 -17.354   4.478  1.00  0.00     0.278 HD
HETATM    4  H   UNL     1      40.809 -15.764   4.102  1.00  0.00     0.278 HD
BRANCH   2   5
HETATM    5  C   UNL     1      41.763 -16.096   5.911  1.00  0.00     0.272 C 
BRANCH   5   6
HETATM    6  C   UNL     1      42.340 -14.717   6.047  1.00  0.00    -0.033 A 
HETATM    7  C   UNL     1      41.658 -13.608   5.523  1.00  0.00     0.011 A 
HETATM    8  C   UNL     1      42.204 -12.323   5.623  1.00  0.00     0.037 A 
HETATM    9  C   UNL     1      43.435 -12.130   6.246  1.00  0.00     0.068 A 
HETATM   10  C   UNL     1      44.120 -13.234   6.757  1.00  0.00     0.037 A 
HETATM   11  C   UNL     1      43.583 -14.519   6.661  1.00  0.00     0.011 A 
BRANCH   9  12
HETATM   12  O   UNL     1      44.076 -10.936   6.413  1.00  0.00    -0.356 OA
HETATM   13  C   UNL     1      45.462 -10.982   6.729  1.00  0.00     0.210 C 
ENDBRANCH   9  12
ENDBRANCH   5   6
ENDBRANCH   2   5
ENDBRANCH   1   2
BRANCH   1  14
HETATM   14  C   UNL     1      42.488 -15.685   2.290  1.00  0.00     0.259 C 
HETATM   15  N   UNL     1      41.198 -15.267   2.066  1.00  0.00    -0.304 N 
HETATM   16  H   UNL     1      40.427 -15.490   2.685  1.00  0.00     0.171 HD
HETATM   17  O   UNL     1      43.467 -15.505   1.562  1.00  0.00    -0.270 OA
BRANCH  15  18
HETATM   18  C   UNL     1      40.890 -14.438   1.022  1.00  0.00     0.172 A 
HETATM   19  S   UNL     1      41.343 -12.812   1.255  1.00  0.00    -0.062 SA
HETATM   20  C   UNL     1      40.731 -12.443  -0.306  1.00  0.00     0.072 A 
HETATM   21  C   UNL     1      40.229 -13.589  -0.885  1.00  0.00     0.126 A 
HETATM   22  N   UNL     1      40.328 -14.736  -0.119  1.00  0.00    -0.236 NA
ENDBRANCH  15  18
ENDBRANCH   1  14
BRANCH   1  23
HETATM   23  C   UNL     1      43.150 -17.961   3.360  1.00  0.00    -0.019 A 
HETATM   24  C   UNL     1      43.844 -18.626   4.386  1.00  0.00     0.010 A 
HETATM   25  C   UNL     1      44.230 -19.958   4.235  1.00  0.00     0.001 A 
HETATM   26  C   UNL     1      43.922 -20.646   3.064  1.00  0.00     0.000 A 
HETATM   27  C   UNL     1      43.226 -20.005   2.042  1.00  0.00     0.001 A 
HETATM   28  C   UNL     1      42.838 -18.673   2.188  1.00  0.00     0.010 A 
ENDBRANCH   1  23
TORSDOF 7
ENDMDL
MODEL 3
REMARK VINA RESULT:      -7.3      2.546      6.679
REMARK  7 active torsions:
REMARK  status: ('A' for Active; 'I' for Inactive)
REMARK    1  A    between atoms: O_2  and  C_3 
REMARK    2  A    between atoms: C_6  and  C_7 
REMARK    3  A    between atoms: C_7  and  N_8 
REMARK    4  A    between atoms: N_8  and  C_11 
REMARK    5  A    between atoms: C_11  and  C_12 
REMARK    6  A    between atoms: C_11  and  C_20 
REMARK       I    between atoms: C_12  and  N_13 
REMARK    7  A    between atoms: N_13  and  C_14 
ROOT
HETATM    1  C   UNL     1      41.921 -15.122   3.588  1.00  0.00     0.310 C 
ENDROOT
BRANCH   1   2
HETATM    2  N   UNL     1      42.071 -14.260   2.349  1.00  0.00    -0.054 N 
HETATM    3  H   UNL     1      42.149 -14.921   1.561  1.00  0.00     0.278 HD
HETATM    4  H   UNL     1      42.937 -13.715   2.374  1.00  0.00     0.278 HD
BRANCH   2   5
HETATM    5  C   UNL     1      40.928 -13.365   2.009  1.00  0.00     0.272 C 
BRANCH   5   6
HETATM    6  C   UNL     1      40.560 -13.505   0.561  1.00  0.00    -0.033 A 
HETATM    7  C   UNL     1      40.845 -12.473  -0.347  1.00  0.00     0.011 A 
HETATM    8  C   UNL     1      40.481 -12.586  -1.693  1.00  0.00     0.037 A 
HETATM    9  C   UNL     1      39.827 -13.730  -2.149  1.00  0.00     0.068 A 
HETATM   10  C   UNL     1      39.533 -14.752  -1.245  1.00  0.00     0.037 A 
HETATM   11  C   UNL     1      39.892 -14.646   0.100  1.00  0.00     0.011 A 
BRANCH   9  12
HETATM   12  O   UNL     1      39.421 -13.969  -3.430  1.00  0.00    -0.356 OA
HETATM   13  C   UNL     1      38.227 -14.723  -3.603  1.00  0.00     0.210 C 
ENDBRANCH   9  12
ENDBRANCH   5   6
ENDBRANCH   2   5
ENDBRANCH   1   2
BRANCH   1  14
HETATM   14  C   UNL     1      42.214 -14.282   4.854  1.00  0.00     0.259 C 
HETATM   15  N   UNL     1      43.241 -13.375   4.747  1.00  0.00    -0.304 N 
HETATM   16  H   UNL     1      43.788 -13.253   3.903  1.00  0.00     0.171 HD
HETATM   17  O   UNL     1      41.539 -14.530   5.856  1.00  0.00    -0.270 OA
BRANCH  15  18
HETATM   18  C   UNL     1      43.533 -12.508   5.764  1.00  0.00     0.172 A 
HETATM   19  S   UNL     1      42.685 -11.030   5.697  1.00  0.00    -0.062 SA
HETATM   20  C   UNL     1      43.466 -10.544   7.146  1.00  0.00     0.072 A 
HETATM   21  C   UNL     1      44.312 -11.547   7.571  1.00  0.00     0.126 A 
HETATM   22  N   UNL     1      44.343 -12.677   6.775  1.00  0.00    -0.236 NA
ENDBRANCH  15  18
ENDBRANCH   1  14
BRANCH   1  23
HETATM   23  C   UNL     1      42.664 -16.437   3.470  1.00  0.00    -0.019 A 
HETATM   24  C   UNL     1      43.523 -16.838   4.509  1.00  0.00     0.010 A 
HETATM   25  C   UNL     1      44.194 -18.060   4.444  1.00  0.00     0.001 A 
HETATM   26  C   UNL     1      44.012 -18.899   3.349  1.00  0.00     0.000 A 
HETATM   27  C   UNL     1      43.158 -18.522   2.316  1.00  0.00     0.001 A 
HETATM   28  C   UNL     1      42.484 -17.301   2.375  1.00  0.00     0.010 A 
ENDBRANCH   1  23
TORSDOF 7
ENDMDL
MODEL 4
REMARK VINA RESULT:      -7.3      2.900      6.755
REMARK  7 active torsions:
REMARK  status: ('A' for Active; 'I' for Inactive)
REMARK    1  A    between atoms: O_2  and  C_3 
REMARK    2  A    between atoms: C_6  and  C_7 
REMARK    3  A    between atoms: C_7  and  N_8 
REMARK    4  A    between atoms: N_8  and  C_11 
REMARK    5  A    between atoms: C_11  and  C_12 
REMARK    6  A    between atoms: C_11  and  C_20 
REMARK       I    between atoms: C_12  and  N_13 
REMARK    7  A    between atoms: N_13  and  C_14 
ROOT
HETATM    1  C   UNL     1      42.074 -13.963   4.690  1.00  0.00     0.310 C 
ENDROOT
BRANCH   1   2
HETATM    2  N   UNL     1      41.353 -12.820   4.001  1.00  0.00    -0.054 N 
HETATM    3  H   UNL     1      41.907 -12.615   3.155  1.00  0.00     0.278 HD
HETATM    4  H   UNL     1      41.357 -11.973   4.578  1.00  0.00     0.278 HD
BRANCH   2   5
HETATM    5  C   UNL     1      39.969 -13.088   3.520  1.00  0.00     0.272 C 
BRANCH   5   6
HETATM    6  C   UNL     1      39.972 -13.398   2.051  1.00  0.00    -0.033 A 
HETATM    7  C   UNL     1      39.886 -14.727   1.606  1.00  0.00     0.011 A 
HETATM    8  C   UNL     1      39.915 -15.025   0.239  1.00  0.00     0.037 A 
HETATM    9  C   UNL     1      40.032 -14.001  -0.699  1.00  0.00     0.068 A 
HETATM   10  C   UNL     1      40.129 -12.680  -0.258  1.00  0.00     0.037 A 
HETATM   11  C   UNL     1      40.101 -12.375   1.104  1.00  0.00     0.011 A 
BRANCH   9  12
HETATM   12  O   UNL     1      40.069 -14.152  -2.056  1.00  0.00    -0.356 OA
HETATM   13  C   UNL     1      39.974 -12.970  -2.843  1.00  0.00     0.210 C 
ENDBRANCH   9  12
ENDBRANCH   5   6
ENDBRANCH   2   5
ENDBRANCH   1   2
BRANCH   1  14
HETATM   14  C   UNL     1      43.145 -13.405   5.657  1.00  0.00     0.259 C 
HETATM   15  N   UNL     1      43.503 -12.092   5.462  1.00  0.00    -0.304 N 
HETATM   16  H   UNL     1      43.107 -11.512   4.732  1.00  0.00     0.171 HD
HETATM   17  O   UNL     1      43.616 -14.192   6.482  1.00  0.00    -0.270 OA
BRANCH  15  18
HETATM   18  C   UNL     1      44.368 -11.456   6.310  1.00  0.00     0.172 A 
HETATM   19  S   UNL     1      43.611 -10.505   7.505  1.00  0.00    -0.062 SA
HETATM   20  C   UNL     1      45.159 -10.101   8.129  1.00  0.00     0.072 A 
HETATM   21  C   UNL     1      46.133 -10.725   7.379  1.00  0.00     0.126 A 
HETATM   22  N   UNL     1      45.672 -11.508   6.337  1.00  0.00    -0.236 NA
ENDBRANCH  15  18
ENDBRANCH   1  14
BRANCH   1  23
HETATM   23  C   UNL     1      42.540 -15.024   3.715  1.00  0.00    -0.019 A 
HETATM   24  C   UNL     1      42.215 -16.371   3.954  1.00  0.00     0.010 A 
HETATM   25  C   UNL     1      42.601 -17.365   3.055  1.00  0.00     0.001 A 
HETATM   26  C   UNL     1      43.308 -17.031   1.904  1.00  0.00     0.000 A 
HETATM   27  C   UNL     1      43.631 -15.701   1.647  1.00  0.00     0.001 A 
HETATM   28  C   UNL     1      43.247 -14.701   2.542  1.00  0.00     0.010 A 
ENDBRANCH   1  23
TORSDOF 7
ENDMDL
MODEL 5
REMARK VINA RESULT:      -7.2      1.564      2.183
REMARK  7 active torsions:
REMARK  status: ('A' for Active; 'I' for Inactive)
REMARK    1  A    between atoms: O_2  and  C_3 
REMARK    2  A    between atoms: C_6  and  C_7 
REMARK    3  A    between atoms: C_7  and  N_8 
REMARK    4  A    between atoms: N_8  and  C_11 
REMARK    5  A    between atoms: C_11  and  C_12 
REMARK    6  A    between atoms: C_11  and  C_20 
REMARK       I    between atoms: C_12  and  N_13 
REMARK    7  A    between atoms: N_13  and  C_14 
ROOT
HETATM    1  C   UNL     1      42.296 -13.963   2.161  1.00  0.00     0.310 C 
ENDROOT
BRANCH   1   2
HETATM    2  N   UNL     1      42.231 -12.861   3.202  1.00  0.00    -0.054 N 
HETATM    3  H   UNL     1      42.232 -13.344   4.114  1.00  0.00     0.278 HD
HETATM    4  H   UNL     1      41.354 -12.337   3.138  1.00  0.00     0.278 HD
BRANCH   2   5
HETATM    5  C   UNL     1      43.378 -11.911   3.251  1.00  0.00     0.272 C 
BRANCH   5   6
HETATM    6  C   UNL     1      43.837 -11.709   4.665  1.00  0.00    -0.033 A 
HETATM    7  C   UNL     1      45.196 -11.505   4.948  1.00  0.00     0.011 A 
HETATM    8  C   UNL     1      45.634 -11.342   6.267  1.00  0.00     0.037 A 
HETATM    9  C   UNL     1      44.721 -11.383   7.319  1.00  0.00     0.068 A 
HETATM   10  C   UNL     1      43.369 -11.598   7.040  1.00  0.00     0.037 A 
HETATM   11  C   UNL     1      42.925 -11.761   5.727  1.00  0.00     0.011 A 
BRANCH   9  12
HETATM   12  O   UNL     1      45.012 -11.237   8.645  1.00  0.00    -0.356 OA
HETATM   13  C   UNL     1      44.163 -10.385   9.406  1.00  0.00     0.210 C 
ENDBRANCH   9  12
ENDBRANCH   5   6
ENDBRANCH   2   5
ENDBRANCH   1   2
BRANCH   1  14
HETATM   14  C   UNL     1      40.986 -13.988   1.338  1.00  0.00     0.259 C 
HETATM   15  N   UNL     1      41.053 -13.419   0.089  1.00  0.00    -0.304 N 
HETATM   16  H   UNL     1      41.895 -12.999  -0.285  1.00  0.00     0.171 HD
HETATM   17  O   UNL     1      39.991 -14.468   1.887  1.00  0.00    -0.270 OA
BRANCH  15  18
HETATM   18  C   UNL     1      39.990 -13.465  -0.772  1.00  0.00     0.172 A 
HETATM   19  S   UNL     1      38.952 -12.115  -0.683  1.00  0.00    -0.062 SA
HETATM   20  C   UNL     1      37.993 -12.801  -1.930  1.00  0.00     0.072 A 
HETATM   21  C   UNL     1      38.539 -14.006  -2.320  1.00  0.00     0.126 A 
HETATM   22  N   UNL     1      39.691 -14.381  -1.654  1.00  0.00    -0.236 NA
ENDBRANCH  15  18
ENDBRANCH   1  14
BRANCH   1  23
HETATM   23  C   UNL     1      42.745 -15.285   2.746  1.00  0.00    -0.019 A 
HETATM   24  C   UNL     1      42.935 -16.387   1.893  1.00  0.00     0.010 A 
HETATM   25  C   UNL     1      43.381 -17.608   2.398  1.00  0.00     0.001 A 
HETATM   26  C   UNL     1      43.651 -17.746   3.757  1.00  0.00     0.000 A 
HETATM   27  C   UNL     1      43.478 -16.662   4.615  1.00  0.00     0.001 A 
HETATM   28  C   UNL     1      43.032 -15.438   4.115  1.00  0.00     0.010 A 
ENDBRANCH   1  23
TORSDOF 7
ENDMDL
MODEL 6
REMARK VINA RESULT:      -7.1     15.559     17.153
REMARK  7 active torsions:
REMARK  status: ('A' for Active; 'I' for Inactive)
REMARK    1  A    between atoms: O_2  and  C_3 
REMARK    2  A    between atoms: C_6  and  C_7 
REMARK    3  A    between atoms: C_7  and  N_8 
REMARK    4  A    between atoms: N_8  and  C_11 
REMARK    5  A    between atoms: C_11  and  C_12 
REMARK    6  A    between atoms: C_11  and  C_20 
REMARK       I    between atoms: C_12  and  N_13 
REMARK    7  A    between atoms: N_13  and  C_14 
ROOT
HETATM    1  C   UNL     1      44.332 -28.935   0.274  1.00  0.00     0.310 C 
ENDROOT
BRANCH   1   2
HETATM    2  N   UNL     1      45.496 -29.613   0.973  1.00  0.00    -0.054 N 
HETATM    3  H   UNL     1      45.875 -30.284   0.287  1.00  0.00     0.278 HD
HETATM    4  H   UNL     1      45.182 -30.153   1.783  1.00  0.00     0.278 HD
BRANCH   2   5
HETATM    5  C   UNL     1      46.644 -28.747   1.364  1.00  0.00     0.272 C 
BRANCH   5   6
HETATM    6  C   UNL     1      47.915 -29.239   0.735  1.00  0.00    -0.033 A 
HETATM    7  C   UNL     1      48.126 -29.096  -0.645  1.00  0.00     0.011 A 
HETATM    8  C   UNL     1      49.297 -29.577  -1.241  1.00  0.00     0.037 A 
HETATM    9  C   UNL     1      50.269 -30.208  -0.468  1.00  0.00     0.068 A 
HETATM   10  C   UNL     1      50.055 -30.362   0.903  1.00  0.00     0.037 A 
HETATM   11  C   UNL     1      48.890 -29.885   1.505  1.00  0.00     0.011 A 
BRANCH   9  12
HETATM   12  O   UNL     1      51.452 -30.718  -0.921  1.00  0.00    -0.356 OA
HETATM   13  C   UNL     1      51.684 -30.673  -2.324  1.00  0.00     0.210 C 
ENDBRANCH   9  12
ENDBRANCH   5   6
ENDBRANCH   2   5
ENDBRANCH   1   2
BRANCH   1  14
HETATM   14  C   UNL     1      42.996 -29.415   0.890  1.00  0.00     0.259 C 
HETATM   15  N   UNL     1      43.006 -30.677   1.434  1.00  0.00    -0.304 N 
HETATM   16  H   UNL     1      43.824 -31.274   1.436  1.00  0.00     0.171 HD
HETATM   17  O   UNL     1      42.032 -28.651   0.798  1.00  0.00    -0.270 OA
BRANCH  15  18
HETATM   18  C   UNL     1      41.916 -31.177   2.092  1.00  0.00     0.172 A 
HETATM   19  S   UNL     1      41.870 -30.815   3.758  1.00  0.00    -0.062 SA
HETATM   20  C   UNL     1      40.375 -31.650   3.874  1.00  0.00     0.072 A 
HETATM   21  C   UNL     1      40.024 -32.139   2.633  1.00  0.00     0.126 A 
HETATM   22  N   UNL     1      40.912 -31.860   1.610  1.00  0.00    -0.236 NA
ENDBRANCH  15  18
ENDBRANCH   1  14
BRANCH   1  23
HETATM   23  C   UNL     1      44.439 -29.011  -1.234  1.00  0.00    -0.019 A 
HETATM   24  C   UNL     1      44.985 -27.925  -1.942  1.00  0.00     0.010 A 
HETATM   25  C   UNL     1      45.128 -27.979  -3.328  1.00  0.00     0.001 A 
HETATM   26  C   UNL     1      44.737 -29.118  -4.026  1.00  0.00     0.000 A 
HETATM   27  C   UNL     1      44.203 -30.207  -3.341  1.00  0.00     0.001 A 
HETATM   28  C   UNL     1      44.058 -30.158  -1.954  1.00  0.00     0.010 A 
ENDBRANCH   1  23
TORSDOF 7
ENDMDL
MODEL 7
REMARK VINA RESULT:      -7.1      2.848      6.885
REMARK  7 active torsions:
REMARK  status: ('A' for Active; 'I' for Inactive)
REMARK    1  A    between atoms: O_2  and  C_3 
REMARK    2  A    between atoms: C_6  and  C_7 
REMARK    3  A    between atoms: C_7  and  N_8 
REMARK    4  A    between atoms: N_8  and  C_11 
REMARK    5  A    between atoms: C_11  and  C_12 
REMARK    6  A    between atoms: C_11  and  C_20 
REMARK       I    between atoms: C_12  and  N_13 
REMARK    7  A    between atoms: N_13  and  C_14 
ROOT
HETATM    1  C   UNL     1      42.356 -14.905   5.899  1.00  0.00     0.310 C 
ENDROOT
BRANCH   1   2
HETATM    2  N   UNL     1      42.020 -14.109   4.653  1.00  0.00    -0.054 N 
HETATM    3  H   UNL     1      42.388 -14.664   3.864  1.00  0.00     0.278 HD
HETATM    4  H   UNL     1      42.506 -13.208   4.642  1.00  0.00     0.278 HD
BRANCH   2   5
HETATM    5  C   UNL     1      40.574 -13.901   4.355  1.00  0.00     0.272 C 
BRANCH   5   6
HETATM    6  C   UNL     1      40.290 -14.167   2.906  1.00  0.00    -0.033 A 
HETATM    7  C   UNL     1      40.205 -15.485   2.430  1.00  0.00     0.011 A 
HETATM    8  C   UNL     1      39.966 -15.740   1.075  1.00  0.00     0.037 A 
HETATM    9  C   UNL     1      39.811 -14.683   0.179  1.00  0.00     0.068 A 
HETATM   10  C   UNL     1      39.908 -13.372   0.649  1.00  0.00     0.037 A 
HETATM   11  C   UNL     1      40.146 -13.110   1.999  1.00  0.00     0.011 A 
BRANCH   9  12
HETATM   12  O   UNL     1      39.573 -14.792  -1.161  1.00  0.00    -0.356 OA
HETATM   13  C   UNL     1      38.772 -13.781  -1.761  1.00  0.00     0.210 C 
ENDBRANCH   9  12
ENDBRANCH   5   6
ENDBRANCH   2   5
ENDBRANCH   1   2
BRANCH   1  14
HETATM   14  C   UNL     1      43.197 -14.039   6.867  1.00  0.00     0.259 C 
HETATM   15  N   UNL     1      43.700 -12.872   6.343  1.00  0.00    -0.304 N 
HETATM   16  H   UNL     1      43.546 -12.582   5.385  1.00  0.00     0.171 HD
HETATM   17  O   UNL     1      43.384 -14.490   8.000  1.00  0.00    -0.270 OA
BRANCH  15  18
HETATM   18  C   UNL     1      44.378 -11.976   7.124  1.00  0.00     0.172 A 
HETATM   19  S   UNL     1      45.787 -11.340   6.406  1.00  0.00    -0.062 SA
HETATM   20  C   UNL     1      46.041 -10.383   7.810  1.00  0.00     0.072 A 
HETATM   21  C   UNL     1      45.030 -10.621   8.716  1.00  0.00     0.126 A 
HETATM   22  N   UNL     1      44.072 -11.534   8.315  1.00  0.00    -0.236 NA
ENDBRANCH  15  18
ENDBRANCH   1  14
BRANCH   1  23
HETATM   23  C   UNL     1      42.908 -16.278   5.577  1.00  0.00    -0.019 A 
HETATM   24  C   UNL     1      43.461 -16.518   4.307  1.00  0.00     0.010 A 
HETATM   25  C   UNL     1      44.008 -17.763   3.994  1.00  0.00     0.001 A 
HETATM   26  C   UNL     1      44.018 -18.780   4.944  1.00  0.00     0.000 A 
HETATM   27  C   UNL     1      43.482 -18.557   6.210  1.00  0.00     0.001 A 
HETATM   28  C   UNL     1      42.934 -17.314   6.529  1.00  0.00     0.010 A 
ENDBRANCH   1  23
TORSDOF 7
ENDMDL
MODEL 8
REMARK VINA RESULT:      -6.9      2.820      5.295
REMARK  7 active torsions:
REMARK  status: ('A' for Active; 'I' for Inactive)
REMARK    1  A    between atoms: O_2  and  C_3 
REMARK    2  A    between atoms: C_6  and  C_7 
REMARK    3  A    between atoms: C_7  and  N_8 
REMARK    4  A    between atoms: N_8  and  C_11 
REMARK    5  A    between atoms: C_11  and  C_12 
REMARK    6  A    between atoms: C_11  and  C_20 
REMARK       I    between atoms: C_12  and  N_13 
REMARK    7  A    between atoms: N_13  and  C_14 
ROOT
HETATM    1  C   UNL     1      40.764 -14.838   1.823  1.00  0.00     0.310 C 
ENDROOT
BRANCH   1   2
HETATM    2  N   UNL     1      42.045 -15.384   1.223  1.00  0.00    -0.054 N 
HETATM    3  H   UNL     1      42.284 -14.741   0.452  1.00  0.00     0.278 HD
HETATM    4  H   UNL     1      41.901 -16.310   0.810  1.00  0.00     0.278 HD
BRANCH   2   5
HETATM    5  C   UNL     1      43.245 -15.413   2.107  1.00  0.00     0.272 C 
BRANCH   5   6
HETATM    6  C   UNL     1      43.454 -16.789   2.668  1.00  0.00    -0.033 A 
HETATM    7  C   UNL     1      43.985 -16.957   3.956  1.00  0.00     0.011 A 
HETATM    8  C   UNL     1      44.208 -18.238   4.474  1.00  0.00     0.037 A 
HETATM    9  C   UNL     1      43.904 -19.365   3.713  1.00  0.00     0.068 A 
HETATM   10  C   UNL     1      43.387 -19.200   2.426  1.00  0.00     0.037 A 
HETATM   11  C   UNL     1      43.163 -17.926   1.902  1.00  0.00     0.011 A 
BRANCH   9  12
HETATM   12  O   UNL     1      44.069 -20.665   4.097  1.00  0.00    -0.356 OA
HETATM   13  C   UNL     1      44.027 -20.939   5.493  1.00  0.00     0.210 C 
ENDBRANCH   9  12
ENDBRANCH   5   6
ENDBRANCH   2   5
ENDBRANCH   1   2
BRANCH   1  14
HETATM   14  C   UNL     1      40.448 -13.449   1.218  1.00  0.00     0.259 C 
HETATM   15  N   UNL     1      39.125 -13.075   1.235  1.00  0.00    -0.304 N 
HETATM   16  H   UNL     1      38.388 -13.660   1.609  1.00  0.00     0.171 HD
HETATM   17  O   UNL     1      41.394 -12.823   0.734  1.00  0.00    -0.270 OA
BRANCH  15  18
HETATM   18  C   UNL     1      38.731 -11.833   0.818  1.00  0.00     0.172 A 
HETATM   19  S   UNL     1      38.256 -11.757  -0.818  1.00  0.00    -0.062 SA
HETATM   20  C   UNL     1      37.911 -10.087  -0.613  1.00  0.00     0.072 A 
HETATM   21  C   UNL     1      38.183  -9.718   0.687  1.00  0.00     0.126 A 
HETATM   22  N   UNL     1      38.649 -10.727   1.508  1.00  0.00    -0.236 NA
ENDBRANCH  15  18
ENDBRANCH   1  14
BRANCH   1  23
HETATM   23  C   UNL     1      40.748 -14.929   3.335  1.00  0.00    -0.019 A 
HETATM   24  C   UNL     1      40.417 -16.151   3.948  1.00  0.00     0.010 A 
HETATM   25  C   UNL     1      40.428 -16.274   5.337  1.00  0.00     0.001 A 
HETATM   26  C   UNL     1      40.776 -15.186   6.133  1.00  0.00     0.000 A 
HETATM   27  C   UNL     1      41.115 -13.972   5.542  1.00  0.00     0.001 A 
HETATM   28  C   UNL     1      41.106 -13.842   4.152  1.00  0.00     0.010 A 
ENDBRANCH   1  23
TORSDOF 7
ENDMDL
MODEL 9
REMARK VINA RESULT:      -6.9     15.622     17.352
REMARK  7 active torsions:
REMARK  status: ('A' for Active; 'I' for Inactive)
REMARK    1  A    between atoms: O_2  and  C_3 
REMARK    2  A    between atoms: C_6  and  C_7 
REMARK    3  A    between atoms: C_7  and  N_8 
REMARK    4  A    between atoms: N_8  and  C_11 
REMARK    5  A    between atoms: C_11  and  C_12 
REMARK    6  A    between atoms: C_11  and  C_20 
REMARK       I    between atoms: C_12  and  N_13 
REMARK    7  A    between atoms: N_13  and  C_14 
ROOT
HETATM    1  C   UNL     1      48.192 -29.852   1.272  1.00  0.00     0.310 C 
ENDROOT
BRANCH   1   2
HETATM    2  N   UNL     1      48.863 -28.911   0.291  1.00  0.00    -0.054 N 
HETATM    3  H   UNL     1      49.815 -28.762   0.660  1.00  0.00     0.278 HD
HETATM    4  H   UNL     1      48.401 -27.998   0.271  1.00  0.00     0.278 HD
BRANCH   2   5
HETATM    5  C   UNL     1      49.046 -29.408  -1.102  1.00  0.00     0.272 C 
BRANCH   5   6
HETATM    6  C   UNL     1      47.758 -29.322  -1.867  1.00  0.00    -0.033 A 
HETATM    7  C   UNL     1      47.005 -28.137  -1.858  1.00  0.00     0.011 A 
HETATM    8  C   UNL     1      45.790 -28.059  -2.547  1.00  0.00     0.037 A 
HETATM    9  C   UNL     1      45.311 -29.162  -3.251  1.00  0.00     0.068 A 
HETATM   10  C   UNL     1      46.053 -30.345  -3.251  1.00  0.00     0.037 A 
HETATM   11  C   UNL     1      47.266 -30.431  -2.566  1.00  0.00     0.011 A 
BRANCH   9  12
HETATM   12  O   UNL     1      44.148 -29.220  -3.965  1.00  0.00    -0.356 OA
HETATM   13  C   UNL     1      44.112 -30.107  -5.077  1.00  0.00     0.210 C 
ENDBRANCH   9  12
ENDBRANCH   5   6
ENDBRANCH   2   5
ENDBRANCH   1   2
BRANCH   1  14
HETATM   14  C   UNL     1      46.762 -29.351   1.590  1.00  0.00     0.259 C 
HETATM   15  N   UNL     1      45.743 -30.225   1.299  1.00  0.00    -0.304 N 
HETATM   16  H   UNL     1      45.896 -31.142   0.896  1.00  0.00     0.171 HD
HETATM   17  O   UNL     1      46.658 -28.202   2.027  1.00  0.00    -0.270 OA
BRANCH  15  18
HETATM   18  C   UNL     1      44.445 -29.937   1.622  1.00  0.00     0.172 A 
HETATM   19  S   UNL     1      43.521 -29.306   0.335  1.00  0.00    -0.062 SA
HETATM   20  C   UNL     1      42.160 -29.234   1.380  1.00  0.00     0.072 A 
HETATM   21  C   UNL     1      42.515 -29.699   2.629  1.00  0.00     0.126 A 
HETATM   22  N   UNL     1      43.829 -30.107   2.761  1.00  0.00    -0.236 NA
ENDBRANCH  15  18
ENDBRANCH   1  14
BRANCH   1  23
HETATM   23  C   UNL     1      49.070 -30.168   2.465  1.00  0.00    -0.019 A 
HETATM   24  C   UNL     1      48.482 -30.663   3.642  1.00  0.00     0.010 A 
HETATM   25  C   UNL     1      49.270 -30.996   4.744  1.00  0.00     0.001 A 
HETATM   26  C   UNL     1      50.653 -30.847   4.685  1.00  0.00     0.000 A 
HETATM   27  C   UNL     1      51.253 -30.367   3.523  1.00  0.00     0.001 A 
HETATM   28  C   UNL     1      50.470 -30.033   2.418  1.00  0.00     0.010 A 
ENDBRANCH   1  23
TORSDOF 7
ENDMDL
MODEL 10
REMARK VINA RESULT:      -6.8      2.362      5.089
REMARK  7 active torsions:
REMARK  status: ('A' for Active; 'I' for Inactive)
REMARK    1  A    between atoms: O_2  and  C_3 
REMARK    2  A    between atoms: C_6  and  C_7 
REMARK    3  A    between atoms: C_7  and  N_8 
REMARK    4  A    between atoms: N_8  and  C_11 
REMARK    5  A    between atoms: C_11  and  C_12 
REMARK    6  A    between atoms: C_11  and  C_20 
REMARK       I    between atoms: C_12  and  N_13 
REMARK    7  A    between atoms: N_13  and  C_14 
ROOT
HETATM    1  C   UNL     1      41.101 -14.178   2.079  1.00  0.00     0.310 C 
ENDROOT
BRANCH   1   2
HETATM    2  N   UNL     1      41.407 -12.914   2.860  1.00  0.00    -0.054 N 
HETATM    3  H   UNL     1      40.930 -12.154   2.350  1.00  0.00     0.278 HD
HETATM    4  H   UNL     1      42.408 -12.702   2.851  1.00  0.00     0.278 HD
BRANCH   2   5
HETATM    5  C   UNL     1      40.894 -12.844   4.257  1.00  0.00     0.272 C 
BRANCH   5   6
HETATM    6  C   UNL     1      42.011 -12.554   5.216  1.00  0.00    -0.033 A 
HETATM    7  C   UNL     1      42.633 -13.598   5.918  1.00  0.00     0.011 A 
HETATM    8  C   UNL     1      43.658 -13.332   6.833  1.00  0.00     0.037 A 
HETATM    9  C   UNL     1      44.072 -12.021   7.059  1.00  0.00     0.068 A 
HETATM   10  C   UNL     1      43.447 -10.980   6.371  1.00  0.00     0.037 A 
HETATM   11  C   UNL     1      42.424 -11.237   5.457  1.00  0.00     0.011 A 
BRANCH   9  12
HETATM   12  O   UNL     1      45.057 -11.625   7.918  1.00  0.00    -0.356 OA
HETATM   13  C   UNL     1      45.949 -10.614   7.461  1.00  0.00     0.210 C 
ENDBRANCH   9  12
ENDBRANCH   5   6
ENDBRANCH   2   5
ENDBRANCH   1   2
BRANCH   1  14
HETATM   14  C   UNL     1      42.241 -15.206   2.273  1.00  0.00     0.259 C 
HETATM   15  N   UNL     1      41.941 -16.294   3.058  1.00  0.00    -0.304 N 
HETATM   16  H   UNL     1      41.038 -16.428   3.497  1.00  0.00     0.171 HD
HETATM   17  O   UNL     1      43.327 -14.941   1.751  1.00  0.00    -0.270 OA
BRANCH  15  18
HETATM   18  C   UNL     1      42.832 -17.318   3.226  1.00  0.00     0.172 A 
HETATM   19  S   UNL     1      43.718 -17.251   4.681  1.00  0.00    -0.062 SA
HETATM   20  C   UNL     1      44.507 -18.710   4.239  1.00  0.00     0.072 A 
HETATM   21  C   UNL     1      44.033 -19.137   3.017  1.00  0.00     0.126 A 
HETATM   22  N   UNL     1      43.065 -18.335   2.441  1.00  0.00    -0.236 NA
ENDBRANCH  15  18
ENDBRANCH   1  14
BRANCH   1  23
HETATM   23  C   UNL     1      40.694 -13.891   0.649  1.00  0.00    -0.019 A 
HETATM   24  C   UNL     1      39.900 -14.824  -0.042  1.00  0.00     0.010 A 
HETATM   25  C   UNL     1      39.481 -14.571  -1.349  1.00  0.00     0.001 A 
HETATM   26  C   UNL     1      39.840 -13.383  -1.979  1.00  0.00     0.000 A 
HETATM   27  C   UNL     1      40.618 -12.444  -1.306  1.00  0.00     0.001 A 
HETATM   28  C   UNL     1      41.040 -12.692   0.000  1.00  0.00     0.010 A 
ENDBRANCH   1  23
TORSDOF 7
ENDMDL
