MODEL 1
REMARK VINA RESULT:      -9.1      0.000      0.000
REMARK  5 active torsions:
REMARK  status: ('A' for Active; 'I' for Inactive)
REMARK    1  A    between atoms: C_7  and  C_8 
REMARK    2  A    between atoms: C_10  and  N_11 
REMARK       I    between atoms: N_11  and  C_12 
REMARK    3  A    between atoms: C_12  and  C_13 
REMARK    4  A    between atoms: C_15  and  O_16 
REMARK    5  A    between atoms: C_19  and  O_20 
ROOT
HETATM    1  C   UNL     1      44.507 -10.275   9.035  1.00  0.00     0.019 A 
HETATM    2  C   UNL     1      43.796 -11.171   8.215  1.00  0.00     0.045 A 
HETATM    3  C   UNL     1      44.386 -11.739   7.081  1.00  0.00     0.035 A 
HETATM    4  C   UNL     1      45.702 -11.389   6.757  1.00  0.00     0.029 A 
HETATM    5  C   UNL     1      46.413 -10.483   7.547  1.00  0.00     0.003 A 
HETATM    6  C   UNL     1      45.819  -9.934   8.682  1.00  0.00     0.016 A 
ENDROOT
BRANCH   3   7
HETATM    7  N   UNL     1      43.743 -12.683   6.245  1.00  0.00    -0.323 N 
HETATM    8  C   UNL     1      43.352 -13.967   6.584  1.00  0.00     0.256 C 
HETATM    9  O   UNL     1      43.448 -14.472   7.699  1.00  0.00    -0.267 OA
HETATM   10  H   UNL     1      43.596 -12.373   5.297  1.00  0.00     0.169 HD
BRANCH   8  11
HETATM   11  C   UNL     1      42.774 -14.812   5.489  1.00  0.00     0.037 A 
HETATM   12  C   UNL     1      43.463 -15.995   5.165  1.00  0.00     0.054 A 
HETATM   13  C   UNL     1      42.993 -16.838   4.163  1.00  0.00     0.071 A 
HETATM   14  C   UNL     1      41.838 -16.485   3.466  1.00  0.00     0.073 A 
HETATM   15  C   UNL     1      41.134 -15.319   3.777  1.00  0.00     0.071 A 
HETATM   16  C   UNL     1      41.595 -14.488   4.801  1.00  0.00     0.054 A 
BRANCH  13  17
HETATM   17  O   UNL     1      43.569 -18.015   3.768  1.00  0.00    -0.356 OA
HETATM   18  C   UNL     1      43.217 -18.498   2.477  1.00  0.00     0.210 C 
ENDBRANCH  13  17
BRANCH  15  19
HETATM   19  O   UNL     1      40.013 -15.116   3.019  1.00  0.00    -0.356 OA
HETATM   20  C   UNL     1      40.002 -15.662   1.707  1.00  0.00     0.210 C 
ENDBRANCH  15  19
ENDBRANCH   8  11
ENDBRANCH   3   7
BRANCH   1  21
HETATM   21  C   UNL     1      43.922  -9.730  10.261  1.00  0.00     0.181 A 
HETATM   22  O   UNL     1      42.854 -10.412  10.787  1.00  0.00    -0.289 OA
HETATM   23  C   UNL     1      42.555  -9.731  11.928  1.00  0.00     0.106 A 
HETATM   24  C   UNL     1      43.443  -8.677  12.037  1.00  0.00     0.094 A 
HETATM   25  C   UNL     1      41.552 -10.022  12.841  1.00  0.00     0.040 A 
HETATM   26  C   UNL     1      43.353  -7.828  13.149  1.00  0.00     0.041 A 
HETATM   27  N   UNL     1      44.300  -8.675  10.964  1.00  0.00    -0.221 NA
HETATM   28  C   UNL     1      42.367  -8.094  14.121  1.00  0.00    -0.060 A 
HETATM   29  C   UNL     1      42.234  -7.196  15.318  1.00  0.00     0.048 C 
HETATM   30  C   UNL     1      41.475  -9.168  13.949  1.00  0.00     0.009 A 
ENDBRANCH   1  21
TORSDOF 5
ENDMDL
MODEL 2
REMARK VINA RESULT:      -9.1      0.462      2.060
REMARK  5 active torsions:
REMARK  status: ('A' for Active; 'I' for Inactive)
REMARK    1  A    between atoms: C_7  and  C_8 
REMARK    2  A    between atoms: C_10  and  N_11 
REMARK       I    between atoms: N_11  and  C_12 
REMARK    3  A    between atoms: C_12  and  C_13 
REMARK    4  A    between atoms: C_15  and  O_16 
REMARK    5  A    between atoms: C_19  and  O_20 
ROOT
HETATM    1  C   UNL     1      44.538 -10.241   9.048  1.00  0.00     0.019 A 
HETATM    2  C   UNL     1      43.861 -11.167   8.233  1.00  0.00     0.045 A 
HETATM    3  C   UNL     1      44.470 -11.718   7.102  1.00  0.00     0.035 A 
HETATM    4  C   UNL     1      45.771 -11.321   6.774  1.00  0.00     0.029 A 
HETATM    5  C   UNL     1      46.449 -10.384   7.557  1.00  0.00     0.003 A 
HETATM    6  C   UNL     1      45.836  -9.852   8.690  1.00  0.00     0.016 A 
ENDROOT
BRANCH   3   7
HETATM    7  N   UNL     1      43.862 -12.691   6.272  1.00  0.00    -0.323 N 
HETATM    8  C   UNL     1      43.427 -13.952   6.644  1.00  0.00     0.256 C 
HETATM    9  O   UNL     1      43.446 -14.404   7.785  1.00  0.00    -0.267 OA
HETATM   10  H   UNL     1      43.778 -12.424   5.303  1.00  0.00     0.169 HD
BRANCH   8  11
HETATM   11  C   UNL     1      42.902 -14.838   5.556  1.00  0.00     0.037 A 
HETATM   12  C   UNL     1      41.767 -14.388   4.859  1.00  0.00     0.054 A 
HETATM   13  C   UNL     1      41.217 -15.149   3.831  1.00  0.00     0.071 A 
HETATM   14  C   UNL     1      41.794 -16.378   3.515  1.00  0.00     0.073 A 
HETATM   15  C   UNL     1      42.927 -16.840   4.189  1.00  0.00     0.071 A 
HETATM   16  C   UNL     1      43.492 -16.062   5.203  1.00  0.00     0.054 A 
BRANCH  13  17
HETATM   17  O   UNL     1      40.126 -14.812   3.079  1.00  0.00    -0.356 OA
HETATM   18  C   UNL     1      39.915 -15.558   1.886  1.00  0.00     0.210 C 
ENDBRANCH  13  17
BRANCH  15  19
HETATM   19  O   UNL     1      43.388 -18.053   3.756  1.00  0.00    -0.356 OA
HETATM   20  C   UNL     1      44.246 -18.778   4.627  1.00  0.00     0.210 C 
ENDBRANCH  15  19
ENDBRANCH   8  11
ENDBRANCH   3   7
BRANCH   1  21
HETATM   21  C   UNL     1      43.935  -9.712  10.271  1.00  0.00     0.181 A 
HETATM   22  O   UNL     1      42.849 -10.391  10.764  1.00  0.00    -0.289 OA
HETATM   23  C   UNL     1      42.535  -9.728  11.911  1.00  0.00     0.106 A 
HETATM   24  C   UNL     1      43.432  -8.686  12.056  1.00  0.00     0.094 A 
HETATM   25  C   UNL     1      41.511 -10.024  12.799  1.00  0.00     0.040 A 
HETATM   26  C   UNL     1      43.329  -7.856  13.183  1.00  0.00     0.041 A 
HETATM   27  N   UNL     1      44.311  -8.674  11.001  1.00  0.00    -0.221 NA
HETATM   28  C   UNL     1      42.321  -8.129  14.130  1.00  0.00    -0.060 A 
HETATM   29  C   UNL     1      42.174  -7.251  15.340  1.00  0.00     0.048 C 
HETATM   30  C   UNL     1      41.421  -9.190  13.920  1.00  0.00     0.009 A 
ENDBRANCH   1  21
TORSDOF 5
ENDMDL
MODEL 3
REMARK VINA RESULT:      -8.6      1.758     10.008
REMARK  5 active torsions:
REMARK  status: ('A' for Active; 'I' for Inactive)
REMARK    1  A    between atoms: C_7  and  C_8 
REMARK    2  A    between atoms: C_10  and  N_11 
REMARK       I    between atoms: N_11  and  C_12 
REMARK    3  A    between atoms: C_12  and  C_13 
REMARK    4  A    between atoms: C_15  and  O_16 
REMARK    5  A    between atoms: C_19  and  O_20 
ROOT
HETATM    1  C   UNL     1      44.204 -11.974   6.674  1.00  0.00     0.019 A 
HETATM    2  C   UNL     1      43.556 -11.394   7.780  1.00  0.00     0.045 A 
HETATM    3  C   UNL     1      44.222 -10.500   8.624  1.00  0.00     0.035 A 
HETATM    4  C   UNL     1      45.563 -10.196   8.363  1.00  0.00     0.029 A 
HETATM    5  C   UNL     1      46.229 -10.781   7.283  1.00  0.00     0.003 A 
HETATM    6  C   UNL     1      45.550 -11.661   6.442  1.00  0.00     0.016 A 
ENDROOT
BRANCH   3   7
HETATM    7  N   UNL     1      43.613  -9.845   9.721  1.00  0.00    -0.323 N 
HETATM    8  C   UNL     1      43.496 -10.321  11.017  1.00  0.00     0.256 C 
HETATM    9  O   UNL     1      43.965 -11.376  11.434  1.00  0.00    -0.267 OA
HETATM   10  H   UNL     1      43.199  -8.952   9.501  1.00  0.00     0.169 HD
BRANCH   8  11
HETATM   11  C   UNL     1      42.719  -9.478  11.982  1.00  0.00     0.037 A 
HETATM   12  C   UNL     1      41.317  -9.535  11.892  1.00  0.00     0.054 A 
HETATM   13  C   UNL     1      40.520  -8.785  12.754  1.00  0.00     0.071 A 
HETATM   14  C   UNL     1      41.131  -7.958  13.695  1.00  0.00     0.073 A 
HETATM   15  C   UNL     1      42.522  -7.894  13.807  1.00  0.00     0.071 A 
HETATM   16  C   UNL     1      43.319  -8.667  12.957  1.00  0.00     0.054 A 
BRANCH  13  17
HETATM   17  O   UNL     1      39.152  -8.766  12.769  1.00  0.00    -0.356 OA
HETATM   18  C   UNL     1      38.531  -7.496  12.927  1.00  0.00     0.210 C 
ENDBRANCH  13  17
BRANCH  15  19
HETATM   19  O   UNL     1      42.973  -7.052  14.786  1.00  0.00    -0.356 OA
HETATM   20  C   UNL     1      42.006  -6.496  15.668  1.00  0.00     0.210 C 
ENDBRANCH  15  19
ENDBRANCH   8  11
ENDBRANCH   3   7
BRANCH   1  21
HETATM   21  C   UNL     1      43.496 -12.856   5.746  1.00  0.00     0.181 A 
HETATM   22  O   UNL     1      43.513 -14.196   6.041  1.00  0.00    -0.289 OA
HETATM   23  C   UNL     1      42.748 -14.760   5.065  1.00  0.00     0.106 A 
HETATM   24  C   UNL     1      42.311 -13.746   4.231  1.00  0.00     0.094 A 
HETATM   25  C   UNL     1      42.437 -16.103   4.912  1.00  0.00     0.040 A 
HETATM   26  C   UNL     1      41.481 -14.071   3.148  1.00  0.00     0.041 A 
HETATM   27  N   UNL     1      42.804 -12.540   4.664  1.00  0.00    -0.221 NA
HETATM   28  C   UNL     1      41.113 -15.419   2.962  1.00  0.00    -0.060 A 
HETATM   29  C   UNL     1      40.238 -15.804   1.804  1.00  0.00     0.048 C 
HETATM   30  C   UNL     1      41.605 -16.413   3.829  1.00  0.00     0.009 A 
ENDBRANCH   1  21
TORSDOF 5
ENDMDL
MODEL 4
REMARK VINA RESULT:      -8.6      2.211     10.156
REMARK  5 active torsions:
REMARK  status: ('A' for Active; 'I' for Inactive)
REMARK    1  A    between atoms: C_7  and  C_8 
REMARK    2  A    between atoms: C_10  and  N_11 
REMARK       I    between atoms: N_11  and  C_12 
REMARK    3  A    between atoms: C_12  and  C_13 
REMARK    4  A    between atoms: C_15  and  O_16 
REMARK    5  A    between atoms: C_19  and  O_20 
ROOT
HETATM    1  C   UNL     1      43.029 -13.565   4.705  1.00  0.00     0.019 A 
HETATM    2  C   UNL     1      43.028 -12.873   5.930  1.00  0.00     0.045 A 
HETATM    3  C   UNL     1      42.798 -11.495   5.984  1.00  0.00     0.035 A 
HETATM    4  C   UNL     1      42.582 -10.799   4.789  1.00  0.00     0.029 A 
HETATM    5  C   UNL     1      42.603 -11.467   3.562  1.00  0.00     0.003 A 
HETATM    6  C   UNL     1      42.820 -12.843   3.523  1.00  0.00     0.016 A 
ENDROOT
BRANCH   3   7
HETATM    7  N   UNL     1      42.735 -10.750   7.186  1.00  0.00    -0.323 N 
HETATM    8  C   UNL     1      43.790 -10.426   8.023  1.00  0.00     0.256 C 
HETATM    9  O   UNL     1      44.971 -10.686   7.815  1.00  0.00    -0.267 OA
HETATM   10  H   UNL     1      41.806 -10.465   7.456  1.00  0.00     0.169 HD
BRANCH   8  11
HETATM   11  C   UNL     1      43.451  -9.707   9.294  1.00  0.00     0.037 A 
HETATM   12  C   UNL     1      43.311  -8.310   9.218  1.00  0.00     0.054 A 
HETATM   13  C   UNL     1      42.995  -7.566  10.352  1.00  0.00     0.071 A 
HETATM   14  C   UNL     1      42.840  -8.223  11.572  1.00  0.00     0.073 A 
HETATM   15  C   UNL     1      42.967  -9.611  11.667  1.00  0.00     0.071 A 
HETATM   16  C   UNL     1      43.259 -10.357  10.523  1.00  0.00     0.054 A 
BRANCH  13  17
HETATM   17  O   UNL     1      42.823  -6.210  10.400  1.00  0.00    -0.356 OA
HETATM   18  C   UNL     1      42.083  -5.697  11.501  1.00  0.00     0.210 C 
ENDBRANCH  13  17
BRANCH  15  19
HETATM   19  O   UNL     1      42.770 -10.112  12.925  1.00  0.00    -0.356 OA
HETATM   20  C   UNL     1      42.082  -9.289  13.858  1.00  0.00     0.210 C 
ENDBRANCH  15  19
ENDBRANCH   8  11
ENDBRANCH   3   7
BRANCH   1  21
HETATM   21  C   UNL     1      43.200 -15.017   4.645  1.00  0.00     0.181 A 
HETATM   22  O   UNL     1      43.197 -15.584   3.395  1.00  0.00    -0.289 OA
HETATM   23  C   UNL     1      43.425 -16.906   3.630  1.00  0.00     0.106 A 
HETATM   24  C   UNL     1      43.550 -17.077   4.997  1.00  0.00     0.094 A 
HETATM   25  C   UNL     1      43.528 -17.920   2.690  1.00  0.00     0.040 A 
HETATM   26  C   UNL     1      43.811 -18.362   5.497  1.00  0.00     0.041 A 
HETATM   27  N   UNL     1      43.390 -15.873   5.636  1.00  0.00    -0.221 NA
HETATM   28  C   UNL     1      43.950 -19.425   4.581  1.00  0.00    -0.060 A 
HETATM   29  C   UNL     1      44.215 -20.815   5.084  1.00  0.00     0.048 C 
HETATM   30  C   UNL     1      43.792 -19.197   3.202  1.00  0.00     0.009 A 
ENDBRANCH   1  21
TORSDOF 5
ENDMDL
MODEL 5
REMARK VINA RESULT:      -8.5      2.417      9.988
REMARK  5 active torsions:
REMARK  status: ('A' for Active; 'I' for Inactive)
REMARK    1  A    between atoms: C_7  and  C_8 
REMARK    2  A    between atoms: C_10  and  N_11 
REMARK       I    between atoms: N_11  and  C_12 
REMARK    3  A    between atoms: C_12  and  C_13 
REMARK    4  A    between atoms: C_15  and  O_16 
REMARK    5  A    between atoms: C_19  and  O_20 
ROOT
HETATM    1  C   UNL     1      43.132 -13.629   4.210  1.00  0.00     0.019 A 
HETATM    2  C   UNL     1      43.183 -12.866   5.392  1.00  0.00     0.045 A 
HETATM    3  C   UNL     1      42.984 -11.482   5.371  1.00  0.00     0.035 A 
HETATM    4  C   UNL     1      42.746 -10.852   4.144  1.00  0.00     0.029 A 
HETATM    5  C   UNL     1      42.716 -11.591   2.959  1.00  0.00     0.003 A 
HETATM    6  C   UNL     1      42.903 -12.971   2.994  1.00  0.00     0.016 A 
ENDROOT
BRANCH   3   7
HETATM    7  N   UNL     1      42.973 -10.668   6.529  1.00  0.00    -0.323 N 
HETATM    8  C   UNL     1      44.053 -10.344   7.332  1.00  0.00     0.256 C 
HETATM    9  O   UNL     1      45.219 -10.670   7.125  1.00  0.00    -0.267 OA
HETATM   10  H   UNL     1      42.062 -10.325   6.793  1.00  0.00     0.169 HD
BRANCH   8  11
HETATM   11  C   UNL     1      43.767  -9.539   8.563  1.00  0.00     0.037 A 
HETATM   12  C   UNL     1      43.674 -10.242   9.778  1.00  0.00     0.054 A 
HETATM   13  C   UNL     1      43.414  -9.570  10.969  1.00  0.00     0.071 A 
HETATM   14  C   UNL     1      43.225  -8.189  10.940  1.00  0.00     0.073 A 
HETATM   15  C   UNL     1      43.322  -7.470   9.746  1.00  0.00     0.071 A 
HETATM   16  C   UNL     1      43.608  -8.145   8.556  1.00  0.00     0.054 A 
BRANCH  13  17
HETATM   17  O   UNL     1      43.312 -10.142  12.207  1.00  0.00    -0.356 OA
HETATM   18  C   UNL     1      42.325  -9.606  13.080  1.00  0.00     0.210 C 
ENDBRANCH  13  17
BRANCH  15  19
HETATM   19  O   UNL     1      43.128  -6.123   9.880  1.00  0.00    -0.356 OA
HETATM   20  C   UNL     1      42.017  -5.549   9.204  1.00  0.00     0.210 C 
ENDBRANCH  15  19
ENDBRANCH   8  11
ENDBRANCH   3   7
BRANCH   1  21
HETATM   21  C   UNL     1      43.270 -15.085   4.231  1.00  0.00     0.181 A 
HETATM   22  O   UNL     1      43.184 -15.727   3.021  1.00  0.00    -0.289 OA
HETATM   23  C   UNL     1      43.399 -17.036   3.324  1.00  0.00     0.106 A 
HETATM   24  C   UNL     1      43.599 -17.128   4.690  1.00  0.00     0.094 A 
HETATM   25  C   UNL     1      43.427 -18.109   2.445  1.00  0.00     0.040 A 
HETATM   26  C   UNL     1      43.863 -18.385   5.253  1.00  0.00     0.041 A 
HETATM   27  N   UNL     1      43.500 -15.883   5.261  1.00  0.00    -0.221 NA
HETATM   28  C   UNL     1      43.928 -19.505   4.400  1.00  0.00    -0.060 A 
HETATM   29  C   UNL     1      44.194 -20.868   4.972  1.00  0.00     0.048 C 
HETATM   30  C   UNL     1      43.695 -19.358   3.020  1.00  0.00     0.009 A 
ENDBRANCH   1  21
TORSDOF 5
ENDMDL
MODEL 6
REMARK VINA RESULT:      -8.4      2.398     10.012
REMARK  5 active torsions:
REMARK  status: ('A' for Active; 'I' for Inactive)
REMARK    1  A    between atoms: C_7  and  C_8 
REMARK    2  A    between atoms: C_10  and  N_11 
REMARK       I    between atoms: N_11  and  C_12 
REMARK    3  A    between atoms: C_12  and  C_13 
REMARK    4  A    between atoms: C_15  and  O_16 
REMARK    5  A    between atoms: C_19  and  O_20 
ROOT
HETATM    1  C   UNL     1      42.880 -13.121   4.769  1.00  0.00     0.019 A 
HETATM    2  C   UNL     1      42.644 -12.493   6.005  1.00  0.00     0.045 A 
HETATM    3  C   UNL     1      42.375 -11.123   6.083  1.00  0.00     0.035 A 
HETATM    4  C   UNL     1      42.359 -10.370   4.903  1.00  0.00     0.029 A 
HETATM    5  C   UNL     1      42.615 -10.974   3.669  1.00  0.00     0.003 A 
HETATM    6  C   UNL     1      42.869 -12.342   3.604  1.00  0.00     0.016 A 
ENDROOT
BRANCH   3   7
HETATM    7  N   UNL     1      42.080 -10.442   7.288  1.00  0.00    -0.323 N 
HETATM    8  C   UNL     1      42.984  -9.857   8.158  1.00  0.00     0.256 C 
HETATM    9  O   UNL     1      44.197  -9.784   7.984  1.00  0.00    -0.267 OA
HETATM   10  H   UNL     1      41.102 -10.424   7.532  1.00  0.00     0.169 HD
BRANCH   8  11
HETATM   11  C   UNL     1      42.430  -9.276   9.424  1.00  0.00     0.037 A 
HETATM   12  C   UNL     1      43.345  -9.018  10.461  1.00  0.00     0.054 A 
HETATM   13  C   UNL     1      42.913  -8.476  11.669  1.00  0.00     0.071 A 
HETATM   14  C   UNL     1      41.556  -8.212  11.847  1.00  0.00     0.073 A 
HETATM   15  C   UNL     1      40.632  -8.453  10.827  1.00  0.00     0.071 A 
HETATM   16  C   UNL     1      41.072  -8.973   9.607  1.00  0.00     0.054 A 
BRANCH  13  17
HETATM   17  O   UNL     1      43.707  -8.173  12.741  1.00  0.00    -0.356 OA
HETATM   18  C   UNL     1      43.103  -7.434  13.796  1.00  0.00     0.210 C 
ENDBRANCH  13  17
BRANCH  15  19
HETATM   19  O   UNL     1      39.342  -8.129  11.144  1.00  0.00    -0.356 OA
HETATM   20  C   UNL     1      39.018  -8.001  12.523  1.00  0.00     0.210 C 
ENDBRANCH  15  19
ENDBRANCH   8  11
ENDBRANCH   3   7
BRANCH   1  21
HETATM   21  C   UNL     1      43.094 -14.565   4.671  1.00  0.00     0.181 A 
HETATM   22  O   UNL     1      43.036 -15.111   3.413  1.00  0.00    -0.289 OA
HETATM   23  C   UNL     1      43.320 -16.428   3.609  1.00  0.00     0.106 A 
HETATM   24  C   UNL     1      43.530 -16.619   4.963  1.00  0.00     0.094 A 
HETATM   25  C   UNL     1      43.400 -17.422   2.645  1.00  0.00     0.040 A 
HETATM   26  C   UNL     1      43.861 -17.902   5.422  1.00  0.00     0.041 A 
HETATM   27  N   UNL     1      43.370 -15.431   5.633  1.00  0.00    -0.221 NA
HETATM   28  C   UNL     1      43.981 -18.944   4.480  1.00  0.00    -0.060 A 
HETATM   29  C   UNL     1      44.320 -20.334   4.940  1.00  0.00     0.048 C 
HETATM   30  C   UNL     1      43.735 -18.698   3.117  1.00  0.00     0.009 A 
ENDBRANCH   1  21
TORSDOF 5
ENDMDL
MODEL 7
REMARK VINA RESULT:      -8.3      6.399     10.690
REMARK  5 active torsions:
REMARK  status: ('A' for Active; 'I' for Inactive)
REMARK    1  A    between atoms: C_7  and  C_8 
REMARK    2  A    between atoms: C_10  and  N_11 
REMARK       I    between atoms: N_11  and  C_12 
REMARK    3  A    between atoms: C_12  and  C_13 
REMARK    4  A    between atoms: C_15  and  O_16 
REMARK    5  A    between atoms: C_19  and  O_20 
ROOT
HETATM    1  C   UNL     1      40.295 -12.210  -1.545  1.00  0.00     0.019 A 
HETATM    2  C   UNL     1      40.926 -12.952  -0.530  1.00  0.00     0.045 A 
HETATM    3  C   UNL     1      40.518 -14.253  -0.222  1.00  0.00     0.035 A 
HETATM    4  C   UNL     1      39.449 -14.811  -0.932  1.00  0.00     0.029 A 
HETATM    5  C   UNL     1      38.795 -14.080  -1.927  1.00  0.00     0.003 A 
HETATM    6  C   UNL     1      39.221 -12.788  -2.233  1.00  0.00     0.016 A 
ENDROOT
BRANCH   3   7
HETATM    7  N   UNL     1      41.143 -15.069   0.752  1.00  0.00    -0.323 N 
HETATM    8  C   UNL     1      40.694 -15.329   2.036  1.00  0.00     0.256 C 
HETATM    9  O   UNL     1      39.635 -14.933   2.515  1.00  0.00    -0.267 OA
HETATM   10  H   UNL     1      42.025 -15.465   0.464  1.00  0.00     0.169 HD
BRANCH   8  11
HETATM   11  C   UNL     1      41.587 -16.152   2.914  1.00  0.00     0.037 A 
HETATM   12  C   UNL     1      42.393 -17.114   2.280  1.00  0.00     0.054 A 
HETATM   13  C   UNL     1      43.254 -17.919   3.022  1.00  0.00     0.071 A 
HETATM   14  C   UNL     1      43.291 -17.773   4.408  1.00  0.00     0.073 A 
HETATM   15  C   UNL     1      42.505 -16.817   5.057  1.00  0.00     0.071 A 
HETATM   16  C   UNL     1      41.661 -15.994   4.306  1.00  0.00     0.054 A 
BRANCH  13  17
HETATM   17  O   UNL     1      44.090 -18.877   2.518  1.00  0.00    -0.356 OA
HETATM   18  C   UNL     1      43.572 -20.200   2.436  1.00  0.00     0.210 C 
ENDBRANCH  13  17
BRANCH  15  19
HETATM   19  O   UNL     1      42.663 -16.783   6.415  1.00  0.00    -0.356 OA
HETATM   20  C   UNL     1      42.035 -15.721   7.121  1.00  0.00     0.210 C 
ENDBRANCH  15  19
ENDBRANCH   8  11
ENDBRANCH   3   7
BRANCH   1  21
HETATM   21  C   UNL     1      40.761 -10.875  -1.921  1.00  0.00     0.181 A 
HETATM   22  O   UNL     1      41.655 -10.275  -1.069  1.00  0.00    -0.289 OA
HETATM   23  C   UNL     1      41.953  -9.095  -1.680  1.00  0.00     0.106 A 
HETATM   24  C   UNL     1      41.231  -9.033  -2.858  1.00  0.00     0.094 A 
HETATM   25  C   UNL     1      42.826  -8.114  -1.232  1.00  0.00     0.040 A 
HETATM   26  C   UNL     1      41.381  -7.911  -3.686  1.00  0.00     0.041 A 
HETATM   27  N   UNL     1      40.464 -10.163  -2.996  1.00  0.00    -0.221 NA
HETATM   28  C   UNL     1      42.276  -6.896  -3.289  1.00  0.00    -0.060 A 
HETATM   29  C   UNL     1      42.449  -5.674  -4.146  1.00  0.00     0.048 C 
HETATM   30  C   UNL     1      42.969  -7.001  -2.069  1.00  0.00     0.009 A 
ENDBRANCH   1  21
TORSDOF 5
ENDMDL
MODEL 8
REMARK VINA RESULT:      -8.0      1.995      2.790
REMARK  5 active torsions:
REMARK  status: ('A' for Active; 'I' for Inactive)
REMARK    1  A    between atoms: C_7  and  C_8 
REMARK    2  A    between atoms: C_10  and  N_11 
REMARK       I    between atoms: N_11  and  C_12 
REMARK    3  A    between atoms: C_12  and  C_13 
REMARK    4  A    between atoms: C_15  and  O_16 
REMARK    5  A    between atoms: C_19  and  O_20 
ROOT
HETATM    1  C   UNL     1      44.273  -9.843   9.445  1.00  0.00     0.019 A 
HETATM    2  C   UNL     1      43.581 -10.277   8.300  1.00  0.00     0.045 A 
HETATM    3  C   UNL     1      44.265 -10.684   7.150  1.00  0.00     0.035 A 
HETATM    4  C   UNL     1      45.664 -10.639   7.145  1.00  0.00     0.029 A 
HETATM    5  C   UNL     1      46.366 -10.188   8.266  1.00  0.00     0.003 A 
HETATM    6  C   UNL     1      45.673  -9.797   9.410  1.00  0.00     0.016 A 
ENDROOT
BRANCH   3   7
HETATM    7  N   UNL     1      43.630 -11.178   5.985  1.00  0.00    -0.323 N 
HETATM    8  C   UNL     1      43.460 -12.505   5.627  1.00  0.00     0.256 C 
HETATM    9  O   UNL     1      43.785 -13.474   6.306  1.00  0.00    -0.267 OA
HETATM   10  H   UNL     1      43.305 -10.466   5.350  1.00  0.00     0.169 HD
BRANCH   8  11
HETATM   11  C   UNL     1      42.838 -12.772   4.290  1.00  0.00     0.037 A 
HETATM   12  C   UNL     1      42.700 -11.676   3.420  1.00  0.00     0.054 A 
HETATM   13  C   UNL     1      42.135 -11.838   2.158  1.00  0.00     0.071 A 
HETATM   14  C   UNL     1      41.686 -13.101   1.774  1.00  0.00     0.073 A 
HETATM   15  C   UNL     1      41.821 -14.205   2.619  1.00  0.00     0.071 A 
HETATM   16  C   UNL     1      42.412 -14.044   3.875  1.00  0.00     0.054 A 
BRANCH  13  17
HETATM   17  O   UNL     1      41.959 -10.854   1.225  1.00  0.00    -0.356 OA
HETATM   18  C   UNL     1      40.886 -11.027   0.306  1.00  0.00     0.210 C 
ENDBRANCH  13  17
BRANCH  15  19
HETATM   19  O   UNL     1      41.350 -15.378   2.097  1.00  0.00    -0.356 OA
HETATM   20  C   UNL     1      40.224 -15.306   1.232  1.00  0.00     0.210 C 
ENDBRANCH  15  19
ENDBRANCH   8  11
ENDBRANCH   3   7
BRANCH   1  21
HETATM   21  C   UNL     1      43.568  -9.481  10.675  1.00  0.00     0.181 A 
HETATM   22  O   UNL     1      42.352 -10.083  10.885  1.00  0.00    -0.289 OA
HETATM   23  C   UNL     1      41.957  -9.617  12.102  1.00  0.00     0.106 A 
HETATM   24  C   UNL     1      42.939  -8.759  12.566  1.00  0.00     0.094 A 
HETATM   25  C   UNL     1      40.791  -9.932  12.784  1.00  0.00     0.040 A 
HETATM   26  C   UNL     1      42.773  -8.157  13.822  1.00  0.00     0.041 A 
HETATM   27  N   UNL     1      43.952  -8.667  11.645  1.00  0.00    -0.221 NA
HETATM   28  C   UNL     1      41.617  -8.463  14.568  1.00  0.00    -0.060 A 
HETATM   29  C   UNL     1      41.402  -7.825  15.911  1.00  0.00     0.048 C 
HETATM   30  C   UNL     1      40.640  -9.326  14.038  1.00  0.00     0.009 A 
ENDBRANCH   1  21
TORSDOF 5
ENDMDL
MODEL 9
REMARK VINA RESULT:      -7.9      2.411      3.128
REMARK  5 active torsions:
REMARK  status: ('A' for Active; 'I' for Inactive)
REMARK    1  A    between atoms: C_7  and  C_8 
REMARK    2  A    between atoms: C_10  and  N_11 
REMARK       I    between atoms: N_11  and  C_12 
REMARK    3  A    between atoms: C_12  and  C_13 
REMARK    4  A    between atoms: C_15  and  O_16 
REMARK    5  A    between atoms: C_19  and  O_20 
ROOT
HETATM    1  C   UNL     1      44.515  -9.324   8.188  1.00  0.00     0.019 A 
HETATM    2  C   UNL     1      43.757 -10.165   7.353  1.00  0.00     0.045 A 
HETATM    3  C   UNL     1      44.357 -11.197   6.625  1.00  0.00     0.035 A 
HETATM    4  C   UNL     1      45.742 -11.377   6.725  1.00  0.00     0.029 A 
HETATM    5  C   UNL     1      46.513 -10.536   7.530  1.00  0.00     0.003 A 
HETATM    6  C   UNL     1      45.901  -9.519   8.261  1.00  0.00     0.016 A 
ENDROOT
BRANCH   3   7
HETATM    7  N   UNL     1      43.645 -12.107   5.808  1.00  0.00    -0.323 N 
HETATM    8  C   UNL     1      43.492 -12.050   4.432  1.00  0.00     0.256 C 
HETATM    9  O   UNL     1      44.012 -11.222   3.691  1.00  0.00    -0.267 OA
HETATM   10  H   UNL     1      43.181 -12.848   6.310  1.00  0.00     0.169 HD
BRANCH   8  11
HETATM   11  C   UNL     1      42.606 -13.083   3.805  1.00  0.00     0.037 A 
HETATM   12  C   UNL     1      42.318 -12.930   2.437  1.00  0.00     0.054 A 
HETATM   13  C   UNL     1      41.505 -13.847   1.775  1.00  0.00     0.071 A 
HETATM   14  C   UNL     1      40.960 -14.910   2.493  1.00  0.00     0.073 A 
HETATM   15  C   UNL     1      41.240 -15.086   3.851  1.00  0.00     0.071 A 
HETATM   16  C   UNL     1      42.077 -14.178   4.505  1.00  0.00     0.054 A 
BRANCH  13  17
HETATM   17  O   UNL     1      41.166 -13.808   0.451  1.00  0.00    -0.356 OA
HETATM   18  C   UNL     1      40.054 -14.602   0.052  1.00  0.00     0.210 C 
ENDBRANCH  13  17
BRANCH  15  19
HETATM   19  O   UNL     1      40.647 -16.183   4.413  1.00  0.00    -0.356 OA
HETATM   20  C   UNL     1      40.531 -16.212   5.830  1.00  0.00     0.210 C 
ENDBRANCH  15  19
ENDBRANCH   8  11
ENDBRANCH   3   7
BRANCH   1  21
HETATM   21  C   UNL     1      43.887  -8.288   9.006  1.00  0.00     0.181 A 
HETATM   22  O   UNL     1      43.532  -8.644  10.283  1.00  0.00    -0.289 OA
HETATM   23  C   UNL     1      43.033  -7.498  10.822  1.00  0.00     0.106 A 
HETATM   24  C   UNL     1      43.103  -6.511   9.855  1.00  0.00     0.094 A 
HETATM   25  C   UNL     1      42.543  -7.317  12.107  1.00  0.00     0.040 A 
HETATM   26  C   UNL     1      42.662  -5.218  10.175  1.00  0.00     0.041 A 
HETATM   27  N   UNL     1      43.633  -7.026   8.699  1.00  0.00    -0.221 NA
HETATM   28  C   UNL     1      42.178  -4.974  11.476  1.00  0.00    -0.060 A 
HETATM   29  C   UNL     1      41.684  -3.605  11.846  1.00  0.00     0.048 C 
HETATM   30  C   UNL     1      42.109  -6.021  12.414  1.00  0.00     0.009 A 
ENDBRANCH   1  21
TORSDOF 5
ENDMDL
MODEL 10
REMARK VINA RESULT:      -7.8      1.894      3.045
REMARK  5 active torsions:
REMARK  status: ('A' for Active; 'I' for Inactive)
REMARK    1  A    between atoms: C_7  and  C_8 
REMARK    2  A    between atoms: C_10  and  N_11 
REMARK       I    between atoms: N_11  and  C_12 
REMARK    3  A    between atoms: C_12  and  C_13 
REMARK    4  A    between atoms: C_15  and  O_16 
REMARK    5  A    between atoms: C_19  and  O_20 
ROOT
HETATM    1  C   UNL     1      44.615  -9.432   8.299  1.00  0.00     0.019 A 
HETATM    2  C   UNL     1      43.888 -10.364   7.536  1.00  0.00     0.045 A 
HETATM    3  C   UNL     1      44.537 -11.298   6.722  1.00  0.00     0.035 A 
HETATM    4  C   UNL     1      45.935 -11.285   6.662  1.00  0.00     0.029 A 
HETATM    5  C   UNL     1      46.671 -10.351   7.394  1.00  0.00     0.003 A 
HETATM    6  C   UNL     1      46.013  -9.433   8.211  1.00  0.00     0.016 A 
ENDROOT
BRANCH   3   7
HETATM    7  N   UNL     1      43.867 -12.293   5.971  1.00  0.00    -0.323 N 
HETATM    8  C   UNL     1      43.444 -13.533   6.418  1.00  0.00     0.256 C 
HETATM    9  O   UNL     1      43.532 -13.944   7.572  1.00  0.00    -0.267 OA
HETATM   10  H   UNL     1      43.723 -12.061   5.000  1.00  0.00     0.169 HD
BRANCH   8  11
HETATM   11  C   UNL     1      42.840 -14.453   5.400  1.00  0.00     0.037 A 
HETATM   12  C   UNL     1      41.685 -14.000   4.738  1.00  0.00     0.054 A 
HETATM   13  C   UNL     1      41.063 -14.791   3.775  1.00  0.00     0.071 A 
HETATM   14  C   UNL     1      41.588 -16.051   3.492  1.00  0.00     0.073 A 
HETATM   15  C   UNL     1      42.739 -16.517   4.132  1.00  0.00     0.071 A 
HETATM   16  C   UNL     1      43.375 -15.710   5.079  1.00  0.00     0.054 A 
BRANCH  13  17
HETATM   17  O   UNL     1      39.947 -14.455   3.060  1.00  0.00    -0.356 OA
HETATM   18  C   UNL     1      39.711 -13.066   2.856  1.00  0.00     0.210 C 
ENDBRANCH  13  17
BRANCH  15  19
HETATM   19  O   UNL     1      43.141 -17.763   3.737  1.00  0.00    -0.356 OA
HETATM   20  C   UNL     1      44.187 -18.380   4.477  1.00  0.00     0.210 C 
ENDBRANCH  15  19
ENDBRANCH   8  11
ENDBRANCH   3   7
BRANCH   1  21
HETATM   21  C   UNL     1      43.948  -8.498   9.206  1.00  0.00     0.181 A 
HETATM   22  O   UNL     1      43.816  -7.204   8.766  1.00  0.00    -0.289 OA
HETATM   23  C   UNL     1      43.125  -6.584   9.761  1.00  0.00     0.106 A 
HETATM   24  C   UNL     1      42.877  -7.518  10.751  1.00  0.00     0.094 A 
HETATM   25  C   UNL     1      42.721  -5.257   9.803  1.00  0.00     0.040 A 
HETATM   26  C   UNL     1      42.155  -7.125  11.887  1.00  0.00     0.041 A 
HETATM   27  N   UNL     1      43.416  -8.729  10.395  1.00  0.00    -0.221 NA
HETATM   28  C   UNL     1      41.698  -5.794  11.968  1.00  0.00    -0.060 A 
HETATM   29  C   UNL     1      40.935  -5.337  13.178  1.00  0.00     0.048 C 
HETATM   30  C   UNL     1      41.998  -4.879  10.942  1.00  0.00     0.009 A 
ENDBRANCH   1  21
TORSDOF 5
ENDMDL
