MODEL 1
REMARK VINA RESULT:      -8.7      0.000      0.000
REMARK  9 active torsions:
REMARK  status: ('A' for Active; 'I' for Inactive)
REMARK    1  A    between atoms: O_2  and  C_3 
REMARK    2  A    between atoms: C_6  and  N_7 
REMARK       I    between atoms: N_7  and  C_8 
REMARK    3  A    between atoms: C_8  and  C_9 
REMARK    4  A    between atoms: C_9  and  N_10 
REMARK    5  A    between atoms: N_10  and  C_12 
REMARK    6  A    between atoms: N_10  and  C_24 
REMARK    7  A    between atoms: C_12  and  S_13 
REMARK    8  A    between atoms: S_13  and  C_14 
REMARK    9  A    between atoms: C_24  and  C_25 
ROOT
HETATM    1  N   UNL     1      40.905 -12.669   3.324  1.00  0.00    -0.041 N 
HETATM    2  H   UNL     1      41.869 -12.521   3.694  1.00  0.00     0.282 HD
ENDROOT
BRANCH   1   3
HETATM    3  C   UNL     1      41.105 -13.506   1.944  1.00  0.00     0.208 C 
HETATM    4  C   UNL     1      41.367 -12.478   0.809  1.00  0.00     0.049 C 
HETATM    5  C   UNL     1      41.080 -12.932  -0.630  1.00  0.00     0.003 C 
HETATM    6  C   UNL     1      39.842 -13.803  -0.776  1.00  0.00     0.000 C 
HETATM    7  C   UNL     1      39.822 -14.940   0.235  1.00  0.00     0.003 C 
HETATM    8  C   UNL     1      39.865 -14.377   1.655  1.00  0.00     0.049 C 
BRANCH   3   9
HETATM    9  C   UNL     1      42.294 -14.524   2.200  1.00  0.00     0.259 C 
HETATM   10  N   UNL     1      41.960 -15.831   2.471  1.00  0.00    -0.325 N 
HETATM   11  H   UNL     1      41.011 -16.135   2.323  1.00  0.00     0.169 HD
HETATM   12  O   UNL     1      43.443 -14.079   2.186  1.00  0.00    -0.270 OA
BRANCH  10  13
HETATM   13  C   UNL     1      42.787 -16.845   3.001  1.00  0.00     0.035 A 
HETATM   14  C   UNL     1      43.498 -16.740   4.194  1.00  0.00     0.032 A 
HETATM   15  C   UNL     1      44.221 -17.839   4.677  1.00  0.00     0.039 A 
HETATM   16  C   UNL     1      44.241 -19.050   3.985  1.00  0.00     0.068 A 
HETATM   17  C   UNL     1      43.557 -19.149   2.777  1.00  0.00     0.039 A 
HETATM   18  C   UNL     1      42.833 -18.054   2.291  1.00  0.00     0.032 A 
BRANCH  16  19
HETATM   19  O   UNL     1      44.959 -20.048   4.582  1.00  0.00    -0.356 OA
HETATM   20  C   UNL     1      44.218 -21.025   5.304  1.00  0.00     0.210 C 
ENDBRANCH  16  19
ENDBRANCH  10  13
ENDBRANCH   3   9
ENDBRANCH   1   3
BRANCH   1  21
HETATM   21  C   UNL     1      40.472 -11.238   3.019  1.00  0.00     0.318 C 
BRANCH  21  22
HETATM   22  S   UNL     1      40.309 -10.151   4.442  1.00  0.00    -0.064 SA
BRANCH  22  23
HETATM   23  C   UNL     1      41.821 -10.341   5.231  1.00  0.00     0.169 A 
HETATM   24  N   UNL     1      42.912 -10.828   4.700  1.00  0.00    -0.223 NA
HETATM   25  C   UNL     1      43.814 -10.854   5.745  1.00  0.00     0.086 A 
HETATM   26  C   UNL     1      43.229 -10.394   6.924  1.00  0.00     0.063 A 
HETATM   27  C   UNL     1      45.150 -11.281   5.769  1.00  0.00     0.034 A 
HETATM   28  N   UNL     1      41.950 -10.063   6.559  1.00  0.00    -0.333 N 
HETATM   29  C   UNL     1      43.900 -10.336   8.145  1.00  0.00     0.032 A 
HETATM   30  H   UNL     1      41.229  -9.700   7.166  1.00  0.00     0.168 HD
HETATM   31  C   UNL     1      45.230 -10.772   8.151  1.00  0.00     0.002 A 
HETATM   32  C   UNL     1      45.846 -11.235   6.986  1.00  0.00     0.002 A 
ENDBRANCH  22  23
ENDBRANCH  21  22
ENDBRANCH   1  21
BRANCH   1  33
HETATM   33  C   UNL     1      40.080 -13.294   4.438  1.00  0.00     0.275 C 
BRANCH  33  34
HETATM   34  C   UNL     1      40.775 -14.191   5.431  1.00  0.00    -0.033 A 
HETATM   35  C   UNL     1      40.295 -15.470   5.745  1.00  0.00     0.009 A 
HETATM   36  C   UNL     1      40.958 -16.270   6.678  1.00  0.00     0.001 A 
HETATM   37  C   UNL     1      42.119 -15.812   7.295  1.00  0.00     0.000 A 
HETATM   38  C   UNL     1      42.629 -14.558   6.970  1.00  0.00     0.001 A 
HETATM   39  C   UNL     1      41.969 -13.758   6.036  1.00  0.00     0.009 A 
ENDBRANCH  33  34
ENDBRANCH   1  33
TORSDOF 9
ENDMDL
MODEL 2
REMARK VINA RESULT:      -8.6      2.533      6.364
REMARK  9 active torsions:
REMARK  status: ('A' for Active; 'I' for Inactive)
REMARK    1  A    between atoms: O_2  and  C_3 
REMARK    2  A    between atoms: C_6  and  N_7 
REMARK       I    between atoms: N_7  and  C_8 
REMARK    3  A    between atoms: C_8  and  C_9 
REMARK    4  A    between atoms: C_9  and  N_10 
REMARK    5  A    between atoms: N_10  and  C_12 
REMARK    6  A    between atoms: N_10  and  C_24 
REMARK    7  A    between atoms: C_12  and  S_13 
REMARK    8  A    between atoms: S_13  and  C_14 
REMARK    9  A    between atoms: C_24  and  C_25 
ROOT
HETATM    1  N   UNL     1      40.088 -13.308   2.671  1.00  0.00    -0.041 N 
HETATM    2  H   UNL     1      40.434 -13.124   1.704  1.00  0.00     0.282 HD
ENDROOT
BRANCH   1   3
HETATM    3  C   UNL     1      41.356 -12.998   3.641  1.00  0.00     0.208 C 
HETATM    4  C   UNL     1      40.872 -12.015   4.741  1.00  0.00     0.049 C 
HETATM    5  C   UNL     1      41.942 -11.175   5.454  1.00  0.00     0.003 C 
HETATM    6  C   UNL     1      43.056 -10.679   4.544  1.00  0.00     0.000 C 
HETATM    7  C   UNL     1      43.631 -11.797   3.686  1.00  0.00     0.003 C 
HETATM    8  C   UNL     1      42.530 -12.416   2.827  1.00  0.00     0.049 C 
BRANCH   3   9
HETATM    9  C   UNL     1      41.864 -14.400   4.184  1.00  0.00     0.259 C 
HETATM   10  N   UNL     1      42.857 -15.031   3.471  1.00  0.00    -0.325 N 
HETATM   11  H   UNL     1      43.346 -14.520   2.754  1.00  0.00     0.169 HD
HETATM   12  O   UNL     1      41.311 -14.862   5.183  1.00  0.00    -0.270 OA
BRANCH  10  13
HETATM   13  C   UNL     1      43.276 -16.375   3.572  1.00  0.00     0.035 A 
HETATM   14  C   UNL     1      43.892 -16.927   4.693  1.00  0.00     0.032 A 
HETATM   15  C   UNL     1      44.189 -18.296   4.726  1.00  0.00     0.039 A 
HETATM   16  C   UNL     1      43.874 -19.128   3.652  1.00  0.00     0.068 A 
HETATM   17  C   UNL     1      43.287 -18.575   2.519  1.00  0.00     0.039 A 
HETATM   18  C   UNL     1      42.988 -17.208   2.482  1.00  0.00     0.032 A 
BRANCH  16  19
HETATM   19  O   UNL     1      44.190 -20.446   3.827  1.00  0.00    -0.356 OA
HETATM   20  C   UNL     1      44.182 -20.934   5.164  1.00  0.00     0.210 C 
ENDBRANCH  16  19
ENDBRANCH  10  13
ENDBRANCH   3   9
ENDBRANCH   1   3
BRANCH   1  21
HETATM   21  C   UNL     1      39.815 -14.808   2.617  1.00  0.00     0.318 C 
BRANCH  21  22
HETATM   22  S   UNL     1      40.064 -15.591   1.018  1.00  0.00    -0.064 SA
BRANCH  22  23
HETATM   23  C   UNL     1      40.076 -14.253  -0.055  1.00  0.00     0.169 A 
HETATM   24  N   UNL     1      41.027 -13.362  -0.166  1.00  0.00    -0.223 NA
HETATM   25  C   UNL     1      40.536 -12.456  -1.086  1.00  0.00     0.086 A 
HETATM   26  C   UNL     1      39.255 -12.812  -1.505  1.00  0.00     0.063 A 
HETATM   27  C   UNL     1      41.120 -11.287  -1.597  1.00  0.00     0.034 A 
HETATM   28  N   UNL     1      38.990 -13.976  -0.831  1.00  0.00    -0.333 N 
HETATM   29  C   UNL     1      38.505 -12.062  -2.411  1.00  0.00     0.032 A 
HETATM   30  H   UNL     1      38.140 -14.518  -0.884  1.00  0.00     0.168 HD
HETATM   31  C   UNL     1      39.102 -10.897  -2.904  1.00  0.00     0.002 A 
HETATM   32  C   UNL     1      40.385 -10.515  -2.508  1.00  0.00     0.002 A 
ENDBRANCH  22  23
ENDBRANCH  21  22
ENDBRANCH   1  21
BRANCH   1  33
HETATM   33  C   UNL     1      38.815 -12.499   2.860  1.00  0.00     0.275 C 
BRANCH  33  34
HETATM   34  C   UNL     1      38.558 -11.335   1.938  1.00  0.00    -0.033 A 
HETATM   35  C   UNL     1      39.517 -10.337   1.710  1.00  0.00     0.009 A 
HETATM   36  C   UNL     1      39.241  -9.267   0.857  1.00  0.00     0.001 A 
HETATM   37  C   UNL     1      38.013  -9.187   0.206  1.00  0.00     0.000 A 
HETATM   38  C   UNL     1      37.063 -10.186   0.393  1.00  0.00     0.001 A 
HETATM   39  C   UNL     1      37.337 -11.259   1.244  1.00  0.00     0.009 A 
ENDBRANCH  33  34
ENDBRANCH   1  33
TORSDOF 9
ENDMDL
MODEL 3
REMARK VINA RESULT:      -8.6      3.451      7.226
REMARK  9 active torsions:
REMARK  status: ('A' for Active; 'I' for Inactive)
REMARK    1  A    between atoms: O_2  and  C_3 
REMARK    2  A    between atoms: C_6  and  N_7 
REMARK       I    between atoms: N_7  and  C_8 
REMARK    3  A    between atoms: C_8  and  C_9 
REMARK    4  A    between atoms: C_9  and  N_10 
REMARK    5  A    between atoms: N_10  and  C_12 
REMARK    6  A    between atoms: N_10  and  C_24 
REMARK    7  A    between atoms: C_12  and  S_13 
REMARK    8  A    between atoms: S_13  and  C_14 
REMARK    9  A    between atoms: C_24  and  C_25 
ROOT
HETATM    1  N   UNL     1      39.702 -13.224   0.838  1.00  0.00    -0.041 N 
HETATM    2  H   UNL     1      40.664 -12.852   0.996  1.00  0.00     0.282 HD
ENDROOT
BRANCH   1   3
HETATM    3  C   UNL     1      39.366 -12.878  -0.716  1.00  0.00     0.208 C 
HETATM    4  C   UNL     1      37.944 -12.254  -0.757  1.00  0.00     0.049 C 
HETATM    5  C   UNL     1      37.189 -12.314  -2.093  1.00  0.00     0.003 C 
HETATM    6  C   UNL     1      37.383 -13.611  -2.864  1.00  0.00     0.000 C 
HETATM    7  C   UNL     1      38.852 -13.992  -2.978  1.00  0.00     0.003 C 
HETATM    8  C   UNL     1      39.461 -14.149  -1.585  1.00  0.00     0.049 C 
BRANCH   3   9
HETATM    9  C   UNL     1      40.523 -11.921  -1.228  1.00  0.00     0.259 C 
HETATM   10  N   UNL     1      40.320 -10.565  -1.108  1.00  0.00    -0.325 N 
HETATM   11  H   UNL     1      39.551 -10.232  -0.551  1.00  0.00     0.169 HD
HETATM   12  O   UNL     1      41.513 -12.443  -1.742  1.00  0.00    -0.270 OA
BRANCH  10  13
HETATM   13  C   UNL     1      41.045  -9.523  -1.727  1.00  0.00     0.035 A 
HETATM   14  C   UNL     1      42.183  -8.927  -1.190  1.00  0.00     0.032 A 
HETATM   15  C   UNL     1      42.880  -7.960  -1.925  1.00  0.00     0.039 A 
HETATM   16  C   UNL     1      42.458  -7.580  -3.200  1.00  0.00     0.068 A 
HETATM   17  C   UNL     1      41.304  -8.151  -3.727  1.00  0.00     0.039 A 
HETATM   18  C   UNL     1      40.605  -9.118  -2.995  1.00  0.00     0.032 A 
BRANCH  16  19
HETATM   19  O   UNL     1      43.246  -6.651  -3.819  1.00  0.00    -0.356 OA
HETATM   20  C   UNL     1      43.091  -6.516  -5.227  1.00  0.00     0.210 C 
ENDBRANCH  16  19
ENDBRANCH  10  13
ENDBRANCH   3   9
ENDBRANCH   1   3
BRANCH   1  21
HETATM   21  C   UNL     1      38.876 -12.342   1.769  1.00  0.00     0.318 C 
BRANCH  21  22
HETATM   22  S   UNL     1      39.814 -11.300   2.895  1.00  0.00    -0.064 SA
BRANCH  22  23
HETATM   23  C   UNL     1      40.530 -12.445   3.953  1.00  0.00     0.169 A 
HETATM   24  N   UNL     1      41.812 -12.651   4.112  1.00  0.00    -0.223 NA
HETATM   25  C   UNL     1      41.877 -13.715   4.991  1.00  0.00     0.086 A 
HETATM   26  C   UNL     1      40.601 -14.158   5.336  1.00  0.00     0.063 A 
HETATM   27  C   UNL     1      42.994 -14.374   5.524  1.00  0.00     0.034 A 
HETATM   28  N   UNL     1      39.756 -13.316   4.659  1.00  0.00    -0.333 N 
HETATM   29  C   UNL     1      40.364 -15.237   6.187  1.00  0.00     0.032 A 
HETATM   30  H   UNL     1      38.747 -13.349   4.666  1.00  0.00     0.168 HD
HETATM   31  C   UNL     1      41.492 -15.886   6.704  1.00  0.00     0.002 A 
HETATM   32  C   UNL     1      42.783 -15.463   6.381  1.00  0.00     0.002 A 
ENDBRANCH  22  23
ENDBRANCH  21  22
ENDBRANCH   1  21
BRANCH   1  33
HETATM   33  C   UNL     1      39.699 -14.680   1.273  1.00  0.00     0.275 C 
BRANCH  33  34
HETATM   34  C   UNL     1      41.003 -15.307   1.698  1.00  0.00    -0.033 A 
HETATM   35  C   UNL     1      42.245 -14.745   1.368  1.00  0.00     0.009 A 
HETATM   36  C   UNL     1      43.433 -15.358   1.770  1.00  0.00     0.001 A 
HETATM   37  C   UNL     1      43.399 -16.529   2.521  1.00  0.00     0.000 A 
HETATM   38  C   UNL     1      42.175 -17.082   2.888  1.00  0.00     0.001 A 
HETATM   39  C   UNL     1      40.986 -16.470   2.490  1.00  0.00     0.009 A 
ENDBRANCH  33  34
ENDBRANCH   1  33
TORSDOF 9
ENDMDL
MODEL 4
REMARK VINA RESULT:      -8.3      2.572      5.818
REMARK  9 active torsions:
REMARK  status: ('A' for Active; 'I' for Inactive)
REMARK    1  A    between atoms: O_2  and  C_3 
REMARK    2  A    between atoms: C_6  and  N_7 
REMARK       I    between atoms: N_7  and  C_8 
REMARK    3  A    between atoms: C_8  and  C_9 
REMARK    4  A    between atoms: C_9  and  N_10 
REMARK    5  A    between atoms: N_10  and  C_12 
REMARK    6  A    between atoms: N_10  and  C_24 
REMARK    7  A    between atoms: C_12  and  S_13 
REMARK    8  A    between atoms: S_13  and  C_14 
REMARK    9  A    between atoms: C_24  and  C_25 
ROOT
HETATM    1  N   UNL     1      42.715 -12.639   4.485  1.00  0.00    -0.041 N 
HETATM    2  H   UNL     1      43.050 -12.604   3.498  1.00  0.00     0.282 HD
ENDROOT
BRANCH   1   3
HETATM    3  C   UNL     1      41.246 -11.942   4.458  1.00  0.00     0.208 C 
HETATM    4  C   UNL     1      41.454 -10.423   4.210  1.00  0.00     0.049 C 
HETATM    5  C   UNL     1      40.323  -9.479   4.643  1.00  0.00     0.003 C 
HETATM    6  C   UNL     1      39.650  -9.867   5.950  1.00  0.00     0.000 C 
HETATM    7  C   UNL     1      39.257 -11.337   5.975  1.00  0.00     0.003 C 
HETATM    8  C   UNL     1      40.495 -12.212   5.778  1.00  0.00     0.049 C 
BRANCH   3   9
HETATM    9  C   UNL     1      40.412 -12.686   3.331  1.00  0.00     0.259 C 
HETATM   10  N   UNL     1      40.706 -12.381   2.022  1.00  0.00    -0.325 N 
HETATM   11  H   UNL     1      41.537 -11.851   1.817  1.00  0.00     0.169 HD
HETATM   12  O   UNL     1      39.522 -13.458   3.692  1.00  0.00    -0.270 OA
BRANCH  10  13
HETATM   13  C   UNL     1      39.944 -12.678   0.871  1.00  0.00     0.035 A 
HETATM   14  C   UNL     1      38.972 -11.839   0.331  1.00  0.00     0.032 A 
HETATM   15  C   UNL     1      38.334 -12.188  -0.867  1.00  0.00     0.039 A 
HETATM   16  C   UNL     1      38.657 -13.366  -1.540  1.00  0.00     0.068 A 
HETATM   17  C   UNL     1      39.605 -14.221  -0.987  1.00  0.00     0.039 A 
HETATM   18  C   UNL     1      40.246 -13.877   0.209  1.00  0.00     0.032 A 
BRANCH  16  19
HETATM   19  O   UNL     1      37.982 -13.569  -2.711  1.00  0.00    -0.356 OA
HETATM   20  C   UNL     1      38.268 -14.773  -3.413  1.00  0.00     0.210 C 
ENDBRANCH  16  19
ENDBRANCH  10  13
ENDBRANCH   3   9
ENDBRANCH   1   3
BRANCH   1  21
HETATM   21  C   UNL     1      43.721 -11.729   5.183  1.00  0.00     0.318 C 
BRANCH  21  22
HETATM   22  S   UNL     1      44.519 -12.417   6.639  1.00  0.00    -0.064 SA
BRANCH  22  23
HETATM   23  C   UNL     1      44.165 -11.250   7.845  1.00  0.00     0.169 A 
HETATM   24  N   UNL     1      44.886 -10.995   8.906  1.00  0.00    -0.223 NA
HETATM   25  C   UNL     1      44.149 -10.054   9.598  1.00  0.00     0.086 A 
HETATM   26  C   UNL     1      42.954  -9.770   8.938  1.00  0.00     0.063 A 
HETATM   27  C   UNL     1      44.425  -9.411  10.814  1.00  0.00     0.034 A 
HETATM   28  N   UNL     1      42.998 -10.548   7.810  1.00  0.00    -0.333 N 
HETATM   29  C   UNL     1      42.000  -8.876   9.423  1.00  0.00     0.032 A 
HETATM   30  H   UNL     1      42.287 -10.606   7.095  1.00  0.00     0.168 HD
HETATM   31  C   UNL     1      42.291  -8.249  10.640  1.00  0.00     0.002 A 
HETATM   32  C   UNL     1      43.481  -8.509  11.324  1.00  0.00     0.002 A 
ENDBRANCH  22  23
ENDBRANCH  21  22
ENDBRANCH   1  21
BRANCH   1  33
HETATM   33  C   UNL     1      42.824 -14.081   4.952  1.00  0.00     0.275 C 
BRANCH  33  34
HETATM   34  C   UNL     1      42.994 -15.163   3.916  1.00  0.00    -0.033 A 
HETATM   35  C   UNL     1      43.184 -14.872   2.557  1.00  0.00     0.009 A 
HETATM   36  C   UNL     1      43.328 -15.900   1.623  1.00  0.00     0.001 A 
HETATM   37  C   UNL     1      43.301 -17.229   2.033  1.00  0.00     0.000 A 
HETATM   38  C   UNL     1      43.149 -17.536   3.382  1.00  0.00     0.001 A 
HETATM   39  C   UNL     1      43.008 -16.511   4.319  1.00  0.00     0.009 A 
ENDBRANCH  33  34
ENDBRANCH   1  33
TORSDOF 9
ENDMDL
MODEL 5
REMARK VINA RESULT:      -8.2      2.818      6.713
REMARK  9 active torsions:
REMARK  status: ('A' for Active; 'I' for Inactive)
REMARK    1  A    between atoms: O_2  and  C_3 
REMARK    2  A    between atoms: C_6  and  N_7 
REMARK       I    between atoms: N_7  and  C_8 
REMARK    3  A    between atoms: C_8  and  C_9 
REMARK    4  A    between atoms: C_9  and  N_10 
REMARK    5  A    between atoms: N_10  and  C_12 
REMARK    6  A    between atoms: N_10  and  C_24 
REMARK    7  A    between atoms: C_12  and  S_13 
REMARK    8  A    between atoms: S_13  and  C_14 
REMARK    9  A    between atoms: C_24  and  C_25 
ROOT
HETATM    1  N   UNL     1      41.460 -13.635   4.910  1.00  0.00    -0.041 N 
HETATM    2  H   UNL     1      42.467 -13.578   4.646  1.00  0.00     0.282 HD
ENDROOT
BRANCH   1   3
HETATM    3  C   UNL     1      40.869 -12.141   4.653  1.00  0.00     0.208 C 
HETATM    4  C   UNL     1      41.841 -11.134   5.324  1.00  0.00     0.049 C 
HETATM    5  C   UNL     1      41.283  -9.747   5.679  1.00  0.00     0.003 C 
HETATM    6  C   UNL     1      39.855  -9.764   6.203  1.00  0.00     0.000 C 
HETATM    7  C   UNL     1      38.931 -10.583   5.313  1.00  0.00     0.003 C 
HETATM    8  C   UNL     1      39.438 -12.021   5.216  1.00  0.00     0.049 C 
BRANCH   3   9
HETATM    9  C   UNL     1      40.727 -11.975   3.082  1.00  0.00     0.259 C 
HETATM   10  N   UNL     1      39.585 -12.469   2.495  1.00  0.00    -0.325 N 
HETATM   11  H   UNL     1      38.814 -12.748   3.081  1.00  0.00     0.169 HD
HETATM   12  O   UNL     1      41.664 -11.455   2.473  1.00  0.00    -0.270 OA
BRANCH  10  13
HETATM   13  C   UNL     1      39.345 -12.699   1.123  1.00  0.00     0.035 A 
HETATM   14  C   UNL     1      38.654 -11.826   0.286  1.00  0.00     0.032 A 
HETATM   15  C   UNL     1      38.546 -12.106  -1.083  1.00  0.00     0.039 A 
HETATM   16  C   UNL     1      39.127 -13.249  -1.633  1.00  0.00     0.068 A 
HETATM   17  C   UNL     1      39.792 -14.138  -0.795  1.00  0.00     0.039 A 
HETATM   18  C   UNL     1      39.902 -13.863   0.573  1.00  0.00     0.032 A 
BRANCH  16  19
HETATM   19  O   UNL     1      38.974 -13.385  -2.984  1.00  0.00    -0.356 OA
HETATM   20  C   UNL     1      38.227 -14.509  -3.433  1.00  0.00     0.210 C 
ENDBRANCH  16  19
ENDBRANCH  10  13
ENDBRANCH   3   9
ENDBRANCH   1   3
BRANCH   1  21
HETATM   21  C   UNL     1      41.552 -13.919   6.406  1.00  0.00     0.318 C 
BRANCH  21  22
HETATM   22  S   UNL     1      43.208 -14.192   7.049  1.00  0.00    -0.064 SA
BRANCH  22  23
HETATM   23  C   UNL     1      43.537 -15.804   6.562  1.00  0.00     0.169 A 
HETATM   24  N   UNL     1      44.179 -16.167   5.482  1.00  0.00    -0.223 NA
HETATM   25  C   UNL     1      44.107 -17.546   5.494  1.00  0.00     0.086 A 
HETATM   26  C   UNL     1      43.384 -18.001   6.596  1.00  0.00     0.063 A 
HETATM   27  C   UNL     1      44.620 -18.481   4.582  1.00  0.00     0.034 A 
HETATM   28  N   UNL     1      43.038 -16.857   7.268  1.00  0.00    -0.333 N 
HETATM   29  C   UNL     1      43.129 -19.349   6.847  1.00  0.00     0.032 A 
HETATM   30  H   UNL     1      42.495 -16.804   8.118  1.00  0.00     0.168 HD
HETATM   31  C   UNL     1      43.642 -20.266   5.922  1.00  0.00     0.002 A 
HETATM   32  C   UNL     1      44.375 -19.843   4.811  1.00  0.00     0.002 A 
ENDBRANCH  22  23
ENDBRANCH  21  22
ENDBRANCH   1  21
BRANCH   1  33
HETATM   33  C   UNL     1      40.852 -14.797   4.141  1.00  0.00     0.275 C 
BRANCH  33  34
HETATM   34  C   UNL     1      41.735 -15.577   3.201  1.00  0.00    -0.033 A 
HETATM   35  C   UNL     1      41.552 -16.948   2.969  1.00  0.00     0.009 A 
HETATM   36  C   UNL     1      42.395 -17.642   2.099  1.00  0.00     0.001 A 
HETATM   37  C   UNL     1      43.420 -16.974   1.434  1.00  0.00     0.000 A 
HETATM   38  C   UNL     1      43.594 -15.606   1.625  1.00  0.00     0.001 A 
HETATM   39  C   UNL     1      42.751 -14.910   2.492  1.00  0.00     0.009 A 
ENDBRANCH  33  34
ENDBRANCH   1  33
TORSDOF 9
ENDMDL
MODEL 6
REMARK VINA RESULT:      -8.2      2.215      3.952
REMARK  9 active torsions:
REMARK  status: ('A' for Active; 'I' for Inactive)
REMARK    1  A    between atoms: O_2  and  C_3 
REMARK    2  A    between atoms: C_6  and  N_7 
REMARK       I    between atoms: N_7  and  C_8 
REMARK    3  A    between atoms: C_8  and  C_9 
REMARK    4  A    between atoms: C_9  and  N_10 
REMARK    5  A    between atoms: N_10  and  C_12 
REMARK    6  A    between atoms: N_10  and  C_24 
REMARK    7  A    between atoms: C_12  and  S_13 
REMARK    8  A    between atoms: S_13  and  C_14 
REMARK    9  A    between atoms: C_24  and  C_25 
ROOT
HETATM    1  N   UNL     1      41.809 -11.664   5.581  1.00  0.00    -0.041 N 
HETATM    2  H   UNL     1      42.303 -10.803   5.262  1.00  0.00     0.282 HD
ENDROOT
BRANCH   1   3
HETATM    3  C   UNL     1      41.304 -12.391   4.216  1.00  0.00     0.208 C 
HETATM    4  C   UNL     1      42.093 -11.764   3.034  1.00  0.00     0.049 C 
HETATM    5  C   UNL     1      41.473 -11.880   1.634  1.00  0.00     0.003 C 
HETATM    6  C   UNL     1      39.961 -11.713   1.604  1.00  0.00     0.000 C 
HETATM    7  C   UNL     1      39.271 -12.579   2.649  1.00  0.00     0.003 C 
HETATM    8  C   UNL     1      39.780 -12.220   4.044  1.00  0.00     0.049 C 
BRANCH   3   9
HETATM    9  C   UNL     1      41.540 -13.947   4.417  1.00  0.00     0.259 C 
HETATM   10  N   UNL     1      42.654 -14.498   3.828  1.00  0.00    -0.325 N 
HETATM   11  H   UNL     1      43.363 -13.888   3.453  1.00  0.00     0.169 HD
HETATM   12  O   UNL     1      40.691 -14.578   5.049  1.00  0.00    -0.270 OA
BRANCH  10  13
HETATM   13  C   UNL     1      42.937 -15.865   3.619  1.00  0.00     0.035 A 
HETATM   14  C   UNL     1      42.640 -16.562   2.450  1.00  0.00     0.032 A 
HETATM   15  C   UNL     1      43.043 -17.897   2.309  1.00  0.00     0.039 A 
HETATM   16  C   UNL     1      43.747 -18.548   3.322  1.00  0.00     0.068 A 
HETATM   17  C   UNL     1      44.019 -17.865   4.503  1.00  0.00     0.039 A 
HETATM   18  C   UNL     1      43.619 -16.531   4.648  1.00  0.00     0.032 A 
BRANCH  16  19
HETATM   19  O   UNL     1      44.105 -19.837   3.043  1.00  0.00    -0.356 OA
HETATM   20  C   UNL     1      43.531 -20.424   1.881  1.00  0.00     0.210 C 
ENDBRANCH  16  19
ENDBRANCH  10  13
ENDBRANCH   3   9
ENDBRANCH   1   3
BRANCH   1  21
HETATM   21  C   UNL     1      40.623 -11.074   6.338  1.00  0.00     0.318 C 
BRANCH  21  22
HETATM   22  S   UNL     1      40.570  -9.280   6.431  1.00  0.00    -0.064 SA
BRANCH  22  23
HETATM   23  C   UNL     1      41.176  -8.969   8.005  1.00  0.00     0.169 A 
HETATM   24  N   UNL     1      42.058  -8.058   8.326  1.00  0.00    -0.223 NA
HETATM   25  C   UNL     1      42.277  -8.260   9.675  1.00  0.00     0.086 A 
HETATM   26  C   UNL     1      41.523  -9.332  10.150  1.00  0.00     0.063 A 
HETATM   27  C   UNL     1      43.126  -7.578  10.559  1.00  0.00     0.034 A 
HETATM   28  N   UNL     1      40.819  -9.761   9.055  1.00  0.00    -0.333 N 
HETATM   29  C   UNL     1      41.567  -9.779  11.470  1.00  0.00     0.032 A 
HETATM   30  H   UNL     1      40.171 -10.535   9.026  1.00  0.00     0.168 HD
HETATM   31  C   UNL     1      42.425  -9.091  12.336  1.00  0.00     0.002 A 
HETATM   32  C   UNL     1      43.190  -8.010  11.892  1.00  0.00     0.002 A 
ENDBRANCH  22  23
ENDBRANCH  21  22
ENDBRANCH   1  21
BRANCH   1  33
HETATM   33  C   UNL     1      42.757 -12.422   6.497  1.00  0.00     0.275 C 
BRANCH  33  34
HETATM   34  C   UNL     1      44.019 -11.734   6.953  1.00  0.00    -0.033 A 
HETATM   35  C   UNL     1      45.156 -11.643   6.139  1.00  0.00     0.009 A 
HETATM   36  C   UNL     1      46.312 -11.008   6.598  1.00  0.00     0.001 A 
HETATM   37  C   UNL     1      46.341 -10.440   7.869  1.00  0.00     0.000 A 
HETATM   38  C   UNL     1      45.210 -10.490   8.678  1.00  0.00     0.001 A 
HETATM   39  C   UNL     1      44.053 -11.122   8.220  1.00  0.00     0.009 A 
ENDBRANCH  33  34
ENDBRANCH   1  33
TORSDOF 9
ENDMDL
MODEL 7
REMARK VINA RESULT:      -8.0      2.810      7.351
REMARK  9 active torsions:
REMARK  status: ('A' for Active; 'I' for Inactive)
REMARK    1  A    between atoms: O_2  and  C_3 
REMARK    2  A    between atoms: C_6  and  N_7 
REMARK       I    between atoms: N_7  and  C_8 
REMARK    3  A    between atoms: C_8  and  C_9 
REMARK    4  A    between atoms: C_9  and  N_10 
REMARK    5  A    between atoms: N_10  and  C_12 
REMARK    6  A    between atoms: N_10  and  C_24 
REMARK    7  A    between atoms: C_12  and  S_13 
REMARK    8  A    between atoms: S_13  and  C_14 
REMARK    9  A    between atoms: C_24  and  C_25 
ROOT
HETATM    1  N   UNL     1      42.215 -13.533   5.401  1.00  0.00    -0.041 N 
HETATM    2  H   UNL     1      41.598 -12.706   5.560  1.00  0.00     0.282 HD
ENDROOT
BRANCH   1   3
HETATM    3  C   UNL     1      41.879 -14.026   3.888  1.00  0.00     0.208 C 
HETATM    4  C   UNL     1      41.069 -15.347   3.997  1.00  0.00     0.049 C 
HETATM    5  C   UNL     1      41.070 -16.275   2.773  1.00  0.00     0.003 C 
HETATM    6  C   UNL     1      42.407 -16.356   2.052  1.00  0.00     0.000 C 
HETATM    7  C   UNL     1      42.988 -14.978   1.770  1.00  0.00     0.003 C 
HETATM    8  C   UNL     1      43.179 -14.214   3.080  1.00  0.00     0.049 C 
BRANCH   3   9
HETATM    9  C   UNL     1      41.106 -12.833   3.184  1.00  0.00     0.259 C 
HETATM   10  N   UNL     1      39.898 -13.124   2.593  1.00  0.00    -0.325 N 
HETATM   11  H   UNL     1      39.465 -14.015   2.776  1.00  0.00     0.169 HD
HETATM   12  O   UNL     1      41.650 -11.727   3.168  1.00  0.00    -0.270 OA
BRANCH  10  13
HETATM   13  C   UNL     1      39.166 -12.332   1.681  1.00  0.00     0.035 A 
HETATM   14  C   UNL     1      39.202 -12.486   0.298  1.00  0.00     0.032 A 
HETATM   15  C   UNL     1      38.369 -11.706  -0.515  1.00  0.00     0.039 A 
HETATM   16  C   UNL     1      37.491 -10.773   0.037  1.00  0.00     0.068 A 
HETATM   17  C   UNL     1      37.474 -10.595   1.416  1.00  0.00     0.039 A 
HETATM   18  C   UNL     1      38.305 -11.372   2.232  1.00  0.00     0.032 A 
BRANCH  16  19
HETATM   19  O   UNL     1      36.714 -10.102  -0.866  1.00  0.00    -0.356 OA
HETATM   20  C   UNL     1      37.328  -9.021  -1.559  1.00  0.00     0.210 C 
ENDBRANCH  16  19
ENDBRANCH  10  13
ENDBRANCH   3   9
ENDBRANCH   1   3
BRANCH   1  21
HETATM   21  C   UNL     1      41.661 -14.527   6.418  1.00  0.00     0.318 C 
BRANCH  21  22
HETATM   22  S   UNL     1      42.872 -15.281   7.512  1.00  0.00    -0.064 SA
BRANCH  22  23
HETATM   23  C   UNL     1      43.323 -16.695   6.652  1.00  0.00     0.169 A 
HETATM   24  N   UNL     1      43.757 -16.741   5.419  1.00  0.00    -0.223 NA
HETATM   25  C   UNL     1      43.898 -18.091   5.161  1.00  0.00     0.086 A 
HETATM   26  C   UNL     1      43.514 -18.854   6.263  1.00  0.00     0.063 A 
HETATM   27  C   UNL     1      44.330 -18.744   3.997  1.00  0.00     0.034 A 
HETATM   28  N   UNL     1      43.157 -17.928   7.208  1.00  0.00    -0.333 N 
HETATM   29  C   UNL     1      43.526 -20.249   6.275  1.00  0.00     0.032 A 
HETATM   30  H   UNL     1      42.815 -18.123   8.138  1.00  0.00     0.168 HD
HETATM   31  C   UNL     1      43.953 -20.882   5.102  1.00  0.00     0.002 A 
HETATM   32  C   UNL     1      44.349 -20.146   3.984  1.00  0.00     0.002 A 
ENDBRANCH  22  23
ENDBRANCH  21  22
ENDBRANCH   1  21
BRANCH   1  33
HETATM   33  C   UNL     1      43.638 -13.110   5.727  1.00  0.00     0.275 C 
BRANCH  33  34
HETATM   34  C   UNL     1      43.849 -11.853   6.532  1.00  0.00    -0.033 A 
HETATM   35  C   UNL     1      42.818 -10.930   6.760  1.00  0.00     0.009 A 
HETATM   36  C   UNL     1      43.051  -9.771   7.502  1.00  0.00     0.001 A 
HETATM   37  C   UNL     1      44.311  -9.526   8.042  1.00  0.00     0.000 A 
HETATM   38  C   UNL     1      45.337 -10.447   7.855  1.00  0.00     0.001 A 
HETATM   39  C   UNL     1      45.106 -11.608   7.115  1.00  0.00     0.009 A 
ENDBRANCH  33  34
ENDBRANCH   1  33
TORSDOF 9
ENDMDL
MODEL 8
REMARK VINA RESULT:      -8.0      3.217      8.083
REMARK  9 active torsions:
REMARK  status: ('A' for Active; 'I' for Inactive)
REMARK    1  A    between atoms: O_2  and  C_3 
REMARK    2  A    between atoms: C_6  and  N_7 
REMARK       I    between atoms: N_7  and  C_8 
REMARK    3  A    between atoms: C_8  and  C_9 
REMARK    4  A    between atoms: C_9  and  N_10 
REMARK    5  A    between atoms: N_10  and  C_12 
REMARK    6  A    between atoms: N_10  and  C_24 
REMARK    7  A    between atoms: C_12  and  S_13 
REMARK    8  A    between atoms: S_13  and  C_14 
REMARK    9  A    between atoms: C_24  and  C_25 
ROOT
HETATM    1  N   UNL     1      42.584 -13.911   6.399  1.00  0.00    -0.041 N 
HETATM    2  H   UNL     1      42.164 -13.338   7.163  1.00  0.00     0.282 HD
ENDROOT
BRANCH   1   3
HETATM    3  C   UNL     1      41.480 -13.895   5.204  1.00  0.00     0.208 C 
HETATM    4  C   UNL     1      40.884 -15.325   5.101  1.00  0.00     0.049 C 
HETATM    5  C   UNL     1      40.228 -15.720   3.769  1.00  0.00     0.003 C 
HETATM    6  C   UNL     1      40.951 -15.196   2.538  1.00  0.00     0.000 C 
HETATM    7  C   UNL     1      41.260 -13.710   2.646  1.00  0.00     0.003 C 
HETATM    8  C   UNL     1      42.127 -13.445   3.877  1.00  0.00     0.049 C 
BRANCH   3   9
HETATM    9  C   UNL     1      40.429 -12.766   5.572  1.00  0.00     0.259 C 
HETATM   10  N   UNL     1      40.834 -11.458   5.439  1.00  0.00    -0.325 N 
HETATM   11  H   UNL     1      41.693 -11.258   4.953  1.00  0.00     0.169 HD
HETATM   12  O   UNL     1      39.329 -13.124   5.998  1.00  0.00    -0.270 OA
BRANCH  10  13
HETATM   13  C   UNL     1      40.211 -10.301   5.956  1.00  0.00     0.035 A 
HETATM   14  C   UNL     1      40.375  -9.830   7.256  1.00  0.00     0.032 A 
HETATM   15  C   UNL     1      39.782  -8.622   7.644  1.00  0.00     0.039 A 
HETATM   16  C   UNL     1      39.026  -7.869   6.745  1.00  0.00     0.068 A 
HETATM   17  C   UNL     1      38.834  -8.351   5.454  1.00  0.00     0.039 A 
HETATM   18  C   UNL     1      39.425  -9.558   5.063  1.00  0.00     0.032 A 
BRANCH  16  19
HETATM   19  O   UNL     1      38.530  -6.697   7.244  1.00  0.00    -0.356 OA
HETATM   20  C   UNL     1      37.361  -6.180   6.619  1.00  0.00     0.210 C 
ENDBRANCH  16  19
ENDBRANCH  10  13
ENDBRANCH   3   9
ENDBRANCH   1   3
BRANCH   1  21
HETATM   21  C   UNL     1      42.643 -15.290   7.049  1.00  0.00     0.318 C 
BRANCH  21  22
HETATM   22  S   UNL     1      44.240 -16.113   6.990  1.00  0.00    -0.064 SA
BRANCH  22  23
HETATM   23  C   UNL     1      44.075 -17.151   5.635  1.00  0.00     0.169 A 
HETATM   24  N   UNL     1      43.706 -16.795   4.431  1.00  0.00    -0.223 NA
HETATM   25  C   UNL     1      43.643 -17.985   3.732  1.00  0.00     0.086 A 
HETATM   26  C   UNL     1      43.959 -19.066   4.553  1.00  0.00     0.063 A 
HETATM   27  C   UNL     1      43.301 -18.223   2.392  1.00  0.00     0.034 A 
HETATM   28  N   UNL     1      44.240 -18.498   5.768  1.00  0.00    -0.333 N 
HETATM   29  C   UNL     1      43.949 -20.392   4.118  1.00  0.00     0.032 A 
HETATM   30  H   UNL     1      44.501 -18.987   6.612  1.00  0.00     0.168 HD
HETATM   31  C   UNL     1      43.598 -20.610   2.781  1.00  0.00     0.002 A 
HETATM   32  C   UNL     1      43.281 -19.548   1.932  1.00  0.00     0.002 A 
ENDBRANCH  22  23
ENDBRANCH  21  22
ENDBRANCH   1  21
BRANCH   1  33
HETATM   33  C   UNL     1      43.967 -13.349   6.115  1.00  0.00     0.275 C 
BRANCH  33  34
HETATM   34  C   UNL     1      44.442 -12.165   6.920  1.00  0.00    -0.033 A 
HETATM   35  C   UNL     1      45.670 -11.538   6.671  1.00  0.00     0.009 A 
HETATM   36  C   UNL     1      46.083 -10.450   7.442  1.00  0.00     0.001 A 
HETATM   37  C   UNL     1      45.268  -9.962   8.460  1.00  0.00     0.000 A 
HETATM   38  C   UNL     1      44.029 -10.551   8.698  1.00  0.00     0.001 A 
HETATM   39  C   UNL     1      43.613 -11.637   7.927  1.00  0.00     0.009 A 
ENDBRANCH  33  34
ENDBRANCH   1  33
TORSDOF 9
ENDMDL
MODEL 9
REMARK VINA RESULT:      -8.0      2.592      7.167
REMARK  9 active torsions:
REMARK  status: ('A' for Active; 'I' for Inactive)
REMARK    1  A    between atoms: O_2  and  C_3 
REMARK    2  A    between atoms: C_6  and  N_7 
REMARK       I    between atoms: N_7  and  C_8 
REMARK    3  A    between atoms: C_8  and  C_9 
REMARK    4  A    between atoms: C_9  and  N_10 
REMARK    5  A    between atoms: N_10  and  C_12 
REMARK    6  A    between atoms: N_10  and  C_24 
REMARK    7  A    between atoms: C_12  and  S_13 
REMARK    8  A    between atoms: S_13  and  C_14 
REMARK    9  A    between atoms: C_24  and  C_25 
ROOT
HETATM    1  N   UNL     1      41.452 -14.181   2.987  1.00  0.00    -0.041 N 
HETATM    2  H   UNL     1      41.440 -14.469   3.990  1.00  0.00     0.282 HD
ENDROOT
BRANCH   1   3
HETATM    3  C   UNL     1      41.519 -12.556   3.015  1.00  0.00     0.208 C 
HETATM    4  C   UNL     1      40.141 -12.040   3.512  1.00  0.00     0.049 C 
HETATM    5  C   UNL     1      39.758 -10.597   3.151  1.00  0.00     0.003 C 
HETATM    6  C   UNL     1      40.178 -10.171   1.752  1.00  0.00     0.000 C 
HETATM    7  C   UNL     1      41.636 -10.502   1.469  1.00  0.00     0.003 C 
HETATM    8  C   UNL     1      41.869 -12.005   1.617  1.00  0.00     0.049 C 
BRANCH   3   9
HETATM    9  C   UNL     1      42.744 -12.169   3.946  1.00  0.00     0.259 C 
HETATM   10  N   UNL     1      42.515 -12.119   5.302  1.00  0.00    -0.325 N 
HETATM   11  H   UNL     1      41.656 -12.495   5.669  1.00  0.00     0.169 HD
HETATM   12  O   UNL     1      43.814 -11.893   3.401  1.00  0.00    -0.270 OA
BRANCH  10  13
HETATM   13  C   UNL     1      43.333 -11.541   6.298  1.00  0.00     0.035 A 
HETATM   14  C   UNL     1      44.637 -11.943   6.578  1.00  0.00     0.032 A 
HETATM   15  C   UNL     1      45.396 -11.246   7.528  1.00  0.00     0.039 A 
HETATM   16  C   UNL     1      44.871 -10.143   8.202  1.00  0.00     0.068 A 
HETATM   17  C   UNL     1      43.559  -9.758   7.947  1.00  0.00     0.039 A 
HETATM   18  C   UNL     1      42.797 -10.452   6.999  1.00  0.00     0.032 A 
BRANCH  16  19
HETATM   19  O   UNL     1      45.727  -9.537   9.078  1.00  0.00    -0.356 OA
HETATM   20  C   UNL     1      45.337  -9.521  10.446  1.00  0.00     0.210 C 
ENDBRANCH  16  19
ENDBRANCH  10  13
ENDBRANCH   3   9
ENDBRANCH   1   3
BRANCH   1  21
HETATM   21  C   UNL     1      40.077 -14.647   2.519  1.00  0.00     0.318 C 
BRANCH  21  22
HETATM   22  S   UNL     1      40.035 -15.487   0.931  1.00  0.00    -0.064 SA
BRANCH  22  23
HETATM   23  C   UNL     1      39.821 -14.190  -0.172  1.00  0.00     0.169 A 
HETATM   24  N   UNL     1      40.577 -13.924  -1.205  1.00  0.00    -0.223 NA
HETATM   25  C   UNL     1      40.052 -12.752  -1.715  1.00  0.00     0.086 A 
HETATM   26  C   UNL     1      38.978 -12.308  -0.945  1.00  0.00     0.063 A 
HETATM   27  C   UNL     1      40.456 -11.993  -2.823  1.00  0.00     0.034 A 
HETATM   28  N   UNL     1      38.848 -13.258   0.034  1.00  0.00    -0.333 N 
HETATM   29  C   UNL     1      38.273 -11.134  -1.211  1.00  0.00     0.032 A 
HETATM   30  H   UNL     1      38.170 -13.258   0.783  1.00  0.00     0.168 HD
HETATM   31  C   UNL     1      38.696 -10.387  -2.317  1.00  0.00     0.002 A 
HETATM   32  C   UNL     1      39.766 -10.807  -3.110  1.00  0.00     0.002 A 
ENDBRANCH  22  23
ENDBRANCH  21  22
ENDBRANCH   1  21
BRANCH   1  33
HETATM   33  C   UNL     1      42.579 -14.941   2.307  1.00  0.00     0.275 C 
BRANCH  33  34
HETATM   34  C   UNL     1      43.136 -16.164   2.991  1.00  0.00    -0.033 A 
HETATM   35  C   UNL     1      43.498 -16.163   4.345  1.00  0.00     0.009 A 
HETATM   36  C   UNL     1      44.021 -17.312   4.943  1.00  0.00     0.001 A 
HETATM   37  C   UNL     1      44.173 -18.480   4.202  1.00  0.00     0.000 A 
HETATM   38  C   UNL     1      43.787 -18.510   2.865  1.00  0.00     0.001 A 
HETATM   39  C   UNL     1      43.261 -17.364   2.266  1.00  0.00     0.009 A 
ENDBRANCH  33  34
ENDBRANCH   1  33
TORSDOF 9
ENDMDL
MODEL 10
REMARK VINA RESULT:      -8.0      3.056      8.021
REMARK  9 active torsions:
REMARK  status: ('A' for Active; 'I' for Inactive)
REMARK    1  A    between atoms: O_2  and  C_3 
REMARK    2  A    between atoms: C_6  and  N_7 
REMARK       I    between atoms: N_7  and  C_8 
REMARK    3  A    between atoms: C_8  and  C_9 
REMARK    4  A    between atoms: C_9  and  N_10 
REMARK    5  A    between atoms: N_10  and  C_12 
REMARK    6  A    between atoms: N_10  and  C_24 
REMARK    7  A    between atoms: C_12  and  S_13 
REMARK    8  A    between atoms: S_13  and  C_14 
REMARK    9  A    between atoms: C_24  and  C_25 
ROOT
HETATM    1  N   UNL     1      41.482 -14.434   3.342  1.00  0.00    -0.041 N 
HETATM    2  H   UNL     1      41.268 -15.025   4.174  1.00  0.00     0.282 HD
ENDROOT
BRANCH   1   3
HETATM    3  C   UNL     1      41.730 -12.941   3.936  1.00  0.00     0.208 C 
HETATM    4  C   UNL     1      43.240 -12.820   4.280  1.00  0.00     0.049 C 
HETATM    5  C   UNL     1      43.644 -11.748   5.304  1.00  0.00     0.003 C 
HETATM    6  C   UNL     1      42.670 -11.591   6.461  1.00  0.00     0.000 C 
HETATM    7  C   UNL     1      41.231 -11.461   5.982  1.00  0.00     0.003 C 
HETATM    8  C   UNL     1      40.838 -12.695   5.171  1.00  0.00     0.049 C 
BRANCH   3   9
HETATM    9  C   UNL     1      41.221 -11.923   2.831  1.00  0.00     0.259 C 
HETATM   10  N   UNL     1      39.917 -11.493   2.920  1.00  0.00    -0.325 N 
HETATM   11  H   UNL     1      39.394 -11.685   3.760  1.00  0.00     0.169 HD
HETATM   12  O   UNL     1      42.006 -11.612   1.933  1.00  0.00    -0.270 OA
BRANCH  10  13
HETATM   13  C   UNL     1      39.153 -10.831   1.934  1.00  0.00     0.035 A 
HETATM   14  C   UNL     1      39.564  -9.687   1.255  1.00  0.00     0.032 A 
HETATM   15  C   UNL     1      38.768  -9.158   0.231  1.00  0.00     0.039 A 
HETATM   16  C   UNL     1      37.564  -9.761  -0.132  1.00  0.00     0.068 A 
HETATM   17  C   UNL     1      37.136 -10.887   0.565  1.00  0.00     0.039 A 
HETATM   18  C   UNL     1      37.928 -11.419   1.589  1.00  0.00     0.032 A 
BRANCH  16  19
HETATM   19  O   UNL     1      36.902  -9.161  -1.167  1.00  0.00    -0.356 OA
HETATM   20  C   UNL     1      37.536  -8.036  -1.764  1.00  0.00     0.210 C 
ENDBRANCH  16  19
ENDBRANCH  10  13
ENDBRANCH   3   9
ENDBRANCH   1   3
BRANCH   1  21
HETATM   21  C   UNL     1      40.162 -14.489   2.579  1.00  0.00     0.318 C 
BRANCH  21  22
HETATM   22  S   UNL     1      40.217 -15.311   0.981  1.00  0.00    -0.064 SA
BRANCH  22  23
HETATM   23  C   UNL     1      40.049 -14.004  -0.117  1.00  0.00     0.169 A 
HETATM   24  N   UNL     1      39.051 -13.812  -0.941  1.00  0.00    -0.223 NA
HETATM   25  C   UNL     1      39.417 -12.691  -1.660  1.00  0.00     0.086 A 
HETATM   26  C   UNL     1      40.672 -12.230  -1.265  1.00  0.00     0.063 A 
HETATM   27  C   UNL     1      38.737 -12.020  -2.686  1.00  0.00     0.034 A 
HETATM   28  N   UNL     1      41.048 -13.090  -0.265  1.00  0.00    -0.333 N 
HETATM   29  C   UNL     1      41.304 -11.129  -1.841  1.00  0.00     0.032 A 
HETATM   30  H   UNL     1      41.916 -13.063   0.252  1.00  0.00     0.168 HD
HETATM   31  C   UNL     1      40.613 -10.476  -2.868  1.00  0.00     0.002 A 
HETATM   32  C   UNL     1      39.352 -10.911  -3.284  1.00  0.00     0.002 A 
ENDBRANCH  22  23
ENDBRANCH  21  22
ENDBRANCH   1  21
BRANCH   1  33
HETATM   33  C   UNL     1      42.613 -15.109   2.583  1.00  0.00     0.275 C 
BRANCH  33  34
HETATM   34  C   UNL     1      43.166 -16.406   3.118  1.00  0.00    -0.033 A 
HETATM   35  C   UNL     1      43.619 -16.536   4.438  1.00  0.00     0.009 A 
HETATM   36  C   UNL     1      44.135 -17.750   4.898  1.00  0.00     0.001 A 
HETATM   37  C   UNL     1      44.187 -18.854   4.052  1.00  0.00     0.000 A 
HETATM   38  C   UNL     1      43.709 -18.753   2.749  1.00  0.00     0.001 A 
HETATM   39  C   UNL     1      43.191 -17.542   2.288  1.00  0.00     0.009 A 
ENDBRANCH  33  34
ENDBRANCH   1  33
TORSDOF 9
ENDMDL
