MODEL 1
REMARK VINA RESULT:      -7.9      0.000      0.000
REMARK  3 active torsions:
REMARK  status: ('A' for Active; 'I' for Inactive)
REMARK    1  A    between atoms: N_6  and  C_7 
REMARK    2  A    between atoms: C_7  and  C_8 
REMARK    3  A    between atoms: N_10  and  C_11 
ROOT
HETATM    1  C   UNL     1      42.553 -16.734   4.118  1.00  0.00     0.073 A 
HETATM    2  C   UNL     1      42.212 -17.211   2.827  1.00  0.00     0.062 A 
HETATM    3 CL   UNL     1      40.972 -16.513   1.842  1.00  0.00    -0.082 Cl
HETATM    4  C   UNL     1      42.926 -18.261   2.222  1.00  0.00     0.026 A 
HETATM    5  C   UNL     1      44.012 -18.846   2.859  1.00  0.00     0.003 A 
HETATM    6  C   UNL     1      44.401 -18.376   4.104  1.00  0.00     0.025 A 
HETATM    7  C   UNL     1      43.687 -17.338   4.731  1.00  0.00     0.072 A 
HETATM    8  C   UNL     1      44.167 -16.915   6.020  1.00  0.00     0.102 C 
HETATM    9  N   UNL     1      44.609 -16.574   7.040  1.00  0.00    -0.191 NA
ENDROOT
BRANCH   1  10
HETATM   10  N   UNL     1      41.860 -15.728   4.829  1.00  0.00    -0.378 N 
HETATM   11  C   UNL     1      41.836 -14.415   4.161  1.00  0.00     0.129 C 
HETATM   12  C   UNL     1      41.563 -13.317   5.219  1.00  0.00     0.032 C 
HETATM   13  C   UNL     1      40.246 -13.628   5.954  1.00  0.00     0.009 C 
HETATM   14  C   UNL     1      40.227 -15.048   6.529  1.00  0.00     0.020 C 
HETATM   15  C   UNL     1      40.573 -16.085   5.457  1.00  0.00     0.123 C 
BRANCH  12  16
HETATM   16  C   UNL     1      42.767 -13.216   6.183  1.00  0.00     0.278 C 
BRANCH  16  17
HETATM   17  N   UNL     1      43.792 -12.218   5.807  1.00  0.00     0.092 N 
HETATM   18  C   UNL     1      44.771 -11.973   6.884  1.00  0.00     0.300 C 
HETATM   19  C   UNL     1      44.231 -11.192   8.103  1.00  0.00     0.264 C 
HETATM   20  N   UNL     1      43.542  -9.909   7.665  1.00  0.00    -0.072 N 
HETATM   21  C   UNL     1      42.941  -9.175   8.826  1.00  0.00     0.269 C 
HETATM   22  H   UNL     1      44.264  -9.307   7.249  1.00  0.00     0.279 HD
HETATM   23  C   UNL     1      42.510 -10.161   6.575  1.00  0.00     0.264 C 
HETATM   24  C   UNL     1      43.152 -10.942   5.412  1.00  0.00     0.300 C 
ENDBRANCH  16  17
ENDBRANCH  12  16
ENDBRANCH   1  10
TORSDOF 3
ENDMDL
MODEL 2
REMARK VINA RESULT:      -7.7      2.853      4.443
REMARK  3 active torsions:
REMARK  status: ('A' for Active; 'I' for Inactive)
REMARK    1  A    between atoms: N_6  and  C_7 
REMARK    2  A    between atoms: C_7  and  C_8 
REMARK    3  A    between atoms: N_10  and  C_11 
ROOT
HETATM    1  C   UNL     1      43.462 -18.211   4.442  1.00  0.00     0.073 A 
HETATM    2  C   UNL     1      43.682 -19.466   5.063  1.00  0.00     0.062 A 
HETATM    3 CL   UNL     1      43.574 -19.724   6.771  1.00  0.00    -0.082 Cl
HETATM    4  C   UNL     1      43.937 -20.623   4.307  1.00  0.00     0.026 A 
HETATM    5  C   UNL     1      43.950 -20.580   2.919  1.00  0.00     0.003 A 
HETATM    6  C   UNL     1      43.696 -19.378   2.276  1.00  0.00     0.025 A 
HETATM    7  C   UNL     1      43.457 -18.208   3.018  1.00  0.00     0.072 A 
HETATM    8  C   UNL     1      43.199 -17.009   2.264  1.00  0.00     0.102 C 
HETATM    9  N   UNL     1      42.955 -16.072   1.620  1.00  0.00    -0.191 NA
ENDROOT
BRANCH   1  10
HETATM   10  N   UNL     1      43.257 -16.987   5.118  1.00  0.00    -0.378 N 
HETATM   11  C   UNL     1      41.914 -16.830   5.704  1.00  0.00     0.129 C 
HETATM   12  C   UNL     1      41.630 -15.322   5.914  1.00  0.00     0.032 C 
HETATM   13  C   UNL     1      42.732 -14.708   6.796  1.00  0.00     0.009 C 
HETATM   14  C   UNL     1      44.135 -14.994   6.250  1.00  0.00     0.020 C 
HETATM   15  C   UNL     1      44.336 -16.491   5.994  1.00  0.00     0.123 C 
BRANCH  12  16
HETATM   16  C   UNL     1      41.514 -14.621   4.540  1.00  0.00     0.278 C 
BRANCH  16  17
HETATM   17  N   UNL     1      41.274 -13.163   4.597  1.00  0.00     0.092 N 
HETATM   18  C   UNL     1      39.855 -12.811   4.398  1.00  0.00     0.300 C 
HETATM   19  C   UNL     1      39.321 -13.002   2.960  1.00  0.00     0.264 C 
HETATM   20  N   UNL     1      40.220 -12.308   1.950  1.00  0.00    -0.072 N 
HETATM   21  C   UNL     1      39.766 -12.548   0.542  1.00  0.00     0.269 C 
HETATM   22  H   UNL     1      40.158 -11.299   2.135  1.00  0.00     0.279 HD
HETATM   23  C   UNL     1      41.683 -12.691   2.132  1.00  0.00     0.264 C 
HETATM   24  C   UNL     1      42.108 -12.461   3.595  1.00  0.00     0.300 C 
ENDBRANCH  16  17
ENDBRANCH  12  16
ENDBRANCH   1  10
TORSDOF 3
ENDMDL
MODEL 3
REMARK VINA RESULT:      -7.4      2.150      3.326
REMARK  3 active torsions:
REMARK  status: ('A' for Active; 'I' for Inactive)
REMARK    1  A    between atoms: N_6  and  C_7 
REMARK    2  A    between atoms: C_7  and  C_8 
REMARK    3  A    between atoms: N_10  and  C_11 
ROOT
HETATM    1  C   UNL     1      42.517 -16.491   4.486  1.00  0.00     0.073 A 
HETATM    2  C   UNL     1      43.333 -17.650   4.433  1.00  0.00     0.062 A 
HETATM    3 CL   UNL     1      43.966 -18.310   2.964  1.00  0.00    -0.082 Cl
HETATM    4  C   UNL     1      43.749 -18.308   5.604  1.00  0.00     0.026 A 
HETATM    5  C   UNL     1      43.398 -17.824   6.857  1.00  0.00     0.003 A 
HETATM    6  C   UNL     1      42.637 -16.670   6.950  1.00  0.00     0.025 A 
HETATM    7  C   UNL     1      42.198 -16.009   5.788  1.00  0.00     0.072 A 
HETATM    8  C   UNL     1      41.416 -14.816   5.982  1.00  0.00     0.102 C 
HETATM    9  N   UNL     1      40.823 -13.836   6.181  1.00  0.00    -0.191 NA
ENDROOT
BRANCH   1  10
HETATM   10  N   UNL     1      42.002 -15.799   3.367  1.00  0.00    -0.378 N 
HETATM   11  C   UNL     1      43.022 -15.127   2.543  1.00  0.00     0.129 C 
HETATM   12  C   UNL     1      42.345 -14.001   1.724  1.00  0.00     0.032 C 
HETATM   13  C   UNL     1      41.203 -14.595   0.879  1.00  0.00     0.009 C 
HETATM   14  C   UNL     1      40.220 -15.408   1.727  1.00  0.00     0.020 C 
HETATM   15  C   UNL     1      40.951 -16.458   2.569  1.00  0.00     0.123 C 
BRANCH  12  16
HETATM   16  C   UNL     1      41.855 -12.888   2.679  1.00  0.00     0.278 C 
BRANCH  16  17
HETATM   17  N   UNL     1      42.640 -11.636   2.642  1.00  0.00     0.092 N 
HETATM   18  C   UNL     1      43.797 -11.661   3.558  1.00  0.00     0.300 C 
HETATM   19  C   UNL     1      43.449 -11.583   5.063  1.00  0.00     0.264 C 
HETATM   20  N   UNL     1      42.529 -10.407   5.348  1.00  0.00    -0.072 N 
HETATM   21  C   UNL     1      42.115 -10.360   6.788  1.00  0.00     0.269 C 
HETATM   22  H   UNL     1      43.061  -9.552   5.144  1.00  0.00     0.279 HD
HETATM   23  C   UNL     1      41.319 -10.394   4.424  1.00  0.00     0.264 C 
HETATM   24  C   UNL     1      41.778 -10.473   2.956  1.00  0.00     0.300 C 
ENDBRANCH  16  17
ENDBRANCH  12  16
ENDBRANCH   1  10
TORSDOF 3
ENDMDL
MODEL 4
REMARK VINA RESULT:      -7.2      2.931      4.688
REMARK  3 active torsions:
REMARK  status: ('A' for Active; 'I' for Inactive)
REMARK    1  A    between atoms: N_6  and  C_7 
REMARK    2  A    between atoms: C_7  and  C_8 
REMARK    3  A    between atoms: N_10  and  C_11 
ROOT
HETATM    1  C   UNL     1      43.105 -16.945   4.509  1.00  0.00     0.073 A 
HETATM    2  C   UNL     1      43.522 -17.997   5.364  1.00  0.00     0.062 A 
HETATM    3 CL   UNL     1      43.346 -17.959   7.085  1.00  0.00    -0.082 Cl
HETATM    4  C   UNL     1      44.051 -19.193   4.850  1.00  0.00     0.026 A 
HETATM    5  C   UNL     1      44.153 -19.398   3.480  1.00  0.00     0.003 A 
HETATM    6  C   UNL     1      43.716 -18.410   2.613  1.00  0.00     0.025 A 
HETATM    7  C   UNL     1      43.200 -17.199   3.111  1.00  0.00     0.072 A 
HETATM    8  C   UNL     1      42.767 -16.234   2.135  1.00  0.00     0.102 C 
HETATM    9  N   UNL     1      42.391 -15.499   1.316  1.00  0.00    -0.191 NA
ENDROOT
BRANCH   1  10
HETATM   10  N   UNL     1      42.618 -15.688   4.932  1.00  0.00    -0.378 N 
HETATM   11  C   UNL     1      41.207 -15.692   5.356  1.00  0.00     0.129 C 
HETATM   12  C   UNL     1      40.651 -14.249   5.265  1.00  0.00     0.032 C 
HETATM   13  C   UNL     1      41.520 -13.308   6.119  1.00  0.00     0.009 C 
HETATM   14  C   UNL     1      43.006 -13.412   5.763  1.00  0.00     0.020 C 
HETATM   15  C   UNL     1      43.484 -14.867   5.800  1.00  0.00     0.123 C 
BRANCH  12  16
HETATM   16  C   UNL     1      40.587 -13.811   3.783  1.00  0.00     0.278 C 
BRANCH  16  17
HETATM   17  N   UNL     1      40.015 -12.468   3.549  1.00  0.00     0.092 N 
HETATM   18  C   UNL     1      38.916 -12.481   2.564  1.00  0.00     0.300 C 
HETATM   19  C   UNL     1      39.345 -12.727   1.099  1.00  0.00     0.264 C 
HETATM   20  N   UNL     1      40.457 -11.774   0.690  1.00  0.00    -0.072 N 
HETATM   21  C   UNL     1      40.943 -12.049  -0.701  1.00  0.00     0.269 C 
HETATM   22  H   UNL     1      40.061 -10.826   0.706  1.00  0.00     0.279 HD
HETATM   23  C   UNL     1      41.607 -11.780   1.689  1.00  0.00     0.264 C 
HETATM   24  C   UNL     1      41.069 -11.525   3.110  1.00  0.00     0.300 C 
ENDBRANCH  16  17
ENDBRANCH  12  16
ENDBRANCH   1  10
TORSDOF 3
ENDMDL
MODEL 5
REMARK VINA RESULT:      -7.1      1.441      2.360
REMARK  3 active torsions:
REMARK  status: ('A' for Active; 'I' for Inactive)
REMARK    1  A    between atoms: N_6  and  C_7 
REMARK    2  A    between atoms: C_7  and  C_8 
REMARK    3  A    between atoms: N_10  and  C_11 
ROOT
HETATM    1  C   UNL     1      42.607 -16.727   4.243  1.00  0.00     0.073 A 
HETATM    2  C   UNL     1      43.679 -17.444   4.834  1.00  0.00     0.062 A 
HETATM    3 CL   UNL     1      44.195 -17.221   6.470  1.00  0.00    -0.082 Cl
HETATM    4  C   UNL     1      44.358 -18.456   4.133  1.00  0.00     0.026 A 
HETATM    5  C   UNL     1      43.979 -18.810   2.845  1.00  0.00     0.003 A 
HETATM    6  C   UNL     1      42.908 -18.160   2.251  1.00  0.00     0.025 A 
HETATM    7  C   UNL     1      42.229 -17.133   2.931  1.00  0.00     0.072 A 
HETATM    8  C   UNL     1      41.128 -16.520   2.237  1.00  0.00     0.102 C 
HETATM    9  N   UNL     1      40.220 -16.078   1.659  1.00  0.00    -0.191 NA
ENDROOT
BRANCH   1  10
HETATM   10  N   UNL     1      41.906 -15.658   4.845  1.00  0.00    -0.378 N 
HETATM   11  C   UNL     1      41.961 -14.392   4.093  1.00  0.00     0.129 C 
HETATM   12  C   UNL     1      41.660 -13.220   5.060  1.00  0.00     0.032 C 
HETATM   13  C   UNL     1      40.294 -13.446   5.733  1.00  0.00     0.009 C 
HETATM   14  C   UNL     1      40.198 -14.824   6.396  1.00  0.00     0.020 C 
HETATM   15  C   UNL     1      40.574 -15.938   5.416  1.00  0.00     0.123 C 
BRANCH  12  16
HETATM   16  C   UNL     1      42.809 -13.088   6.086  1.00  0.00     0.278 C 
BRANCH  16  17
HETATM   17  N   UNL     1      43.829 -12.068   5.760  1.00  0.00     0.092 N 
HETATM   18  C   UNL     1      44.835 -11.907   6.827  1.00  0.00     0.300 C 
HETATM   19  C   UNL     1      44.329 -11.215   8.114  1.00  0.00     0.264 C 
HETATM   20  N   UNL     1      43.636  -9.901   7.788  1.00  0.00    -0.072 N 
HETATM   21  C   UNL     1      43.067  -9.253   9.014  1.00  0.00     0.269 C 
HETATM   22  H   UNL     1      44.351  -9.273   7.401  1.00  0.00     0.279 HD
HETATM   23  C   UNL     1      42.577 -10.069   6.708  1.00  0.00     0.264 C 
HETATM   24  C   UNL     1      43.187 -10.764   5.476  1.00  0.00     0.300 C 
ENDBRANCH  16  17
ENDBRANCH  12  16
ENDBRANCH   1  10
TORSDOF 3
ENDMDL
MODEL 6
REMARK VINA RESULT:      -6.9      3.406      4.695
REMARK  3 active torsions:
REMARK  status: ('A' for Active; 'I' for Inactive)
REMARK    1  A    between atoms: N_6  and  C_7 
REMARK    2  A    between atoms: C_7  and  C_8 
REMARK    3  A    between atoms: N_10  and  C_11 
ROOT
HETATM    1  C   UNL     1      42.866 -15.795   4.206  1.00  0.00     0.073 A 
HETATM    2  C   UNL     1      43.665 -16.967   4.228  1.00  0.00     0.062 A 
HETATM    3 CL   UNL     1      43.777 -18.077   2.905  1.00  0.00    -0.082 Cl
HETATM    4  C   UNL     1      44.491 -17.269   5.325  1.00  0.00     0.026 A 
HETATM    5  C   UNL     1      44.577 -16.411   6.413  1.00  0.00     0.003 A 
HETATM    6  C   UNL     1      43.842 -15.235   6.407  1.00  0.00     0.025 A 
HETATM    7  C   UNL     1      42.998 -14.925   5.326  1.00  0.00     0.072 A 
HETATM    8  C   UNL     1      42.279 -13.681   5.406  1.00  0.00     0.102 C 
HETATM    9  N   UNL     1      41.748 -12.650   5.491  1.00  0.00    -0.191 NA
ENDROOT
BRANCH   1  10
HETATM   10  N   UNL     1      41.964 -15.438   3.179  1.00  0.00    -0.378 N 
HETATM   11  C   UNL     1      42.603 -14.896   1.966  1.00  0.00     0.129 C 
HETATM   12  C   UNL     1      41.562 -14.062   1.179  1.00  0.00     0.032 C 
HETATM   13  C   UNL     1      40.338 -14.938   0.858  1.00  0.00     0.009 C 
HETATM   14  C   UNL     1      39.761 -15.607   2.111  1.00  0.00     0.020 C 
HETATM   15  C   UNL     1      40.848 -16.357   2.887  1.00  0.00     0.123 C 
BRANCH  12  16
HETATM   16  C   UNL     1      41.189 -12.800   1.992  1.00  0.00     0.278 C 
BRANCH  16  17
HETATM   17  N   UNL     1      41.676 -11.523   1.428  1.00  0.00     0.092 N 
HETATM   18  C   UNL     1      41.731 -10.441   2.431  1.00  0.00     0.300 C 
HETATM   19  C   UNL     1      40.359  -9.897   2.890  1.00  0.00     0.264 C 
HETATM   20  N   UNL     1      39.497  -9.516   1.697  1.00  0.00    -0.072 N 
HETATM   21  C   UNL     1      38.132  -9.061   2.118  1.00  0.00     0.269 C 
HETATM   22  H   UNL     1      39.963  -8.729   1.228  1.00  0.00     0.279 HD
HETATM   23  C   UNL     1      39.414 -10.640   0.673  1.00  0.00     0.264 C 
HETATM   24  C   UNL     1      40.831 -11.104   0.286  1.00  0.00     0.300 C 
ENDBRANCH  16  17
ENDBRANCH  12  16
ENDBRANCH   1  10
TORSDOF 3
ENDMDL
MODEL 7
REMARK VINA RESULT:      -6.7      2.800      4.907
REMARK  3 active torsions:
REMARK  status: ('A' for Active; 'I' for Inactive)
REMARK    1  A    between atoms: N_6  and  C_7 
REMARK    2  A    between atoms: C_7  and  C_8 
REMARK    3  A    between atoms: N_10  and  C_11 
ROOT
HETATM    1  C   UNL     1      41.287 -13.699   1.164  1.00  0.00     0.073 A 
HETATM    2  C   UNL     1      40.318 -13.813   0.134  1.00  0.00     0.062 A 
HETATM    3 CL   UNL     1      39.521 -15.294  -0.273  1.00  0.00    -0.082 Cl
HETATM    4  C   UNL     1      39.882 -12.689  -0.589  1.00  0.00     0.026 A 
HETATM    5  C   UNL     1      40.365 -11.420  -0.296  1.00  0.00     0.003 A 
HETATM    6  C   UNL     1      41.281 -11.265   0.732  1.00  0.00     0.025 A 
HETATM    7  C   UNL     1      41.741 -12.381   1.455  1.00  0.00     0.072 A 
HETATM    8  C   UNL     1      42.687 -12.121   2.507  1.00  0.00     0.102 C 
HETATM    9  N   UNL     1      43.419 -11.865   3.373  1.00  0.00    -0.191 NA
ENDROOT
BRANCH   1  10
HETATM   10  N   UNL     1      41.828 -14.775   1.903  1.00  0.00    -0.378 N 
HETATM   11  C   UNL     1      40.893 -15.387   2.864  1.00  0.00     0.129 C 
HETATM   12  C   UNL     1      41.707 -16.132   3.951  1.00  0.00     0.032 C 
HETATM   13  C   UNL     1      42.628 -17.170   3.283  1.00  0.00     0.009 C 
HETATM   14  C   UNL     1      43.501 -16.548   2.188  1.00  0.00     0.020 C 
HETATM   15  C   UNL     1      42.652 -15.764   1.182  1.00  0.00     0.123 C 
BRANCH  12  16
HETATM   16  C   UNL     1      42.491 -15.109   4.804  1.00  0.00     0.278 C 
BRANCH  16  17
HETATM   17  N   UNL     1      41.989 -14.923   6.182  1.00  0.00     0.092 N 
HETATM   18  C   UNL     1      40.845 -13.993   6.252  1.00  0.00     0.300 C 
HETATM   19  C   UNL     1      41.187 -12.505   6.008  1.00  0.00     0.264 C 
HETATM   20  N   UNL     1      42.333 -12.057   6.900  1.00  0.00    -0.072 N 
HETATM   21  C   UNL     1      42.734 -10.639   6.622  1.00  0.00     0.269 C 
HETATM   22  H   UNL     1      41.996 -12.107   7.870  1.00  0.00     0.279 HD
HETATM   23  C   UNL     1      43.527 -12.997   6.810  1.00  0.00     0.264 C 
HETATM   24  C   UNL     1      43.075 -14.447   7.070  1.00  0.00     0.300 C 
ENDBRANCH  16  17
ENDBRANCH  12  16
ENDBRANCH   1  10
TORSDOF 3
ENDMDL
MODEL 8
REMARK VINA RESULT:      -6.6      2.758      6.640
REMARK  3 active torsions:
REMARK  status: ('A' for Active; 'I' for Inactive)
REMARK    1  A    between atoms: N_6  and  C_7 
REMARK    2  A    between atoms: C_7  and  C_8 
REMARK    3  A    between atoms: N_10  and  C_11 
ROOT
HETATM    1  C   UNL     1      40.562 -13.150   4.060  1.00  0.00     0.073 A 
HETATM    2  C   UNL     1      39.619 -12.224   3.545  1.00  0.00     0.062 A 
HETATM    3 CL   UNL     1      39.169 -12.141   1.876  1.00  0.00    -0.082 Cl
HETATM    4  C   UNL     1      38.922 -11.343   4.390  1.00  0.00     0.026 A 
HETATM    5  C   UNL     1      39.111 -11.372   5.765  1.00  0.00     0.003 A 
HETATM    6  C   UNL     1      39.993 -12.294   6.308  1.00  0.00     0.025 A 
HETATM    7  C   UNL     1      40.712 -13.171   5.475  1.00  0.00     0.072 A 
HETATM    8  C   UNL     1      41.601 -14.095   6.129  1.00  0.00     0.102 C 
HETATM    9  N   UNL     1      42.277 -14.851   6.697  1.00  0.00    -0.191 NA
ENDROOT
BRANCH   1  10
HETATM   10  N   UNL     1      41.351 -14.031   3.287  1.00  0.00    -0.378 N 
HETATM   11  C   UNL     1      40.612 -15.171   2.715  1.00  0.00     0.129 C 
HETATM   12  C   UNL     1      41.614 -16.305   2.384  1.00  0.00     0.032 C 
HETATM   13  C   UNL     1      42.700 -15.770   1.432  1.00  0.00     0.009 C 
HETATM   14  C   UNL     1      43.370 -14.503   1.974  1.00  0.00     0.020 C 
HETATM   15  C   UNL     1      42.330 -13.444   2.351  1.00  0.00     0.123 C 
BRANCH  12  16
HETATM   16  C   UNL     1      42.206 -16.872   3.695  1.00  0.00     0.278 C 
BRANCH  16  17
HETATM   17  N   UNL     1      43.672 -17.069   3.690  1.00  0.00     0.092 N 
HETATM   18  C   UNL     1      44.088 -18.225   2.872  1.00  0.00     0.300 C 
HETATM   19  C   UNL     1      43.745 -19.611   3.465  1.00  0.00     0.264 C 
HETATM   20  N   UNL     1      44.239 -19.727   4.898  1.00  0.00    -0.072 N 
HETATM   21  C   UNL     1      43.847 -21.034   5.519  1.00  0.00     0.269 C 
HETATM   22  H   UNL     1      45.266 -19.687   4.866  1.00  0.00     0.279 HD
HETATM   23  C   UNL     1      43.787 -18.551   5.753  1.00  0.00     0.264 C 
HETATM   24  C   UNL     1      44.179 -17.225   5.072  1.00  0.00     0.300 C 
ENDBRANCH  16  17
ENDBRANCH  12  16
ENDBRANCH   1  10
TORSDOF 3
ENDMDL
MODEL 9
REMARK VINA RESULT:      -6.6      2.735      4.595
REMARK  3 active torsions:
REMARK  status: ('A' for Active; 'I' for Inactive)
REMARK    1  A    between atoms: N_6  and  C_7 
REMARK    2  A    between atoms: C_7  and  C_8 
REMARK    3  A    between atoms: N_10  and  C_11 
ROOT
HETATM    1  C   UNL     1      43.236 -16.718   4.299  1.00  0.00     0.073 A 
HETATM    2  C   UNL     1      43.364 -17.171   2.962  1.00  0.00     0.062 A 
HETATM    3 CL   UNL     1      43.116 -16.161   1.579  1.00  0.00    -0.082 Cl
HETATM    4  C   UNL     1      43.778 -18.482   2.669  1.00  0.00     0.026 A 
HETATM    5  C   UNL     1      44.109 -19.370   3.684  1.00  0.00     0.003 A 
HETATM    6  C   UNL     1      44.038 -18.948   5.003  1.00  0.00     0.025 A 
HETATM    7  C   UNL     1      43.608 -17.645   5.314  1.00  0.00     0.072 A 
HETATM    8  C   UNL     1      43.570 -17.297   6.710  1.00  0.00     0.102 C 
HETATM    9  N   UNL     1      43.592 -17.041   7.844  1.00  0.00    -0.191 NA
ENDROOT
BRANCH   1  10
HETATM   10  N   UNL     1      42.772 -15.442   4.692  1.00  0.00    -0.378 N 
HETATM   11  C   UNL     1      41.342 -15.395   5.043  1.00  0.00     0.129 C 
HETATM   12  C   UNL     1      40.841 -13.934   4.917  1.00  0.00     0.032 C 
HETATM   13  C   UNL     1      41.698 -13.018   5.810  1.00  0.00     0.009 C 
HETATM   14  C   UNL     1      43.196 -13.176   5.531  1.00  0.00     0.020 C 
HETATM   15  C   UNL     1      43.620 -14.646   5.599  1.00  0.00     0.123 C 
BRANCH  12  16
HETATM   16  C   UNL     1      40.869 -13.504   3.432  1.00  0.00     0.278 C 
BRANCH  16  17
HETATM   17  N   UNL     1      39.624 -13.768   2.678  1.00  0.00     0.092 N 
HETATM   18  C   UNL     1      39.848 -14.604   1.483  1.00  0.00     0.300 C 
HETATM   19  C   UNL     1      40.591 -13.908   0.320  1.00  0.00     0.264 C 
HETATM   20  N   UNL     1      39.931 -12.585  -0.033  1.00  0.00    -0.072 N 
HETATM   21  C   UNL     1      40.684 -11.855  -1.105  1.00  0.00     0.269 C 
HETATM   22  H   UNL     1      38.995 -12.803  -0.397  1.00  0.00     0.279 HD
HETATM   23  C   UNL     1      39.725 -11.706   1.193  1.00  0.00     0.264 C 
HETATM   24  C   UNL     1      38.977 -12.495   2.285  1.00  0.00     0.300 C 
ENDBRANCH  16  17
ENDBRANCH  12  16
ENDBRANCH   1  10
TORSDOF 3
ENDMDL
MODEL 10
REMARK VINA RESULT:      -6.5      3.520      5.555
REMARK  3 active torsions:
REMARK  status: ('A' for Active; 'I' for Inactive)
REMARK    1  A    between atoms: N_6  and  C_7 
REMARK    2  A    between atoms: C_7  and  C_8 
REMARK    3  A    between atoms: N_10  and  C_11 
ROOT
HETATM    1  C   UNL     1      40.664 -12.780   0.883  1.00  0.00     0.073 A 
HETATM    2  C   UNL     1      40.815 -12.008  -0.297  1.00  0.00     0.062 A 
HETATM    3 CL   UNL     1      41.490 -10.415  -0.321  1.00  0.00    -0.082 Cl
HETATM    4  C   UNL     1      40.485 -12.529  -1.561  1.00  0.00     0.026 A 
HETATM    5  C   UNL     1      40.029 -13.833  -1.698  1.00  0.00     0.003 A 
HETATM    6  C   UNL     1      39.909 -14.632  -0.572  1.00  0.00     0.025 A 
HETATM    7  C   UNL     1      40.218 -14.121   0.702  1.00  0.00     0.072 A 
HETATM    8  C   UNL     1      40.067 -15.024   1.812  1.00  0.00     0.102 C 
HETATM    9  N   UNL     1      39.972 -15.796   2.676  1.00  0.00    -0.191 NA
ENDROOT
BRANCH   1  10
HETATM   10  N   UNL     1      40.912 -12.326   2.197  1.00  0.00    -0.378 N 
HETATM   11  C   UNL     1      42.339 -12.165   2.528  1.00  0.00     0.129 C 
HETATM   12  C   UNL     1      42.506 -12.207   4.068  1.00  0.00     0.032 C 
HETATM   13  C   UNL     1      41.626 -11.119   4.711  1.00  0.00     0.009 C 
HETATM   14  C   UNL     1      40.167 -11.211   4.253  1.00  0.00     0.020 C 
HETATM   15  C   UNL     1      40.067 -11.237   2.725  1.00  0.00     0.123 C 
BRANCH  12  16
HETATM   16  C   UNL     1      42.166 -13.624   4.586  1.00  0.00     0.278 C 
BRANCH  16  17
HETATM   17  N   UNL     1      41.999 -13.733   6.052  1.00  0.00     0.092 N 
HETATM   18  C   UNL     1      43.271 -13.998   6.752  1.00  0.00     0.300 C 
HETATM   19  C   UNL     1      43.851 -15.417   6.555  1.00  0.00     0.264 C 
HETATM   20  N   UNL     1      42.807 -16.479   6.860  1.00  0.00    -0.072 N 
HETATM   21  C   UNL     1      43.326 -17.861   6.598  1.00  0.00     0.269 C 
HETATM   22  H   UNL     1      42.590 -16.407   7.863  1.00  0.00     0.279 HD
HETATM   23  C   UNL     1      41.503 -16.226   6.117  1.00  0.00     0.264 C 
HETATM   24  C   UNL     1      41.015 -14.789   6.384  1.00  0.00     0.300 C 
ENDBRANCH  16  17
ENDBRANCH  12  16
ENDBRANCH   1  10
TORSDOF 3
ENDMDL
