MODEL 1
REMARK VINA RESULT:      -9.7      0.000      0.000
REMARK  9 active torsions:
REMARK  status: ('A' for Active; 'I' for Inactive)
REMARK    1  A    between atoms: C_3  and  C_4 
REMARK    2  A    between atoms: C_4  and  C_5 
REMARK    3  A    between atoms: C_5  and  N_6 
REMARK       I    between atoms: N_6  and  C_7 
REMARK    4  A    between atoms: C_7  and  C_8 
REMARK    5  A    between atoms: C_8  and  C_9 
REMARK    6  A    between atoms: C_9  and  C_10 
REMARK    7  A    between atoms: C_9  and  C_26 
REMARK    8  A    between atoms: C_14  and  C_15 
REMARK    9  A    between atoms: C_28  and  N_29 
ROOT
HETATM    1  C   UNL     1      41.671 -11.763   1.483  1.00  0.00     0.062 C 
ENDROOT
BRANCH   1   2
HETATM    2  C   UNL     1      41.900 -10.679   2.549  1.00  0.00     0.116 C 
BRANCH   2   3
HETATM    3  C   UNL     1      42.825 -11.033   3.699  1.00  0.00     0.218 C 
HETATM    4  N   UNL     1      42.206 -11.278   4.904  1.00  0.00    -0.361 N 
HETATM    5  H   UNL     1      41.230 -11.026   5.015  1.00  0.00     0.162 HD
HETATM    6  O   UNL     1      44.039 -11.142   3.544  1.00  0.00    -0.274 OA
BRANCH   4   7
HETATM    7  C   UNL     1      42.992 -11.611   6.078  1.00  0.00     0.128 C 
BRANCH   7   8
HETATM    8  C   UNL     1      43.592 -13.010   6.008  1.00  0.00     0.079 C 
BRANCH   8   9
HETATM    9  C   UNL     1      42.532 -14.052   6.251  1.00  0.00     0.035 A 
HETATM   10  C   UNL     1      42.873 -15.391   6.424  1.00  0.00     0.027 A 
HETATM   11  C   UNL     1      41.856 -16.326   6.596  1.00  0.00     0.003 A 
HETATM   12  C   UNL     1      40.533 -15.904   6.588  1.00  0.00     0.019 A 
HETATM   13  C   UNL     1      40.280 -14.556   6.408  1.00  0.00     0.117 A 
HETATM   14  N   UNL     1      41.246 -13.627   6.241  1.00  0.00    -0.266 NA
ENDBRANCH   8   9
ENDBRANCH   7   8
ENDBRANCH   4   7
ENDBRANCH   2   3
ENDBRANCH   1   2
BRANCH   1  15
HETATM   15  C   UNL     1      41.103 -13.047   2.057  1.00  0.00    -0.021 A 
HETATM   16  C   UNL     1      41.824 -14.286   2.170  1.00  0.00    -0.001 A 
HETATM   17  C   UNL     1      40.985 -15.215   2.781  1.00  0.00     0.043 A 
HETATM   18  C   UNL     1      43.129 -14.690   1.829  1.00  0.00     0.015 A 
HETATM   19  C   UNL     1      41.386 -16.530   3.066  1.00  0.00     0.044 A 
HETATM   20  N   UNL     1      39.788 -14.582   3.017  1.00  0.00    -0.365 N 
HETATM   21  C   UNL     1      42.697 -16.933   2.735  1.00  0.00    -0.005 A 
HETATM   22  C   UNL     1      43.545 -15.996   2.123  1.00  0.00     0.015 A 
HETATM   23  H   UNL     1      38.981 -15.020   3.441  1.00  0.00     0.165 HD
HETATM   24  C   UNL     1      39.859 -13.274   2.622  1.00  0.00     0.097 A 
BRANCH  21  25
HETATM   25  C   UNL     1      43.190 -18.294   3.035  1.00  0.00     0.066 A 
HETATM   26  N   UNL     1      43.712 -18.469   4.276  1.00  0.00    -0.260 NA
HETATM   27  C   UNL     1      44.172 -19.696   4.604  1.00  0.00     0.117 A 
HETATM   28  C   UNL     1      44.148 -20.780   3.747  1.00  0.00     0.019 A 
HETATM   29  C   UNL     1      43.621 -20.595   2.475  1.00  0.00     0.004 A 
HETATM   30  C   UNL     1      43.137 -19.339   2.113  1.00  0.00     0.032 A 
ENDBRANCH  21  25
ENDBRANCH   1  15
BRANCH   1  31
HETATM   31  C   UNL     1      40.885 -11.418   0.217  1.00  0.00    -0.047 A 
HETATM   32  C   UNL     1      40.796 -12.367  -0.826  1.00  0.00     0.043 A 
HETATM   33  C   UNL     1      40.099 -12.076  -2.009  1.00  0.00     0.103 A 
HETATM   34  C   UNL     1      39.494 -10.829  -2.189  1.00  0.00     0.036 A 
HETATM   35  C   UNL     1      39.597  -9.875  -1.181  1.00  0.00     0.003 A 
HETATM   36  C   UNL     1      40.286 -10.166   0.002  1.00  0.00     0.008 A 
BRANCH  33  37
HETATM   37  N   UNL     1      40.001 -13.089  -3.066  1.00  0.00    -0.116 N 
HETATM   38  O   UNL     1      41.049 -13.622  -3.457  1.00  0.00    -0.532 OA
HETATM   39  O   UNL     1      38.873 -13.355  -3.507  1.00  0.00    -0.532 OA
ENDBRANCH  33  37
ENDBRANCH   1  31
TORSDOF 9
ENDMDL
MODEL 2
REMARK VINA RESULT:      -9.3      3.051      6.631
REMARK  9 active torsions:
REMARK  status: ('A' for Active; 'I' for Inactive)
REMARK    1  A    between atoms: C_3  and  C_4 
REMARK    2  A    between atoms: C_4  and  C_5 
REMARK    3  A    between atoms: C_5  and  N_6 
REMARK       I    between atoms: N_6  and  C_7 
REMARK    4  A    between atoms: C_7  and  C_8 
REMARK    5  A    between atoms: C_8  and  C_9 
REMARK    6  A    between atoms: C_9  and  C_10 
REMARK    7  A    between atoms: C_9  and  C_26 
REMARK    8  A    between atoms: C_14  and  C_15 
REMARK    9  A    between atoms: C_28  and  N_29 
ROOT
HETATM    1  C   UNL     1      42.273 -11.892   6.163  1.00  0.00     0.062 C 
ENDROOT
BRANCH   1   2
HETATM    2  C   UNL     1      41.024 -11.011   6.003  1.00  0.00     0.116 C 
BRANCH   2   3
HETATM    3  C   UNL     1      39.901 -11.562   5.143  1.00  0.00     0.218 C 
HETATM    4  N   UNL     1      39.715 -10.931   3.935  1.00  0.00    -0.361 N 
HETATM    5  H   UNL     1      40.176 -10.044   3.767  1.00  0.00     0.162 HD
HETATM    6  O   UNL     1      39.240 -12.539   5.490  1.00  0.00    -0.274 OA
BRANCH   4   7
HETATM    7  C   UNL     1      38.660 -11.363   3.036  1.00  0.00     0.128 C 
BRANCH   7   8
HETATM    8  C   UNL     1      39.157 -11.600   1.615  1.00  0.00     0.079 C 
BRANCH   8   9
HETATM    9  C   UNL     1      39.494 -13.052   1.408  1.00  0.00     0.035 A 
HETATM   10  C   UNL     1      39.467 -13.950   2.473  1.00  0.00     0.027 A 
HETATM   11  C   UNL     1      39.834 -15.273   2.244  1.00  0.00     0.003 A 
HETATM   12  C   UNL     1      40.222 -15.663   0.969  1.00  0.00     0.019 A 
HETATM   13  C   UNL     1      40.224 -14.708  -0.032  1.00  0.00     0.117 A 
HETATM   14  N   UNL     1      39.870 -13.419   0.160  1.00  0.00    -0.266 NA
ENDBRANCH   8   9
ENDBRANCH   7   8
ENDBRANCH   4   7
ENDBRANCH   2   3
ENDBRANCH   1   2
BRANCH   1  15
HETATM   15  C   UNL     1      42.634 -12.644   4.896  1.00  0.00    -0.021 A 
HETATM   16  C   UNL     1      42.821 -14.067   4.809  1.00  0.00    -0.001 A 
HETATM   17  C   UNL     1      43.098 -14.382   3.481  1.00  0.00     0.043 A 
HETATM   18  C   UNL     1      42.752 -15.118   5.743  1.00  0.00     0.015 A 
HETATM   19  C   UNL     1      43.312 -15.698   3.041  1.00  0.00     0.044 A 
HETATM   20  N   UNL     1      43.102 -13.200   2.779  1.00  0.00    -0.365 N 
HETATM   21  C   UNL     1      43.233 -16.753   3.972  1.00  0.00    -0.005 A 
HETATM   22  C   UNL     1      42.949 -16.438   5.311  1.00  0.00     0.015 A 
HETATM   23  H   UNL     1      43.291 -13.121   1.789  1.00  0.00     0.165 HD
HETATM   24  C   UNL     1      42.789 -12.157   3.608  1.00  0.00     0.097 A 
BRANCH  21  25
HETATM   25  C   UNL     1      43.420 -18.163   3.568  1.00  0.00     0.066 A 
HETATM   26  N   UNL     1      43.919 -18.987   4.525  1.00  0.00    -0.260 NA
HETATM   27  C   UNL     1      44.103 -20.287   4.209  1.00  0.00     0.117 A 
HETATM   28  C   UNL     1      43.820 -20.825   2.967  1.00  0.00     0.019 A 
HETATM   29  C   UNL     1      43.319 -19.977   1.989  1.00  0.00     0.004 A 
HETATM   30  C   UNL     1      43.115 -18.631   2.289  1.00  0.00     0.032 A 
ENDBRANCH  21  25
ENDBRANCH   1  15
BRANCH   1  31
HETATM   31  C   UNL     1      43.554 -11.285   6.738  1.00  0.00    -0.047 A 
HETATM   32  C   UNL     1      43.474 -10.124   7.538  1.00  0.00     0.043 A 
HETATM   33  C   UNL     1      44.631  -9.531   8.065  1.00  0.00     0.103 A 
HETATM   34  C   UNL     1      45.893 -10.064   7.790  1.00  0.00     0.036 A 
HETATM   35  C   UNL     1      45.988 -11.192   6.980  1.00  0.00     0.003 A 
HETATM   36  C   UNL     1      44.834 -11.789   6.459  1.00  0.00     0.008 A 
BRANCH  33  37
HETATM   37  N   UNL     1      44.519  -8.340   8.916  1.00  0.00    -0.116 N 
HETATM   38  O   UNL     1      45.102  -7.309   8.549  1.00  0.00    -0.532 OA
HETATM   39  O   UNL     1      43.843  -8.432   9.952  1.00  0.00    -0.532 OA
ENDBRANCH  33  37
ENDBRANCH   1  31
TORSDOF 9
ENDMDL
MODEL 3
REMARK VINA RESULT:      -9.1      4.103      7.146
REMARK  9 active torsions:
REMARK  status: ('A' for Active; 'I' for Inactive)
REMARK    1  A    between atoms: C_3  and  C_4 
REMARK    2  A    between atoms: C_4  and  C_5 
REMARK    3  A    between atoms: C_5  and  N_6 
REMARK       I    between atoms: N_6  and  C_7 
REMARK    4  A    between atoms: C_7  and  C_8 
REMARK    5  A    between atoms: C_8  and  C_9 
REMARK    6  A    between atoms: C_9  and  C_10 
REMARK    7  A    between atoms: C_9  and  C_26 
REMARK    8  A    between atoms: C_14  and  C_15 
REMARK    9  A    between atoms: C_28  and  N_29 
ROOT
HETATM    1  C   UNL     1      42.256 -11.884   5.993  1.00  0.00     0.062 C 
ENDROOT
BRANCH   1   2
HETATM    2  C   UNL     1      41.160 -10.816   5.846  1.00  0.00     0.116 C 
BRANCH   2   3
HETATM    3  C   UNL     1      40.011 -10.872   6.836  1.00  0.00     0.218 C 
HETATM    4  N   UNL     1      40.134 -10.053   7.935  1.00  0.00    -0.361 N 
HETATM    5  H   UNL     1      41.032  -9.623   8.129  1.00  0.00     0.162 HD
HETATM    6  O   UNL     1      39.017 -11.567   6.636  1.00  0.00    -0.274 OA
BRANCH   4   7
HETATM    7  C   UNL     1      39.103 -10.035   8.956  1.00  0.00     0.128 C 
BRANCH   7   8
HETATM    8  C   UNL     1      39.213  -8.830   9.883  1.00  0.00     0.079 C 
BRANCH   8   9
HETATM    9  C   UNL     1      40.065  -9.160  11.079  1.00  0.00     0.035 A 
HETATM   10  C   UNL     1      39.590  -8.954  12.373  1.00  0.00     0.027 A 
HETATM   11  C   UNL     1      40.432  -9.227  13.448  1.00  0.00     0.003 A 
HETATM   12  C   UNL     1      41.719  -9.689  13.207  1.00  0.00     0.019 A 
HETATM   13  C   UNL     1      42.113  -9.864  11.892  1.00  0.00     0.117 A 
HETATM   14  N   UNL     1      41.318  -9.610  10.830  1.00  0.00    -0.266 NA
ENDBRANCH   8   9
ENDBRANCH   7   8
ENDBRANCH   4   7
ENDBRANCH   2   3
ENDBRANCH   1   2
BRANCH   1  15
HETATM   15  C   UNL     1      42.478 -12.683   4.723  1.00  0.00    -0.021 A 
HETATM   16  C   UNL     1      42.747 -14.095   4.676  1.00  0.00    -0.001 A 
HETATM   17  C   UNL     1      42.848 -14.467   3.338  1.00  0.00     0.043 A 
HETATM   18  C   UNL     1      42.887 -15.094   5.658  1.00  0.00     0.015 A 
HETATM   19  C   UNL     1      43.085 -15.791   2.933  1.00  0.00     0.044 A 
HETATM   20  N   UNL     1      42.669 -13.329   2.588  1.00  0.00    -0.365 N 
HETATM   21  C   UNL     1      43.215 -16.794   3.914  1.00  0.00    -0.005 A 
HETATM   22  C   UNL     1      43.109 -16.421   5.264  1.00  0.00     0.015 A 
HETATM   23  H   UNL     1      42.705 -13.295   1.579  1.00  0.00     0.165 HD
HETATM   24  C   UNL     1      42.409 -12.262   3.404  1.00  0.00     0.097 A 
BRANCH  21  25
HETATM   25  C   UNL     1      43.436 -18.211   3.553  1.00  0.00     0.066 A 
HETATM   26  N   UNL     1      43.945 -18.995   4.538  1.00  0.00    -0.260 NA
HETATM   27  C   UNL     1      44.161 -20.300   4.262  1.00  0.00     0.117 A 
HETATM   28  C   UNL     1      43.901 -20.880   3.035  1.00  0.00     0.019 A 
HETATM   29  C   UNL     1      43.389 -20.072   2.028  1.00  0.00     0.004 A 
HETATM   30  C   UNL     1      43.154 -18.723   2.287  1.00  0.00     0.032 A 
ENDBRANCH  21  25
ENDBRANCH   1  15
BRANCH   1  31
HETATM   31  C   UNL     1      43.623 -11.488   6.551  1.00  0.00    -0.047 A 
HETATM   32  C   UNL     1      43.711 -10.939   7.850  1.00  0.00     0.043 A 
HETATM   33  C   UNL     1      44.947 -10.547   8.385  1.00  0.00     0.103 A 
HETATM   34  C   UNL     1      46.119 -10.671   7.634  1.00  0.00     0.036 A 
HETATM   35  C   UNL     1      46.044 -11.185   6.343  1.00  0.00     0.003 A 
HETATM   36  C   UNL     1      44.812 -11.582   5.809  1.00  0.00     0.008 A 
BRANCH  33  37
HETATM   37  N   UNL     1      45.014 -10.003   9.747  1.00  0.00    -0.116 N 
HETATM   38  O   UNL     1      45.346 -10.772  10.661  1.00  0.00    -0.532 OA
HETATM   39  O   UNL     1      44.738  -8.805   9.904  1.00  0.00    -0.532 OA
ENDBRANCH  33  37
ENDBRANCH   1  31
TORSDOF 9
ENDMDL
MODEL 4
REMARK VINA RESULT:      -9.1      1.697      1.881
REMARK  9 active torsions:
REMARK  status: ('A' for Active; 'I' for Inactive)
REMARK    1  A    between atoms: C_3  and  C_4 
REMARK    2  A    between atoms: C_4  and  C_5 
REMARK    3  A    between atoms: C_5  and  N_6 
REMARK       I    between atoms: N_6  and  C_7 
REMARK    4  A    between atoms: C_7  and  C_8 
REMARK    5  A    between atoms: C_8  and  C_9 
REMARK    6  A    between atoms: C_9  and  C_10 
REMARK    7  A    between atoms: C_9  and  C_26 
REMARK    8  A    between atoms: C_14  and  C_15 
REMARK    9  A    between atoms: C_28  and  N_29 
ROOT
HETATM    1  C   UNL     1      41.390 -11.643   1.289  1.00  0.00     0.062 C 
ENDROOT
BRANCH   1   2
HETATM    2  C   UNL     1      41.032 -10.466   2.211  1.00  0.00     0.116 C 
BRANCH   2   3
HETATM    3  C   UNL     1      41.331 -10.638   3.689  1.00  0.00     0.218 C 
HETATM    4  N   UNL     1      42.563 -11.174   3.986  1.00  0.00    -0.361 N 
HETATM    5  H   UNL     1      43.107 -11.598   3.242  1.00  0.00     0.162 HD
HETATM    6  O   UNL     1      40.541 -10.273   4.556  1.00  0.00    -0.274 OA
BRANCH   4   7
HETATM    7  C   UNL     1      42.952 -11.398   5.366  1.00  0.00     0.128 C 
BRANCH   7   8
HETATM    8  C   UNL     1      43.565 -12.776   5.589  1.00  0.00     0.079 C 
BRANCH   8   9
HETATM    9  C   UNL     1      42.494 -13.786   5.905  1.00  0.00     0.035 A 
HETATM   10  C   UNL     1      42.817 -15.122   6.131  1.00  0.00     0.027 A 
HETATM   11  C   UNL     1      41.788 -16.030   6.370  1.00  0.00     0.003 A 
HETATM   12  C   UNL     1      40.472 -15.585   6.372  1.00  0.00     0.019 A 
HETATM   13  C   UNL     1      40.238 -14.242   6.135  1.00  0.00     0.117 A 
HETATM   14  N   UNL     1      41.216 -13.339   5.904  1.00  0.00    -0.266 NA
ENDBRANCH   8   9
ENDBRANCH   7   8
ENDBRANCH   4   7
ENDBRANCH   2   3
ENDBRANCH   1   2
BRANCH   1  15
HETATM   15  C   UNL     1      40.831 -12.966   1.773  1.00  0.00    -0.021 A 
HETATM   16  C   UNL     1      41.605 -14.160   1.978  1.00  0.00    -0.001 A 
HETATM   17  C   UNL     1      40.750 -15.147   2.464  1.00  0.00     0.043 A 
HETATM   18  C   UNL     1      42.967 -14.480   1.818  1.00  0.00     0.015 A 
HETATM   19  C   UNL     1      41.190 -16.438   2.796  1.00  0.00     0.044 A 
HETATM   20  N   UNL     1      39.495 -14.592   2.536  1.00  0.00    -0.365 N 
HETATM   21  C   UNL     1      42.555 -16.756   2.646  1.00  0.00    -0.005 A 
HETATM   22  C   UNL     1      43.420 -15.762   2.160  1.00  0.00     0.015 A 
HETATM   23  H   UNL     1      38.666 -15.083   2.843  1.00  0.00     0.165 HD
HETATM   24  C   UNL     1      39.537 -13.276   2.161  1.00  0.00     0.097 A 
BRANCH  21  25
HETATM   25  C   UNL     1      43.087 -18.088   3.004  1.00  0.00     0.066 A 
HETATM   26  N   UNL     1      43.640 -18.187   4.240  1.00  0.00    -0.260 NA
HETATM   27  C   UNL     1      44.135 -19.384   4.620  1.00  0.00     0.117 A 
HETATM   28  C   UNL     1      44.118 -20.513   3.821  1.00  0.00     0.019 A 
HETATM   29  C   UNL     1      43.559 -20.405   2.555  1.00  0.00     0.004 A 
HETATM   30  C   UNL     1      43.038 -19.182   2.139  1.00  0.00     0.032 A 
ENDBRANCH  21  25
ENDBRANCH   1  15
BRANCH   1  31
HETATM   31  C   UNL     1      41.119 -11.531  -0.213  1.00  0.00    -0.047 A 
HETATM   32  C   UNL     1      41.304 -10.290  -0.862  1.00  0.00     0.043 A 
HETATM   33  C   UNL     1      41.046 -10.149  -2.234  1.00  0.00     0.103 A 
HETATM   34  C   UNL     1      40.579 -11.231  -2.985  1.00  0.00     0.036 A 
HETATM   35  C   UNL     1      40.368 -12.452  -2.353  1.00  0.00     0.003 A 
HETATM   36  C   UNL     1      40.630 -12.597  -0.985  1.00  0.00     0.008 A 
BRANCH  33  37
HETATM   37  N   UNL     1      41.269  -8.855  -2.890  1.00  0.00    -0.116 N 
HETATM   38  O   UNL     1      41.230  -8.819  -4.128  1.00  0.00    -0.532 OA
HETATM   39  O   UNL     1      41.482  -7.870  -2.166  1.00  0.00    -0.532 OA
ENDBRANCH  33  37
ENDBRANCH   1  31
TORSDOF 9
ENDMDL
MODEL 5
REMARK VINA RESULT:      -8.9      3.145      7.816
REMARK  9 active torsions:
REMARK  status: ('A' for Active; 'I' for Inactive)
REMARK    1  A    between atoms: C_3  and  C_4 
REMARK    2  A    between atoms: C_4  and  C_5 
REMARK    3  A    between atoms: C_5  and  N_6 
REMARK       I    between atoms: N_6  and  C_7 
REMARK    4  A    between atoms: C_7  and  C_8 
REMARK    5  A    between atoms: C_8  and  C_9 
REMARK    6  A    between atoms: C_9  and  C_10 
REMARK    7  A    between atoms: C_9  and  C_26 
REMARK    8  A    between atoms: C_14  and  C_15 
REMARK    9  A    between atoms: C_28  and  N_29 
ROOT
HETATM    1  C   UNL     1      43.084 -12.890   5.705  1.00  0.00     0.062 C 
ENDROOT
BRANCH   1   2
HETATM    2  C   UNL     1      41.866 -13.518   6.400  1.00  0.00     0.116 C 
BRANCH   2   3
HETATM    3  C   UNL     1      41.820 -15.034   6.467  1.00  0.00     0.218 C 
HETATM    4  N   UNL     1      42.960 -15.681   6.048  1.00  0.00    -0.361 N 
HETATM    5  H   UNL     1      43.668 -15.154   5.548  1.00  0.00     0.162 HD
HETATM    6  O   UNL     1      40.844 -15.633   6.913  1.00  0.00    -0.274 OA
BRANCH   4   7
HETATM    7  C   UNL     1      43.025 -17.131   6.053  1.00  0.00     0.128 C 
BRANCH   7   8
HETATM    8  C   UNL     1      44.298 -17.665   5.407  1.00  0.00     0.079 C 
BRANCH   8   9
HETATM    9  C   UNL     1      43.965 -18.545   4.232  1.00  0.00     0.035 A 
HETATM   10  C   UNL     1      43.352 -18.019   3.097  1.00  0.00     0.027 A 
HETATM   11  C   UNL     1      43.017 -18.879   2.055  1.00  0.00     0.003 A 
HETATM   12  C   UNL     1      43.296 -20.235   2.173  1.00  0.00     0.019 A 
HETATM   13  C   UNL     1      43.904 -20.676   3.335  1.00  0.00     0.117 A 
HETATM   14  N   UNL     1      44.242 -19.864   4.360  1.00  0.00    -0.266 NA
ENDBRANCH   8   9
ENDBRANCH   7   8
ENDBRANCH   4   7
ENDBRANCH   2   3
ENDBRANCH   1   2
BRANCH   1  15
HETATM   15  C   UNL     1      42.713 -12.077   4.480  1.00  0.00    -0.021 A 
HETATM   16  C   UNL     1      42.187 -12.624   3.259  1.00  0.00    -0.001 A 
HETATM   17  C   UNL     1      41.933 -11.565   2.390  1.00  0.00     0.043 A 
HETATM   18  C   UNL     1      41.879 -13.928   2.827  1.00  0.00     0.015 A 
HETATM   19  C   UNL     1      41.388 -11.747   1.109  1.00  0.00     0.044 A 
HETATM   20  N   UNL     1      42.306 -10.413   3.039  1.00  0.00    -0.365 N 
HETATM   21  C   UNL     1      41.069 -13.051   0.679  1.00  0.00    -0.005 A 
HETATM   22  C   UNL     1      41.321 -14.120   1.555  1.00  0.00     0.015 A 
HETATM   23  H   UNL     1      42.248  -9.485   2.642  1.00  0.00     0.165 HD
HETATM   24  C   UNL     1      42.739 -10.703   4.305  1.00  0.00     0.097 A 
BRANCH  21  25
HETATM   25  C   UNL     1      40.467 -13.307  -0.647  1.00  0.00     0.066 A 
HETATM   26  N   UNL     1      39.641 -14.383  -0.718  1.00  0.00    -0.260 NA
HETATM   27  C   UNL     1      39.059 -14.658  -1.906  1.00  0.00     0.117 A 
HETATM   28  C   UNL     1      39.261 -13.913  -3.053  1.00  0.00     0.019 A 
HETATM   29  C   UNL     1      40.113 -12.819  -2.977  1.00  0.00     0.004 A 
HETATM   30  C   UNL     1      40.724 -12.511  -1.763  1.00  0.00     0.032 A 
ENDBRANCH  21  25
ENDBRANCH   1  15
BRANCH   1  31
HETATM   31  C   UNL     1      44.086 -12.080   6.529  1.00  0.00    -0.047 A 
HETATM   32  C   UNL     1      43.699 -11.571   7.788  1.00  0.00     0.043 A 
HETATM   33  C   UNL     1      44.587 -10.807   8.561  1.00  0.00     0.103 A 
HETATM   34  C   UNL     1      45.870 -10.516   8.091  1.00  0.00     0.036 A 
HETATM   35  C   UNL     1      46.255 -10.988   6.840  1.00  0.00     0.003 A 
HETATM   36  C   UNL     1      45.373 -11.755   6.070  1.00  0.00     0.008 A 
BRANCH  33  37
HETATM   37  N   UNL     1      44.168 -10.311   9.878  1.00  0.00    -0.116 N 
HETATM   38  O   UNL     1      43.418  -9.325   9.914  1.00  0.00    -0.532 OA
HETATM   39  O   UNL     1      44.587 -10.910  10.880  1.00  0.00    -0.532 OA
ENDBRANCH  33  37
ENDBRANCH   1  31
TORSDOF 9
ENDMDL
MODEL 6
REMARK VINA RESULT:      -8.9      3.188      8.415
REMARK  9 active torsions:
REMARK  status: ('A' for Active; 'I' for Inactive)
REMARK    1  A    between atoms: C_3  and  C_4 
REMARK    2  A    between atoms: C_4  and  C_5 
REMARK    3  A    between atoms: C_5  and  N_6 
REMARK       I    between atoms: N_6  and  C_7 
REMARK    4  A    between atoms: C_7  and  C_8 
REMARK    5  A    between atoms: C_8  and  C_9 
REMARK    6  A    between atoms: C_9  and  C_10 
REMARK    7  A    between atoms: C_9  and  C_26 
REMARK    8  A    between atoms: C_14  and  C_15 
REMARK    9  A    between atoms: C_28  and  N_29 
ROOT
HETATM    1  C   UNL     1      42.695 -15.648   2.724  1.00  0.00     0.062 C 
ENDROOT
BRANCH   1   2
HETATM    2  C   UNL     1      41.974 -15.791   1.374  1.00  0.00     0.116 C 
BRANCH   2   3
HETATM    3  C   UNL     1      41.080 -14.641   0.948  1.00  0.00     0.218 C 
HETATM    4  N   UNL     1      41.732 -13.476   0.615  1.00  0.00    -0.361 N 
HETATM    5  H   UNL     1      42.714 -13.377   0.850  1.00  0.00     0.162 HD
HETATM    6  O   UNL     1      39.861 -14.766   0.862  1.00  0.00    -0.274 OA
BRANCH   4   7
HETATM    7  C   UNL     1      40.978 -12.304   0.208  1.00  0.00     0.128 C 
BRANCH   7   8
HETATM    8  C   UNL     1      40.960 -12.112  -1.304  1.00  0.00     0.079 C 
BRANCH   8   9
HETATM    9  C   UNL     1      39.761 -12.793  -1.908  1.00  0.00     0.035 A 
HETATM   10  C   UNL     1      39.899 -13.978  -2.627  1.00  0.00     0.027 A 
HETATM   11  C   UNL     1      38.770 -14.546  -3.210  1.00  0.00     0.003 A 
HETATM   12  C   UNL     1      37.539 -13.919  -3.066  1.00  0.00     0.019 A 
HETATM   13  C   UNL     1      37.488 -12.743  -2.338  1.00  0.00     0.117 A 
HETATM   14  N   UNL     1      38.567 -12.171  -1.760  1.00  0.00    -0.266 NA
ENDBRANCH   8   9
ENDBRANCH   7   8
ENDBRANCH   4   7
ENDBRANCH   2   3
ENDBRANCH   1   2
BRANCH   1  15
HETATM   15  C   UNL     1      41.869 -14.912   3.761  1.00  0.00    -0.021 A 
HETATM   16  C   UNL     1      42.190 -13.618   4.300  1.00  0.00    -0.001 A 
HETATM   17  C   UNL     1      41.178 -13.260   5.186  1.00  0.00     0.043 A 
HETATM   18  C   UNL     1      43.243 -12.707   4.089  1.00  0.00     0.015 A 
HETATM   19  C   UNL     1      41.167 -12.037   5.875  1.00  0.00     0.044 A 
HETATM   20  N   UNL     1      40.278 -14.298   5.211  1.00  0.00    -0.365 N 
HETATM   21  C   UNL     1      42.215 -11.119   5.657  1.00  0.00    -0.005 A 
HETATM   22  C   UNL     1      43.236 -11.476   4.760  1.00  0.00     0.015 A 
HETATM   23  H   UNL     1      39.444 -14.323   5.781  1.00  0.00     0.165 HD
HETATM   24  C   UNL     1      40.661 -15.277   4.333  1.00  0.00     0.097 A 
BRANCH  21  25
HETATM   25  C   UNL     1      42.248  -9.803   6.329  1.00  0.00     0.066 A 
HETATM   26  N   UNL     1      41.522  -8.821   5.733  1.00  0.00    -0.260 NA
HETATM   27  C   UNL     1      41.513  -7.600   6.311  1.00  0.00     0.117 A 
HETATM   28  C   UNL     1      42.205  -7.290   7.467  1.00  0.00     0.019 A 
HETATM   29  C   UNL     1      42.953  -8.294   8.067  1.00  0.00     0.004 A 
HETATM   30  C   UNL     1      42.977  -9.564   7.494  1.00  0.00     0.032 A 
ENDBRANCH  21  25
ENDBRANCH   1  15
BRANCH   1  31
HETATM   31  C   UNL     1      43.300 -16.886   3.389  1.00  0.00    -0.047 A 
HETATM   32  C   UNL     1      43.266 -18.125   2.711  1.00  0.00     0.043 A 
HETATM   33  C   UNL     1      43.795 -19.284   3.301  1.00  0.00     0.103 A 
HETATM   34  C   UNL     1      44.349 -19.240   4.583  1.00  0.00     0.036 A 
HETATM   35  C   UNL     1      44.365 -18.032   5.272  1.00  0.00     0.003 A 
HETATM   36  C   UNL     1      43.843 -16.873   4.684  1.00  0.00     0.008 A 
BRANCH  33  37
HETATM   37  N   UNL     1      43.770 -20.554   2.565  1.00  0.00    -0.116 N 
HETATM   38  O   UNL     1      44.068 -21.587   3.182  1.00  0.00    -0.532 OA
HETATM   39  O   UNL     1      43.448 -20.521   1.368  1.00  0.00    -0.532 OA
ENDBRANCH  33  37
ENDBRANCH   1  31
TORSDOF 9
ENDMDL
MODEL 7
REMARK VINA RESULT:      -8.8      3.226      7.832
REMARK  9 active torsions:
REMARK  status: ('A' for Active; 'I' for Inactive)
REMARK    1  A    between atoms: C_3  and  C_4 
REMARK    2  A    between atoms: C_4  and  C_5 
REMARK    3  A    between atoms: C_5  and  N_6 
REMARK       I    between atoms: N_6  and  C_7 
REMARK    4  A    between atoms: C_7  and  C_8 
REMARK    5  A    between atoms: C_8  and  C_9 
REMARK    6  A    between atoms: C_9  and  C_10 
REMARK    7  A    between atoms: C_9  and  C_26 
REMARK    8  A    between atoms: C_14  and  C_15 
REMARK    9  A    between atoms: C_28  and  N_29 
ROOT
HETATM    1  C   UNL     1      42.555 -15.648   2.708  1.00  0.00     0.062 C 
ENDROOT
BRANCH   1   2
HETATM    2  C   UNL     1      41.767 -15.828   1.400  1.00  0.00     0.116 C 
BRANCH   2   3
HETATM    3  C   UNL     1      40.994 -14.623   0.894  1.00  0.00     0.218 C 
HETATM    4  N   UNL     1      41.748 -13.501   0.635  1.00  0.00    -0.361 N 
HETATM    5  H   UNL     1      42.705 -13.464   0.969  1.00  0.00     0.162 HD
HETATM    6  O   UNL     1      39.785 -14.672   0.684  1.00  0.00    -0.274 OA
BRANCH   4   7
HETATM    7  C   UNL     1      41.114 -12.285   0.161  1.00  0.00     0.128 C 
BRANCH   7   8
HETATM    8  C   UNL     1      41.534 -11.054   0.955  1.00  0.00     0.079 C 
BRANCH   8   9
HETATM    9  C   UNL     1      40.466 -10.673   1.945  1.00  0.00     0.035 A 
HETATM   10  C   UNL     1      40.394  -9.380   2.458  1.00  0.00     0.027 A 
HETATM   11  C   UNL     1      39.420  -9.087   3.408  1.00  0.00     0.003 A 
HETATM   12  C   UNL     1      38.551 -10.087   3.825  1.00  0.00     0.019 A 
HETATM   13  C   UNL     1      38.691 -11.346   3.268  1.00  0.00     0.117 A 
HETATM   14  N   UNL     1      39.624 -11.658   2.342  1.00  0.00    -0.266 NA
ENDBRANCH   8   9
ENDBRANCH   7   8
ENDBRANCH   4   7
ENDBRANCH   2   3
ENDBRANCH   1   2
BRANCH   1  15
HETATM   15  C   UNL     1      41.770 -14.909   3.775  1.00  0.00    -0.021 A 
HETATM   16  C   UNL     1      42.121 -13.622   4.310  1.00  0.00    -0.001 A 
HETATM   17  C   UNL     1      41.141 -13.259   5.231  1.00  0.00     0.043 A 
HETATM   18  C   UNL     1      43.176 -12.720   4.071  1.00  0.00     0.015 A 
HETATM   19  C   UNL     1      41.164 -12.040   5.927  1.00  0.00     0.044 A 
HETATM   20  N   UNL     1      40.232 -14.289   5.278  1.00  0.00    -0.365 N 
HETATM   21  C   UNL     1      42.214 -11.132   5.681  1.00  0.00    -0.005 A 
HETATM   22  C   UNL     1      43.202 -11.493   4.749  1.00  0.00     0.015 A 
HETATM   23  H   UNL     1      39.416 -14.309   5.875  1.00  0.00     0.165 HD
HETATM   24  C   UNL     1      40.577 -15.266   4.384  1.00  0.00     0.097 A 
BRANCH  21  25
HETATM   25  C   UNL     1      42.282  -9.820   6.359  1.00  0.00     0.066 A 
HETATM   26  N   UNL     1      43.106  -9.758   7.437  1.00  0.00    -0.260 NA
HETATM   27  C   UNL     1      43.209  -8.580   8.089  1.00  0.00     0.117 A 
HETATM   28  C   UNL     1      42.520  -7.437   7.728  1.00  0.00     0.019 A 
HETATM   29  C   UNL     1      41.671  -7.507   6.631  1.00  0.00     0.004 A 
HETATM   30  C   UNL     1      41.549  -8.710   5.937  1.00  0.00     0.032 A 
ENDBRANCH  21  25
ENDBRANCH   1  15
BRANCH   1  31
HETATM   31  C   UNL     1      43.219 -16.862   3.359  1.00  0.00    -0.047 A 
HETATM   32  C   UNL     1      43.197 -18.107   2.692  1.00  0.00     0.043 A 
HETATM   33  C   UNL     1      43.780 -19.245   3.271  1.00  0.00     0.103 A 
HETATM   34  C   UNL     1      44.378 -19.175   4.532  1.00  0.00     0.036 A 
HETATM   35  C   UNL     1      44.382 -17.961   5.212  1.00  0.00     0.003 A 
HETATM   36  C   UNL     1      43.807 -16.823   4.634  1.00  0.00     0.008 A 
BRANCH  33  37
HETATM   37  N   UNL     1      43.766 -20.521   2.546  1.00  0.00    -0.116 N 
HETATM   38  O   UNL     1      44.061 -21.548   3.175  1.00  0.00    -0.532 OA
HETATM   39  O   UNL     1      43.457 -20.499   1.345  1.00  0.00    -0.532 OA
ENDBRANCH  33  37
ENDBRANCH   1  31
TORSDOF 9
ENDMDL
MODEL 8
REMARK VINA RESULT:      -8.8      2.660      7.065
REMARK  9 active torsions:
REMARK  status: ('A' for Active; 'I' for Inactive)
REMARK    1  A    between atoms: C_3  and  C_4 
REMARK    2  A    between atoms: C_4  and  C_5 
REMARK    3  A    between atoms: C_5  and  N_6 
REMARK       I    between atoms: N_6  and  C_7 
REMARK    4  A    between atoms: C_7  and  C_8 
REMARK    5  A    between atoms: C_8  and  C_9 
REMARK    6  A    between atoms: C_9  and  C_10 
REMARK    7  A    between atoms: C_9  and  C_26 
REMARK    8  A    between atoms: C_14  and  C_15 
REMARK    9  A    between atoms: C_28  and  N_29 
ROOT
HETATM    1  C   UNL     1      42.012 -11.289   5.142  1.00  0.00     0.062 C 
ENDROOT
BRANCH   1   2
HETATM    2  C   UNL     1      42.166 -10.826   3.684  1.00  0.00     0.116 C 
BRANCH   2   3
HETATM    3  C   UNL     1      40.982 -11.058   2.762  1.00  0.00     0.218 C 
HETATM    4  N   UNL     1      41.225 -11.870   1.678  1.00  0.00    -0.361 N 
HETATM    5  H   UNL     1      42.183 -12.101   1.442  1.00  0.00     0.162 HD
HETATM    6  O   UNL     1      39.872 -10.589   3.004  1.00  0.00    -0.274 OA
BRANCH   4   7
HETATM    7  C   UNL     1      40.170 -12.150   0.721  1.00  0.00     0.128 C 
BRANCH   7   8
HETATM    8  C   UNL     1      40.326 -13.513   0.055  1.00  0.00     0.079 C 
BRANCH   8   9
HETATM    9  C   UNL     1      39.328 -13.673  -1.060  1.00  0.00     0.035 A 
HETATM   10  C   UNL     1      39.393 -14.762  -1.926  1.00  0.00     0.027 A 
HETATM   11  C   UNL     1      38.479 -14.843  -2.973  1.00  0.00     0.003 A 
HETATM   12  C   UNL     1      37.533 -13.839  -3.132  1.00  0.00     0.019 A 
HETATM   13  C   UNL     1      37.538 -12.790  -2.230  1.00  0.00     0.117 A 
HETATM   14  N   UNL     1      38.411 -12.687  -1.204  1.00  0.00    -0.266 NA
ENDBRANCH   8   9
ENDBRANCH   7   8
ENDBRANCH   4   7
ENDBRANCH   2   3
ENDBRANCH   1   2
BRANCH   1  15
HETATM   15  C   UNL     1      41.426 -12.683   5.262  1.00  0.00    -0.021 A 
HETATM   16  C   UNL     1      42.006 -13.870   4.695  1.00  0.00    -0.001 A 
HETATM   17  C   UNL     1      41.205 -14.951   5.055  1.00  0.00     0.043 A 
HETATM   18  C   UNL     1      43.160 -14.122   3.929  1.00  0.00     0.015 A 
HETATM   19  C   UNL     1      41.500 -16.273   4.683  1.00  0.00     0.044 A 
HETATM   20  N   UNL     1      40.161 -14.451   5.795  1.00  0.00    -0.365 N 
HETATM   21  C   UNL     1      42.661 -16.528   3.925  1.00  0.00    -0.005 A 
HETATM   22  C   UNL     1      43.473 -15.440   3.565  1.00  0.00     0.015 A 
HETATM   23  H   UNL     1      39.410 -15.007   6.179  1.00  0.00     0.165 HD
HETATM   24  C   UNL     1      40.303 -13.099   5.958  1.00  0.00     0.097 A 
BRANCH  21  25
HETATM   25  C   UNL     1      43.043 -17.900   3.527  1.00  0.00     0.066 A 
HETATM   26  N   UNL     1      43.709 -18.620   4.466  1.00  0.00    -0.260 NA
HETATM   27  C   UNL     1      44.075 -19.882   4.155  1.00  0.00     0.117 A 
HETATM   28  C   UNL     1      43.819 -20.480   2.935  1.00  0.00     0.019 A 
HETATM   29  C   UNL     1      43.146 -19.737   1.975  1.00  0.00     0.004 A 
HETATM   30  C   UNL     1      42.753 -18.433   2.270  1.00  0.00     0.032 A 
ENDBRANCH  21  25
ENDBRANCH   1  15
BRANCH   1  31
HETATM   31  C   UNL     1      43.207 -11.192   6.091  1.00  0.00    -0.047 A 
HETATM   32  C   UNL     1      42.996 -10.821   7.438  1.00  0.00     0.043 A 
HETATM   33  C   UNL     1      44.073 -10.703   8.331  1.00  0.00     0.103 A 
HETATM   34  C   UNL     1      45.382 -10.930   7.900  1.00  0.00     0.036 A 
HETATM   35  C   UNL     1      45.607 -11.270   6.569  1.00  0.00     0.003 A 
HETATM   36  C   UNL     1      44.534 -11.394   5.678  1.00  0.00     0.008 A 
BRANCH  33  37
HETATM   37  N   UNL     1      43.823 -10.341   9.731  1.00  0.00    -0.116 N 
HETATM   38  O   UNL     1      43.161  -9.318   9.956  1.00  0.00    -0.532 OA
HETATM   39  O   UNL     1      44.287 -11.083  10.611  1.00  0.00    -0.532 OA
ENDBRANCH  33  37
ENDBRANCH   1  31
TORSDOF 9
ENDMDL
MODEL 9
REMARK VINA RESULT:      -8.7      2.095      5.255
REMARK  9 active torsions:
REMARK  status: ('A' for Active; 'I' for Inactive)
REMARK    1  A    between atoms: C_3  and  C_4 
REMARK    2  A    between atoms: C_4  and  C_5 
REMARK    3  A    between atoms: C_5  and  N_6 
REMARK       I    between atoms: N_6  and  C_7 
REMARK    4  A    between atoms: C_7  and  C_8 
REMARK    5  A    between atoms: C_8  and  C_9 
REMARK    6  A    between atoms: C_9  and  C_10 
REMARK    7  A    between atoms: C_9  and  C_26 
REMARK    8  A    between atoms: C_14  and  C_15 
REMARK    9  A    between atoms: C_28  and  N_29 
ROOT
HETATM    1  C   UNL     1      40.832 -14.638   1.290  1.00  0.00     0.062 C 
ENDROOT
BRANCH   1   2
HETATM    2  C   UNL     1      42.201 -15.337   1.321  1.00  0.00     0.116 C 
BRANCH   2   3
HETATM    3  C   UNL     1      42.290 -16.638   2.097  1.00  0.00     0.218 C 
HETATM    4  N   UNL     1      43.512 -16.905   2.670  1.00  0.00    -0.361 N 
HETATM    5  H   UNL     1      44.315 -16.350   2.395  1.00  0.00     0.162 HD
HETATM    6  O   UNL     1      41.316 -17.374   2.239  1.00  0.00    -0.274 OA
BRANCH   4   7
HETATM    7  C   UNL     1      43.718 -18.128   3.424  1.00  0.00     0.128 C 
BRANCH   7   8
HETATM    8  C   UNL     1      44.379 -17.883   4.775  1.00  0.00     0.079 C 
BRANCH   8   9
HETATM    9  C   UNL     1      43.581 -16.894   5.582  1.00  0.00     0.035 A 
HETATM   10  C   UNL     1      44.217 -15.951   6.387  1.00  0.00     0.027 A 
HETATM   11  C   UNL     1      43.438 -15.088   7.153  1.00  0.00     0.003 A 
HETATM   12  C   UNL     1      42.054 -15.191   7.102  1.00  0.00     0.019 A 
HETATM   13  C   UNL     1      41.502 -16.157   6.279  1.00  0.00     0.117 A 
HETATM   14  N   UNL     1      42.233 -17.005   5.522  1.00  0.00    -0.266 NA
ENDBRANCH   8   9
ENDBRANCH   7   8
ENDBRANCH   4   7
ENDBRANCH   2   3
ENDBRANCH   1   2
BRANCH   1  15
HETATM   15  C   UNL     1      40.520 -13.891   2.572  1.00  0.00    -0.021 A 
HETATM   16  C   UNL     1      41.504 -13.322   3.453  1.00  0.00    -0.001 A 
HETATM   17  C   UNL     1      40.831 -12.686   4.493  1.00  0.00     0.043 A 
HETATM   18  C   UNL     1      42.911 -13.271   3.441  1.00  0.00     0.015 A 
HETATM   19  C   UNL     1      41.495 -12.002   5.523  1.00  0.00     0.044 A 
HETATM   20  N   UNL     1      39.486 -12.871   4.276  1.00  0.00    -0.365 N 
HETATM   21  C   UNL     1      42.904 -11.941   5.507  1.00  0.00    -0.005 A 
HETATM   22  C   UNL     1      43.585 -12.579   4.457  1.00  0.00     0.015 A 
HETATM   23  H   UNL     1      38.754 -12.529   4.882  1.00  0.00     0.165 HD
HETATM   24  C   UNL     1      39.286 -13.558   3.109  1.00  0.00     0.097 A 
BRANCH  21  25
HETATM   25  C   UNL     1      43.663 -11.213   6.546  1.00  0.00     0.066 A 
HETATM   26  N   UNL     1      42.974 -10.246   7.206  1.00  0.00    -0.260 NA
HETATM   27  C   UNL     1      43.619  -9.554   8.171  1.00  0.00     0.117 A 
HETATM   28  C   UNL     1      44.940  -9.769   8.519  1.00  0.00     0.019 A 
HETATM   29  C   UNL     1      45.643 -10.752   7.835  1.00  0.00     0.004 A 
HETATM   30  C   UNL     1      45.000 -11.483   6.838  1.00  0.00     0.032 A 
ENDBRANCH  21  25
ENDBRANCH   1  15
BRANCH   1  31
HETATM   31  C   UNL     1      40.477 -13.730   0.111  1.00  0.00    -0.047 A 
HETATM   32  C   UNL     1      39.540 -14.173  -0.849  1.00  0.00     0.043 A 
HETATM   33  C   UNL     1      39.207 -13.373  -1.952  1.00  0.00     0.103 A 
HETATM   34  C   UNL     1      39.812 -12.127  -2.137  1.00  0.00     0.036 A 
HETATM   35  C   UNL     1      40.756 -11.691  -1.213  1.00  0.00     0.003 A 
HETATM   36  C   UNL     1      41.086 -12.484  -0.108  1.00  0.00     0.008 A 
BRANCH  33  37
HETATM   37  N   UNL     1      38.211 -13.845  -2.922  1.00  0.00    -0.116 N 
HETATM   38  O   UNL     1      38.593 -14.612  -3.819  1.00  0.00    -0.532 OA
HETATM   39  O   UNL     1      37.042 -13.453  -2.787  1.00  0.00    -0.532 OA
ENDBRANCH  33  37
ENDBRANCH   1  31
TORSDOF 9
ENDMDL
MODEL 10
REMARK VINA RESULT:      -8.2      2.680      6.512
REMARK  9 active torsions:
REMARK  status: ('A' for Active; 'I' for Inactive)
REMARK    1  A    between atoms: C_3  and  C_4 
REMARK    2  A    between atoms: C_4  and  C_5 
REMARK    3  A    between atoms: C_5  and  N_6 
REMARK       I    between atoms: N_6  and  C_7 
REMARK    4  A    between atoms: C_7  and  C_8 
REMARK    5  A    between atoms: C_8  and  C_9 
REMARK    6  A    between atoms: C_9  and  C_10 
REMARK    7  A    between atoms: C_9  and  C_26 
REMARK    8  A    between atoms: C_14  and  C_15 
REMARK    9  A    between atoms: C_28  and  N_29 
ROOT
HETATM    1  C   UNL     1      41.287 -10.449   5.506  1.00  0.00     0.062 C 
ENDROOT
BRANCH   1   2
HETATM    2  C   UNL     1      42.145 -10.149   4.267  1.00  0.00     0.116 C 
BRANCH   2   3
HETATM    3  C   UNL     1      41.406  -9.764   2.998  1.00  0.00     0.218 C 
HETATM    4  N   UNL     1      41.925 -10.277   1.831  1.00  0.00    -0.361 N 
HETATM    5  H   UNL     1      42.846 -10.700   1.847  1.00  0.00     0.162 HD
HETATM    6  O   UNL     1      40.386  -9.080   3.025  1.00  0.00    -0.274 OA
BRANCH   4   7
HETATM    7  C   UNL     1      41.310  -9.963   0.554  1.00  0.00     0.128 C 
BRANCH   7   8
HETATM    8  C   UNL     1      41.082 -11.198  -0.310  1.00  0.00     0.079 C 
BRANCH   8   9
HETATM    9  C   UNL     1      40.577 -12.342   0.528  1.00  0.00     0.035 A 
HETATM   10  C   UNL     1      41.037 -13.640   0.316  1.00  0.00     0.027 A 
HETATM   11  C   UNL     1      40.504 -14.674   1.081  1.00  0.00     0.003 A 
HETATM   12  C   UNL     1      39.529 -14.390   2.028  1.00  0.00     0.019 A 
HETATM   13  C   UNL     1      39.126 -13.075   2.174  1.00  0.00     0.117 A 
HETATM   14  N   UNL     1      39.627 -12.051   1.448  1.00  0.00    -0.266 NA
ENDBRANCH   8   9
ENDBRANCH   7   8
ENDBRANCH   4   7
ENDBRANCH   2   3
ENDBRANCH   1   2
BRANCH   1  15
HETATM   15  C   UNL     1      40.827 -11.893   5.573  1.00  0.00    -0.021 A 
HETATM   16  C   UNL     1      41.522 -13.005   4.984  1.00  0.00    -0.001 A 
HETATM   17  C   UNL     1      40.816 -14.165   5.294  1.00  0.00     0.043 A 
HETATM   18  C   UNL     1      42.708 -13.128   4.234  1.00  0.00     0.015 A 
HETATM   19  C   UNL     1      41.235 -15.442   4.890  1.00  0.00     0.044 A 
HETATM   20  N   UNL     1      39.717 -13.783   6.027  1.00  0.00    -0.365 N 
HETATM   21  C   UNL     1      42.428 -15.568   4.149  1.00  0.00    -0.005 A 
HETATM   22  C   UNL     1      43.144 -14.400   3.838  1.00  0.00     0.015 A 
HETATM   23  H   UNL     1      39.013 -14.417   6.379  1.00  0.00     0.165 HD
HETATM   24  C   UNL     1      39.733 -12.430   6.233  1.00  0.00     0.097 A 
BRANCH  21  25
HETATM   25  C   UNL     1      42.940 -16.886   3.718  1.00  0.00     0.066 A 
HETATM   26  N   UNL     1      43.845 -17.465   4.549  1.00  0.00    -0.260 NA
HETATM   27  C   UNL     1      44.340 -18.674   4.205  1.00  0.00     0.117 A 
HETATM   28  C   UNL     1      43.983 -19.352   3.054  1.00  0.00     0.019 A 
HETATM   29  C   UNL     1      43.064 -18.753   2.203  1.00  0.00     0.004 A 
HETATM   30  C   UNL     1      42.535 -17.507   2.535  1.00  0.00     0.032 A 
ENDBRANCH  21  25
ENDBRANCH   1  15
BRANCH   1  31
HETATM   31  C   UNL     1      41.798 -10.048   6.891  1.00  0.00    -0.047 A 
HETATM   32  C   UNL     1      43.087 -10.456   7.300  1.00  0.00     0.043 A 
HETATM   33  C   UNL     1      43.579 -10.121   8.571  1.00  0.00     0.103 A 
HETATM   34  C   UNL     1      42.794  -9.393   9.469  1.00  0.00     0.036 A 
HETATM   35  C   UNL     1      41.512  -9.008   9.089  1.00  0.00     0.003 A 
HETATM   36  C   UNL     1      41.021  -9.336   7.819  1.00  0.00     0.008 A 
BRANCH  33  37
HETATM   37  N   UNL     1      44.932 -10.535   8.962  1.00  0.00    -0.116 N 
HETATM   38  O   UNL     1      45.353 -10.166  10.069  1.00  0.00    -0.532 OA
HETATM   39  O   UNL     1      45.575 -11.233   8.165  1.00  0.00    -0.532 OA
ENDBRANCH  33  37
ENDBRANCH   1  31
TORSDOF 9
ENDMDL
