MODEL 1
REMARK VINA RESULT:      -9.4      0.000      0.000
REMARK  6 active torsions:
REMARK  status: ('A' for Active; 'I' for Inactive)
REMARK    1  A    between atoms: O_2  and  C_3 
REMARK    2  A    between atoms: C_6  and  C_7 
REMARK    3  A    between atoms: C_11  and  C_12 
REMARK       I    between atoms: C_12  and  N_13 
REMARK    4  A    between atoms: N_13  and  N_14 
REMARK       I    between atoms: N_14  and  C_15 
REMARK    5  A    between atoms: C_15  and  C_16 
REMARK    6  A    between atoms: C_17  and  C_18 
ROOT
HETATM    1  C   UNL     1      44.206 -11.265   8.467  1.00  0.00     0.288 C 
HETATM    2  N   UNL     1      43.355 -12.071   7.739  1.00  0.00    -0.262 N 
HETATM    3  O   UNL     1      45.421 -11.260   8.267  1.00  0.00    -0.264 OA
HETATM    4  H   UNL     1      42.389 -12.234   8.013  1.00  0.00     0.190 HD
ENDROOT
BRANCH   1   5
HETATM    5  C   UNL     1      43.586 -10.450   9.473  1.00  0.00     0.121 A 
HETATM    6  N   UNL     1      42.470  -9.709   9.205  1.00  0.00    -0.272 N 
HETATM    7  N   UNL     1      42.023  -8.991  10.245  1.00  0.00    -0.174 NA
HETATM    8  H   UNL     1      41.975  -9.651   8.321  1.00  0.00     0.189 HD
HETATM    9  C   UNL     1      42.862  -9.285  11.251  1.00  0.00     0.089 A 
HETATM   10  C   UNL     1      43.861 -10.198  10.803  1.00  0.00     0.071 A 
BRANCH   9  11
HETATM   11  C   UNL     1      42.701  -8.694  12.584  1.00  0.00    -0.005 A 
HETATM   12  C   UNL     1      43.424  -7.561  12.973  1.00  0.00     0.016 A 
HETATM   13  C   UNL     1      43.249  -7.007  14.247  1.00  0.00     0.037 A 
HETATM   14  C   UNL     1      42.349  -7.569  15.154  1.00  0.00     0.068 A 
HETATM   15  C   UNL     1      41.630  -8.703  14.782  1.00  0.00     0.037 A 
HETATM   16  C   UNL     1      41.808  -9.259  13.507  1.00  0.00     0.016 A 
BRANCH  14  17
HETATM   17  O   UNL     1      42.270  -6.925  16.358  1.00  0.00    -0.356 OA
HETATM   18  C   UNL     1      41.286  -7.391  17.271  1.00  0.00     0.210 C 
ENDBRANCH  14  17
ENDBRANCH   9  11
ENDBRANCH   1   5
BRANCH   2  19
HETATM   19  N   UNL     1      43.918 -13.023   6.876  1.00  0.00    -0.267 N 
HETATM   20  C   UNL     1      43.083 -13.972   6.328  1.00  0.00     0.240 C 
HETATM   21  O   UNL     1      41.861 -13.938   6.434  1.00  0.00    -0.271 OA
HETATM   22  H   UNL     1      44.928 -13.143   6.929  1.00  0.00     0.190 HD
BRANCH  20  23
HETATM   23  C   UNL     1      43.784 -15.076   5.620  1.00  0.00     0.089 A 
HETATM   24  C   UNL     1      43.244 -16.494   5.709  1.00  0.00     0.036 A 
HETATM   25  C   UNL     1      44.530 -16.119   6.408  1.00  0.00     0.025 A 
BRANCH  24  26
HETATM   26  C   UNL     1      43.273 -17.382   4.487  1.00  0.00    -0.015 A 
HETATM   27  C   UNL     1      42.470 -17.119   3.367  1.00  0.00     0.123 A 
HETATM   28  F   UNL     1      41.670 -16.041   3.368  1.00  0.00    -0.206 F 
HETATM   29  C   UNL     1      42.476 -17.938   2.238  1.00  0.00     0.043 A 
HETATM   30  C   UNL     1      43.297 -19.060   2.205  1.00  0.00     0.003 A 
HETATM   31  C   UNL     1      44.102 -19.357   3.303  1.00  0.00     0.001 A 
HETATM   32  C   UNL     1      44.084 -18.530   4.431  1.00  0.00     0.011 A 
ENDBRANCH  24  26
ENDBRANCH  20  23
ENDBRANCH   2  19
TORSDOF 6
ENDMDL
MODEL 2
REMARK VINA RESULT:      -9.3      1.863      2.439
REMARK  6 active torsions:
REMARK  status: ('A' for Active; 'I' for Inactive)
REMARK    1  A    between atoms: O_2  and  C_3 
REMARK    2  A    between atoms: C_6  and  C_7 
REMARK    3  A    between atoms: C_11  and  C_12 
REMARK       I    between atoms: C_12  and  N_13 
REMARK    4  A    between atoms: N_13  and  N_14 
REMARK       I    between atoms: N_14  and  C_15 
REMARK    5  A    between atoms: C_15  and  C_16 
REMARK    6  A    between atoms: C_17  and  C_18 
ROOT
HETATM    1  C   UNL     1      44.232 -11.917   7.299  1.00  0.00     0.288 C 
HETATM    2  N   UNL     1      43.010 -12.535   7.130  1.00  0.00    -0.262 N 
HETATM    3  O   UNL     1      45.214 -12.229   6.626  1.00  0.00    -0.264 OA
HETATM    4  H   UNL     1      42.247 -12.431   7.796  1.00  0.00     0.190 HD
ENDROOT
BRANCH   1   5
HETATM    5  C   UNL     1      44.283 -10.901   8.313  1.00  0.00     0.121 A 
HETATM    6  N   UNL     1      45.472 -10.434   8.797  1.00  0.00    -0.272 N 
HETATM    7  N   UNL     1      45.350  -9.498   9.749  1.00  0.00    -0.174 NA
HETATM    8  H   UNL     1      46.402 -10.727   8.515  1.00  0.00     0.189 HD
HETATM    9  C   UNL     1      44.026  -9.321   9.887  1.00  0.00     0.089 A 
HETATM   10  C   UNL     1      43.322 -10.188   9.002  1.00  0.00     0.071 A 
BRANCH   9  11
HETATM   11  C   UNL     1      43.476  -8.356  10.845  1.00  0.00    -0.005 A 
HETATM   12  C   UNL     1      42.892  -7.156  10.420  1.00  0.00     0.016 A 
HETATM   13  C   UNL     1      42.365  -6.252  11.350  1.00  0.00     0.037 A 
HETATM   14  C   UNL     1      42.406  -6.527  12.718  1.00  0.00     0.068 A 
HETATM   15  C   UNL     1      42.992  -7.714  13.154  1.00  0.00     0.037 A 
HETATM   16  C   UNL     1      43.523  -8.617  12.223  1.00  0.00     0.016 A 
BRANCH  14  17
HETATM   17  O   UNL     1      41.850  -5.565  13.514  1.00  0.00    -0.356 OA
HETATM   18  C   UNL     1      41.429  -5.968  14.810  1.00  0.00     0.210 C 
ENDBRANCH  14  17
ENDBRANCH   9  11
ENDBRANCH   1   5
BRANCH   2  19
HETATM   19  N   UNL     1      42.944 -13.658   6.291  1.00  0.00    -0.267 N 
HETATM   20  C   UNL     1      42.316 -13.518   5.074  1.00  0.00     0.240 C 
HETATM   21  O   UNL     1      41.948 -12.438   4.623  1.00  0.00    -0.271 OA
HETATM   22  H   UNL     1      43.096 -14.563   6.732  1.00  0.00     0.190 HD
BRANCH  20  23
HETATM   23  C   UNL     1      42.081 -14.796   4.350  1.00  0.00     0.089 A 
HETATM   24  C   UNL     1      43.165 -15.367   3.451  1.00  0.00     0.036 A 
HETATM   25  C   UNL     1      41.902 -14.790   2.855  1.00  0.00     0.025 A 
BRANCH  24  26
HETATM   26  C   UNL     1      43.406 -16.858   3.426  1.00  0.00    -0.015 A 
HETATM   27  C   UNL     1      44.098 -17.509   4.459  1.00  0.00     0.123 A 
HETATM   28  F   UNL     1      44.540 -16.797   5.507  1.00  0.00    -0.206 F 
HETATM   29  C   UNL     1      44.339 -18.883   4.442  1.00  0.00     0.043 A 
HETATM   30  C   UNL     1      43.890 -19.648   3.371  1.00  0.00     0.003 A 
HETATM   31  C   UNL     1      43.207 -19.034   2.324  1.00  0.00     0.001 A 
HETATM   32  C   UNL     1      42.974 -17.655   2.351  1.00  0.00     0.011 A 
ENDBRANCH  24  26
ENDBRANCH  20  23
ENDBRANCH   2  19
TORSDOF 6
ENDMDL
MODEL 3
REMARK VINA RESULT:      -9.2      2.880     11.524
REMARK  6 active torsions:
REMARK  status: ('A' for Active; 'I' for Inactive)
REMARK    1  A    between atoms: O_2  and  C_3 
REMARK    2  A    between atoms: C_6  and  C_7 
REMARK    3  A    between atoms: C_11  and  C_12 
REMARK       I    between atoms: C_12  and  N_13 
REMARK    4  A    between atoms: N_13  and  N_14 
REMARK       I    between atoms: N_14  and  C_15 
REMARK    5  A    between atoms: C_15  and  C_16 
REMARK    6  A    between atoms: C_17  and  C_18 
ROOT
HETATM    1  C   UNL     1      42.875 -11.515   6.452  1.00  0.00     0.288 C 
HETATM    2  N   UNL     1      43.344 -11.646   7.743  1.00  0.00    -0.262 N 
HETATM    3  O   UNL     1      42.590 -10.416   5.975  1.00  0.00    -0.264 OA
HETATM    4  H   UNL     1      43.400 -12.545   8.216  1.00  0.00     0.190 HD
ENDROOT
BRANCH   1   5
HETATM    5  C   UNL     1      42.729 -12.738   5.714  1.00  0.00     0.121 A 
HETATM    6  N   UNL     1      41.707 -12.918   4.824  1.00  0.00    -0.272 N 
HETATM    7  N   UNL     1      41.702 -14.118   4.227  1.00  0.00    -0.174 NA
HETATM    8  H   UNL     1      40.978 -12.252   4.591  1.00  0.00     0.189 HD
HETATM    9  C   UNL     1      42.777 -14.753   4.724  1.00  0.00     0.089 A 
HETATM   10  C   UNL     1      43.446 -13.917   5.665  1.00  0.00     0.071 A 
BRANCH   9  11
HETATM   11  C   UNL     1      43.126 -16.115   4.305  1.00  0.00    -0.005 A 
HETATM   12  C   UNL     1      42.700 -16.633   3.076  1.00  0.00     0.016 A 
HETATM   13  C   UNL     1      43.052 -17.932   2.691  1.00  0.00     0.037 A 
HETATM   14  C   UNL     1      43.836 -18.736   3.520  1.00  0.00     0.068 A 
HETATM   15  C   UNL     1      44.258 -18.235   4.749  1.00  0.00     0.037 A 
HETATM   16  C   UNL     1      43.904 -16.935   5.136  1.00  0.00     0.016 A 
BRANCH  14  17
HETATM   17  O   UNL     1      44.112 -19.978   3.019  1.00  0.00    -0.356 OA
HETATM   18  C   UNL     1      43.442 -20.350   1.822  1.00  0.00     0.210 C 
ENDBRANCH  14  17
ENDBRANCH   9  11
ENDBRANCH   1   5
BRANCH   2  19
HETATM   19  N   UNL     1      43.330 -10.515   8.573  1.00  0.00    -0.267 N 
HETATM   20  C   UNL     1      44.410 -10.308   9.402  1.00  0.00     0.240 C 
HETATM   21  O   UNL     1      45.441 -10.970   9.345  1.00  0.00    -0.271 OA
HETATM   22  H   UNL     1      42.423 -10.080   8.731  1.00  0.00     0.190 HD
BRANCH  20  23
HETATM   23  C   UNL     1      44.219  -9.231  10.409  1.00  0.00     0.089 A 
HETATM   24  C   UNL     1      42.818  -8.881  10.886  1.00  0.00     0.036 A 
HETATM   25  C   UNL     1      43.588  -7.926  10.002  1.00  0.00     0.025 A 
BRANCH  24  26
HETATM   26  C   UNL     1      42.586  -8.551  12.342  1.00  0.00    -0.015 A 
HETATM   27  C   UNL     1      41.666  -9.270  13.121  1.00  0.00     0.123 A 
HETATM   28  F   UNL     1      40.990 -10.290  12.569  1.00  0.00    -0.206 F 
HETATM   29  C   UNL     1      41.431  -8.968  14.462  1.00  0.00     0.043 A 
HETATM   30  C   UNL     1      42.119  -7.919  15.062  1.00  0.00     0.003 A 
HETATM   31  C   UNL     1      43.033  -7.178  14.317  1.00  0.00     0.001 A 
HETATM   32  C   UNL     1      43.257  -7.489  12.971  1.00  0.00     0.011 A 
ENDBRANCH  24  26
ENDBRANCH  20  23
ENDBRANCH   2  19
TORSDOF 6
ENDMDL
MODEL 4
REMARK VINA RESULT:      -8.8      3.427     11.717
REMARK  6 active torsions:
REMARK  status: ('A' for Active; 'I' for Inactive)
REMARK    1  A    between atoms: O_2  and  C_3 
REMARK    2  A    between atoms: C_6  and  C_7 
REMARK    3  A    between atoms: C_11  and  C_12 
REMARK       I    between atoms: C_12  and  N_13 
REMARK    4  A    between atoms: N_13  and  N_14 
REMARK       I    between atoms: N_14  and  C_15 
REMARK    5  A    between atoms: C_15  and  C_16 
REMARK    6  A    between atoms: C_17  and  C_18 
ROOT
HETATM    1  C   UNL     1      39.828 -11.927   6.309  1.00  0.00     0.288 C 
HETATM    2  N   UNL     1      40.839 -11.130   6.805  1.00  0.00    -0.262 N 
HETATM    3  O   UNL     1      38.648 -11.733   6.603  1.00  0.00    -0.264 OA
HETATM    4  H   UNL     1      41.821 -11.385   6.734  1.00  0.00     0.190 HD
ENDROOT
BRANCH   1   5
HETATM    5  C   UNL     1      40.242 -12.997   5.446  1.00  0.00     0.121 A 
HETATM    6  N   UNL     1      39.634 -13.221   4.243  1.00  0.00    -0.272 N 
HETATM    7  N   UNL     1      40.127 -14.265   3.562  1.00  0.00    -0.174 NA
HETATM    8  H   UNL     1      38.868 -12.691   3.839  1.00  0.00     0.189 HD
HETATM    9  C   UNL     1      41.117 -14.741   4.334  1.00  0.00     0.089 A 
HETATM   10  C   UNL     1      41.219 -13.970   5.529  1.00  0.00     0.071 A 
BRANCH   9  11
HETATM   11  C   UNL     1      41.921 -15.899   3.927  1.00  0.00    -0.005 A 
HETATM   12  C   UNL     1      41.750 -16.501   2.674  1.00  0.00     0.016 A 
HETATM   13  C   UNL     1      42.532 -17.601   2.301  1.00  0.00     0.037 A 
HETATM   14  C   UNL     1      43.500 -18.117   3.165  1.00  0.00     0.068 A 
HETATM   15  C   UNL     1      43.672 -17.531   4.417  1.00  0.00     0.037 A 
HETATM   16  C   UNL     1      42.887 -16.433   4.793  1.00  0.00     0.016 A 
BRANCH  14  17
HETATM   17  O   UNL     1      44.197 -19.184   2.672  1.00  0.00    -0.356 OA
HETATM   18  C   UNL     1      43.436 -20.234   2.090  1.00  0.00     0.210 C 
ENDBRANCH  14  17
ENDBRANCH   9  11
ENDBRANCH   1   5
BRANCH   2  19
HETATM   19  N   UNL     1      40.519 -10.191   7.797  1.00  0.00    -0.267 N 
HETATM   20  C   UNL     1      41.555  -9.593   8.479  1.00  0.00     0.240 C 
HETATM   21  O   UNL     1      42.734  -9.723   8.165  1.00  0.00    -0.271 OA
HETATM   22  H   UNL     1      39.567 -10.217   8.156  1.00  0.00     0.190 HD
BRANCH  20  23
HETATM   23  C   UNL     1      41.138  -8.795   9.662  1.00  0.00     0.089 A 
HETATM   24  C   UNL     1      41.188  -9.416  11.049  1.00  0.00     0.036 A 
HETATM   25  C   UNL     1      39.860  -9.135  10.383  1.00  0.00     0.025 A 
BRANCH  24  26
HETATM   26  C   UNL     1      41.641  -8.582  12.224  1.00  0.00    -0.015 A 
HETATM   27  C   UNL     1      42.998  -8.302  12.448  1.00  0.00     0.123 A 
HETATM   28  F   UNL     1      43.917  -8.766  11.587  1.00  0.00    -0.206 F 
HETATM   29  C   UNL     1      43.432  -7.545  13.536  1.00  0.00     0.043 A 
HETATM   30  C   UNL     1      42.503  -7.048  14.443  1.00  0.00     0.003 A 
HETATM   31  C   UNL     1      41.148  -7.314  14.258  1.00  0.00     0.001 A 
HETATM   32  C   UNL     1      40.725  -8.077  13.164  1.00  0.00     0.011 A 
ENDBRANCH  24  26
ENDBRANCH  20  23
ENDBRANCH   2  19
TORSDOF 6
ENDMDL
MODEL 5
REMARK VINA RESULT:      -8.4      1.976      2.464
REMARK  6 active torsions:
REMARK  status: ('A' for Active; 'I' for Inactive)
REMARK    1  A    between atoms: O_2  and  C_3 
REMARK    2  A    between atoms: C_6  and  C_7 
REMARK    3  A    between atoms: C_11  and  C_12 
REMARK       I    between atoms: C_12  and  N_13 
REMARK    4  A    between atoms: N_13  and  N_14 
REMARK       I    between atoms: N_14  and  C_15 
REMARK    5  A    between atoms: C_15  and  C_16 
REMARK    6  A    between atoms: C_17  and  C_18 
ROOT
HETATM    1  C   UNL     1      44.401 -11.027   8.273  1.00  0.00     0.288 C 
HETATM    2  N   UNL     1      43.532 -11.980   7.781  1.00  0.00    -0.262 N 
HETATM    3  O   UNL     1      45.581 -10.984   7.922  1.00  0.00    -0.264 OA
HETATM    4  H   UNL     1      42.620 -12.153   8.195  1.00  0.00     0.190 HD
ENDROOT
BRANCH   1   5
HETATM    5  C   UNL     1      43.845 -10.106   9.224  1.00  0.00     0.121 A 
HETATM    6  N   UNL     1      43.188 -10.540  10.340  1.00  0.00    -0.272 N 
HETATM    7  N   UNL     1      42.716  -9.557  11.119  1.00  0.00    -0.174 NA
HETATM    8  H   UNL     1      43.027 -11.504  10.616  1.00  0.00     0.189 HD
HETATM    9  C   UNL     1      43.095  -8.423  10.507  1.00  0.00     0.089 A 
HETATM   10  C   UNL     1      43.805  -8.728   9.309  1.00  0.00     0.071 A 
BRANCH   9  11
HETATM   11  C   UNL     1      42.769  -7.105  11.062  1.00  0.00    -0.005 A 
HETATM   12  C   UNL     1      42.446  -6.941  12.414  1.00  0.00     0.016 A 
HETATM   13  C   UNL     1      42.147  -5.673  12.926  1.00  0.00     0.037 A 
HETATM   14  C   UNL     1      42.166  -4.546  12.103  1.00  0.00     0.068 A 
HETATM   15  C   UNL     1      42.477  -4.697  10.753  1.00  0.00     0.037 A 
HETATM   16  C   UNL     1      42.774  -5.967  10.239  1.00  0.00     0.016 A 
BRANCH  14  17
HETATM   17  O   UNL     1      41.863  -3.370  12.732  1.00  0.00    -0.356 OA
HETATM   18  C   UNL     1      41.264  -2.354  11.939  1.00  0.00     0.210 C 
ENDBRANCH  14  17
ENDBRANCH   9  11
ENDBRANCH   1   5
BRANCH   2  19
HETATM   19  N   UNL     1      44.059 -13.017   6.998  1.00  0.00    -0.267 N 
HETATM   20  C   UNL     1      43.174 -13.845   6.343  1.00  0.00     0.240 C 
HETATM   21  O   UNL     1      41.967 -13.633   6.286  1.00  0.00    -0.271 OA
HETATM   22  H   UNL     1      45.025 -13.280   7.183  1.00  0.00     0.190 HD
BRANCH  20  23
HETATM   23  C   UNL     1      43.793 -15.051   5.731  1.00  0.00     0.089 A 
HETATM   24  C   UNL     1      43.021 -16.360   5.691  1.00  0.00     0.036 A 
HETATM   25  C   UNL     1      44.216 -16.202   6.604  1.00  0.00     0.025 A 
BRANCH  24  26
HETATM   26  C   UNL     1      43.109 -17.242   4.468  1.00  0.00    -0.015 A 
HETATM   27  C   UNL     1      42.306 -17.017   3.339  1.00  0.00     0.123 A 
HETATM   28  F   UNL     1      41.452 -15.981   3.334  1.00  0.00    -0.206 F 
HETATM   29  C   UNL     1      42.366 -17.831   2.209  1.00  0.00     0.043 A 
HETATM   30  C   UNL     1      43.244 -18.909   2.183  1.00  0.00     0.003 A 
HETATM   31  C   UNL     1      44.050 -19.168   3.289  1.00  0.00     0.001 A 
HETATM   32  C   UNL     1      43.978 -18.346   4.418  1.00  0.00     0.011 A 
ENDBRANCH  24  26
ENDBRANCH  20  23
ENDBRANCH   2  19
TORSDOF 6
ENDMDL
MODEL 6
REMARK VINA RESULT:      -8.4      2.398      3.092
REMARK  6 active torsions:
REMARK  status: ('A' for Active; 'I' for Inactive)
REMARK    1  A    between atoms: O_2  and  C_3 
REMARK    2  A    between atoms: C_6  and  C_7 
REMARK    3  A    between atoms: C_11  and  C_12 
REMARK       I    between atoms: C_12  and  N_13 
REMARK    4  A    between atoms: N_13  and  N_14 
REMARK       I    between atoms: N_14  and  C_15 
REMARK    5  A    between atoms: C_15  and  C_16 
REMARK    6  A    between atoms: C_17  and  C_18 
ROOT
HETATM    1  C   UNL     1      42.896 -11.821   6.170  1.00  0.00     0.288 C 
HETATM    2  N   UNL     1      42.129 -12.922   6.494  1.00  0.00    -0.262 N 
HETATM    3  O   UNL     1      43.337 -11.651   5.033  1.00  0.00    -0.264 OA
HETATM    4  H   UNL     1      41.921 -13.179   7.456  1.00  0.00     0.190 HD
ENDROOT
BRANCH   1   5
HETATM    5  C   UNL     1      43.154 -10.902   7.243  1.00  0.00     0.121 A 
HETATM    6  N   UNL     1      44.240 -11.043   8.059  1.00  0.00    -0.272 N 
HETATM    7  N   UNL     1      44.331 -10.113   9.020  1.00  0.00    -0.174 NA
HETATM    8  H   UNL     1      44.952 -11.765   8.008  1.00  0.00     0.189 HD
HETATM    9  C   UNL     1      43.274  -9.308   8.820  1.00  0.00     0.089 A 
HETATM   10  C   UNL     1      42.509  -9.775   7.712  1.00  0.00     0.071 A 
BRANCH   9  11
HETATM   11  C   UNL     1      43.021  -8.145   9.678  1.00  0.00    -0.005 A 
HETATM   12  C   UNL     1      43.053  -6.842   9.168  1.00  0.00     0.016 A 
HETATM   13  C   UNL     1      42.800  -5.745  10.001  1.00  0.00     0.037 A 
HETATM   14  C   UNL     1      42.507  -5.927  11.353  1.00  0.00     0.068 A 
HETATM   15  C   UNL     1      42.482  -7.218  11.874  1.00  0.00     0.037 A 
HETATM   16  C   UNL     1      42.739  -8.316  11.041  1.00  0.00     0.016 A 
BRANCH  14  17
HETATM   17  O   UNL     1      42.273  -4.773  12.049  1.00  0.00    -0.356 OA
HETATM   18  C   UNL     1      42.172  -3.576  11.290  1.00  0.00     0.210 C 
ENDBRANCH  14  17
ENDBRANCH   9  11
ENDBRANCH   1   5
BRANCH   2  19
HETATM   19  N   UNL     1      42.001 -13.945   5.543  1.00  0.00    -0.267 N 
HETATM   20  C   UNL     1      42.121 -15.247   5.975  1.00  0.00     0.240 C 
HETATM   21  O   UNL     1      42.183 -15.562   7.159  1.00  0.00    -0.271 OA
HETATM   22  H   UNL     1      42.118 -13.675   4.568  1.00  0.00     0.190 HD
BRANCH  20  23
HETATM   23  C   UNL     1      42.209 -16.254   4.884  1.00  0.00     0.089 A 
HETATM   24  C   UNL     1      43.564 -16.800   4.466  1.00  0.00     0.036 A 
HETATM   25  C   UNL     1      42.799 -15.870   3.553  1.00  0.00     0.025 A 
BRANCH  24  26
HETATM   26  C   UNL     1      43.704 -18.263   4.117  1.00  0.00    -0.015 A 
HETATM   27  C   UNL     1      43.539 -18.725   2.801  1.00  0.00     0.123 A 
HETATM   28  F   UNL     1      43.272 -17.846   1.823  1.00  0.00    -0.206 F 
HETATM   29  C   UNL     1      43.652 -20.074   2.467  1.00  0.00     0.043 A 
HETATM   30  C   UNL     1      43.932 -21.009   3.458  1.00  0.00     0.003 A 
HETATM   31  C   UNL     1      44.093 -20.587   4.776  1.00  0.00     0.001 A 
HETATM   32  C   UNL     1      43.974 -19.232   5.100  1.00  0.00     0.011 A 
ENDBRANCH  24  26
ENDBRANCH  20  23
ENDBRANCH   2  19
TORSDOF 6
ENDMDL
MODEL 7
REMARK VINA RESULT:      -8.3      1.609      1.973
REMARK  6 active torsions:
REMARK  status: ('A' for Active; 'I' for Inactive)
REMARK    1  A    between atoms: O_2  and  C_3 
REMARK    2  A    between atoms: C_6  and  C_7 
REMARK    3  A    between atoms: C_11  and  C_12 
REMARK       I    between atoms: C_12  and  N_13 
REMARK    4  A    between atoms: N_13  and  N_14 
REMARK       I    between atoms: N_14  and  C_15 
REMARK    5  A    between atoms: C_15  and  C_16 
REMARK    6  A    between atoms: C_17  and  C_18 
ROOT
HETATM    1  C   UNL     1      44.070 -10.446   9.554  1.00  0.00     0.288 C 
HETATM    2  N   UNL     1      43.304 -10.840   8.476  1.00  0.00    -0.262 N 
HETATM    3  O   UNL     1      45.208 -10.881   9.733  1.00  0.00    -0.264 OA
HETATM    4  H   UNL     1      42.307 -10.647   8.413  1.00  0.00     0.190 HD
ENDROOT
BRANCH   1   5
HETATM    5  C   UNL     1      43.451  -9.512  10.452  1.00  0.00     0.121 A 
HETATM    6  N   UNL     1      43.345  -8.185  10.142  1.00  0.00    -0.272 N 
HETATM    7  N   UNL     1      42.755  -7.444  11.090  1.00  0.00    -0.174 NA
HETATM    8  H   UNL     1      43.667  -7.730   9.294  1.00  0.00     0.189 HD
HETATM    9  C   UNL     1      42.436  -8.317  12.059  1.00  0.00     0.089 A 
HETATM   10  C   UNL     1      42.860  -9.628  11.695  1.00  0.00     0.071 A 
BRANCH   9  11
HETATM   11  C   UNL     1      41.757  -7.888  13.287  1.00  0.00    -0.005 A 
HETATM   12  C   UNL     1      40.767  -6.898  13.266  1.00  0.00     0.016 A 
HETATM   13  C   UNL     1      40.125  -6.508  14.448  1.00  0.00     0.037 A 
HETATM   14  C   UNL     1      40.454  -7.099  15.669  1.00  0.00     0.068 A 
HETATM   15  C   UNL     1      41.443  -8.079  15.703  1.00  0.00     0.037 A 
HETATM   16  C   UNL     1      42.089  -8.467  14.521  1.00  0.00     0.016 A 
BRANCH  14  17
HETATM   17  O   UNL     1      39.745  -6.632  16.741  1.00  0.00    -0.356 OA
HETATM   18  C   UNL     1      39.629  -5.221  16.867  1.00  0.00     0.210 C 
ENDBRANCH  14  17
ENDBRANCH   9  11
ENDBRANCH   1   5
BRANCH   2  19
HETATM   19  N   UNL     1      43.779 -11.887   7.672  1.00  0.00    -0.267 N 
HETATM   20  C   UNL     1      43.089 -12.177   6.516  1.00  0.00     0.240 C 
HETATM   21  O   UNL     1      42.180 -11.478   6.079  1.00  0.00    -0.271 OA
HETATM   22  H   UNL     1      44.412 -12.549   8.116  1.00  0.00     0.190 HD
BRANCH  20  23
HETATM   23  C   UNL     1      43.509 -13.436   5.845  1.00  0.00     0.089 A 
HETATM   24  C   UNL     1      42.607 -14.659   5.900  1.00  0.00     0.036 A 
HETATM   25  C   UNL     1      43.907 -14.630   6.672  1.00  0.00     0.025 A 
BRANCH  24  26
HETATM   26  C   UNL     1      42.467 -15.539   4.680  1.00  0.00    -0.015 A 
HETATM   27  C   UNL     1      41.336 -15.471   3.851  1.00  0.00     0.123 A 
HETATM   28  F   UNL     1      40.364 -14.590   4.133  1.00  0.00    -0.206 F 
HETATM   29  C   UNL     1      41.186 -16.286   2.729  1.00  0.00     0.043 A 
HETATM   30  C   UNL     1      42.179 -17.206   2.409  1.00  0.00     0.003 A 
HETATM   31  C   UNL     1      43.311 -17.307   3.215  1.00  0.00     0.001 A 
HETATM   32  C   UNL     1      43.448 -16.486   4.339  1.00  0.00     0.011 A 
ENDBRANCH  24  26
ENDBRANCH  20  23
ENDBRANCH   2  19
TORSDOF 6
ENDMDL
MODEL 8
REMARK VINA RESULT:      -8.2      3.118      3.905
REMARK  6 active torsions:
REMARK  status: ('A' for Active; 'I' for Inactive)
REMARK    1  A    between atoms: O_2  and  C_3 
REMARK    2  A    between atoms: C_6  and  C_7 
REMARK    3  A    between atoms: C_11  and  C_12 
REMARK       I    between atoms: C_12  and  N_13 
REMARK    4  A    between atoms: N_13  and  N_14 
REMARK       I    between atoms: N_14  and  C_15 
REMARK    5  A    between atoms: C_15  and  C_16 
REMARK    6  A    between atoms: C_17  and  C_18 
ROOT
HETATM    1  C   UNL     1      42.685 -12.247   5.336  1.00  0.00     0.288 C 
HETATM    2  N   UNL     1      41.852 -13.341   5.217  1.00  0.00    -0.262 N 
HETATM    3  O   UNL     1      43.729 -12.155   4.690  1.00  0.00    -0.264 OA
HETATM    4  H   UNL     1      41.097 -13.527   5.872  1.00  0.00     0.190 HD
ENDROOT
BRANCH   1   5
HETATM    5  C   UNL     1      42.262 -11.238   6.267  1.00  0.00     0.121 A 
HETATM    6  N   UNL     1      40.940 -11.017   6.528  1.00  0.00    -0.272 N 
HETATM    7  N   UNL     1      40.710 -10.032   7.408  1.00  0.00    -0.174 NA
HETATM    8  H   UNL     1      40.148 -11.508   6.125  1.00  0.00     0.189 HD
HETATM    9  C   UNL     1      41.930  -9.597   7.762  1.00  0.00     0.089 A 
HETATM   10  C   UNL     1      42.932 -10.330   7.063  1.00  0.00     0.071 A 
BRANCH   9  11
HETATM   11  C   UNL     1      42.107  -8.510   8.731  1.00  0.00    -0.005 A 
HETATM   12  C   UNL     1      41.301  -8.411   9.872  1.00  0.00     0.016 A 
HETATM   13  C   UNL     1      41.491  -7.370  10.790  1.00  0.00     0.037 A 
HETATM   14  C   UNL     1      42.488  -6.414  10.590  1.00  0.00     0.068 A 
HETATM   15  C   UNL     1      43.290  -6.497   9.454  1.00  0.00     0.037 A 
HETATM   16  C   UNL     1      43.098  -7.537   8.533  1.00  0.00     0.016 A 
BRANCH  14  17
HETATM   17  O   UNL     1      42.570  -5.459  11.566  1.00  0.00    -0.356 OA
HETATM   18  C   UNL     1      42.511  -4.103  11.143  1.00  0.00     0.210 C 
ENDBRANCH  14  17
ENDBRANCH   9  11
ENDBRANCH   1   5
BRANCH   2  19
HETATM   19  N   UNL     1      42.302 -14.440   4.470  1.00  0.00    -0.267 N 
HETATM   20  C   UNL     1      41.646 -14.735   3.296  1.00  0.00     0.240 C 
HETATM   21  O   UNL     1      40.794 -14.006   2.797  1.00  0.00    -0.271 OA
HETATM   22  H   UNL     1      42.880 -15.118   4.963  1.00  0.00     0.190 HD
BRANCH  20  23
HETATM   23  C   UNL     1      42.024 -16.038   2.687  1.00  0.00     0.089 A 
HETATM   24  C   UNL     1      43.402 -16.623   2.947  1.00  0.00     0.036 A 
HETATM   25  C   UNL     1      43.045 -16.082   1.582  1.00  0.00     0.025 A 
BRANCH  24  26
HETATM   26  C   UNL     1      43.554 -18.111   3.160  1.00  0.00    -0.015 A 
HETATM   27  C   UNL     1      44.033 -18.636   4.370  1.00  0.00     0.123 A 
HETATM   28  F   UNL     1      44.346 -17.801   5.373  1.00  0.00    -0.206 F 
HETATM   29  C   UNL     1      44.192 -20.006   4.576  1.00  0.00     0.043 A 
HETATM   30  C   UNL     1      43.873 -20.897   3.556  1.00  0.00     0.003 A 
HETATM   31  C   UNL     1      43.403 -20.411   2.338  1.00  0.00     0.001 A 
HETATM   32  C   UNL     1      43.252 -19.034   2.143  1.00  0.00     0.011 A 
ENDBRANCH  24  26
ENDBRANCH  20  23
ENDBRANCH   2  19
TORSDOF 6
ENDMDL
MODEL 9
REMARK VINA RESULT:      -8.2      3.381     11.686
REMARK  6 active torsions:
REMARK  status: ('A' for Active; 'I' for Inactive)
REMARK    1  A    between atoms: O_2  and  C_3 
REMARK    2  A    between atoms: C_6  and  C_7 
REMARK    3  A    between atoms: C_11  and  C_12 
REMARK       I    between atoms: C_12  and  N_13 
REMARK    4  A    between atoms: N_13  and  N_14 
REMARK       I    between atoms: N_14  and  C_15 
REMARK    5  A    between atoms: C_15  and  C_16 
REMARK    6  A    between atoms: C_17  and  C_18 
ROOT
HETATM    1  C   UNL     1      42.092 -10.429   5.810  1.00  0.00     0.288 C 
HETATM    2  N   UNL     1      42.026 -10.758   7.149  1.00  0.00    -0.262 N 
HETATM    3  O   UNL     1      41.827  -9.295   5.409  1.00  0.00    -0.264 OA
HETATM    4  H   UNL     1      42.051 -11.721   7.477  1.00  0.00     0.190 HD
ENDROOT
BRANCH   1   5
HETATM    5  C   UNL     1      42.473 -11.492   4.923  1.00  0.00     0.121 A 
HETATM    6  N   UNL     1      43.168 -11.248   3.772  1.00  0.00    -0.272 N 
HETATM    7  N   UNL     1      43.435 -12.343   3.048  1.00  0.00    -0.174 NA
HETATM    8  H   UNL     1      43.481 -10.346   3.429  1.00  0.00     0.189 HD
HETATM    9  C   UNL     1      42.915 -13.359   3.757  1.00  0.00     0.089 A 
HETATM   10  C   UNL     1      42.299 -12.862   4.942  1.00  0.00     0.071 A 
BRANCH   9  11
HETATM   11  C   UNL     1      43.009 -14.747   3.292  1.00  0.00    -0.005 A 
HETATM   12  C   UNL     1      42.936 -15.823   4.186  1.00  0.00     0.016 A 
HETATM   13  C   UNL     1      43.019 -17.141   3.722  1.00  0.00     0.037 A 
HETATM   14  C   UNL     1      43.172 -17.412   2.361  1.00  0.00     0.068 A 
HETATM   15  C   UNL     1      43.255 -16.350   1.463  1.00  0.00     0.037 A 
HETATM   16  C   UNL     1      43.175 -15.030   1.928  1.00  0.00     0.016 A 
BRANCH  14  17
HETATM   17  O   UNL     1      43.231 -18.741   2.044  1.00  0.00    -0.356 OA
HETATM   18  C   UNL     1      43.819 -19.605   3.008  1.00  0.00     0.210 C 
ENDBRANCH  14  17
ENDBRANCH   9  11
ENDBRANCH   1   5
BRANCH   2  19
HETATM   19  N   UNL     1      41.481  -9.820   8.037  1.00  0.00    -0.267 N 
HETATM   20  C   UNL     1      42.272  -9.378   9.074  1.00  0.00     0.240 C 
HETATM   21  O   UNL     1      43.465  -9.643   9.174  1.00  0.00    -0.271 OA
HETATM   22  H   UNL     1      40.466  -9.739   8.045  1.00  0.00     0.190 HD
BRANCH  20  23
HETATM   23  C   UNL     1      41.554  -8.573  10.099  1.00  0.00     0.089 A 
HETATM   24  C   UNL     1      40.851  -9.270  11.252  1.00  0.00     0.036 A 
HETATM   25  C   UNL     1      40.050  -8.603  10.158  1.00  0.00     0.025 A 
BRANCH  24  26
HETATM   26  C   UNL     1      40.903  -8.663  12.635  1.00  0.00    -0.015 A 
HETATM   27  C   UNL     1      41.843  -9.085  13.588  1.00  0.00     0.123 A 
HETATM   28  F   UNL     1      42.733 -10.035  13.261  1.00  0.00    -0.206 F 
HETATM   29  C   UNL     1      41.895  -8.543  14.872  1.00  0.00     0.043 A 
HETATM   30  C   UNL     1      40.988  -7.555  15.240  1.00  0.00     0.003 A 
HETATM   31  C   UNL     1      40.035  -7.118  14.322  1.00  0.00     0.001 A 
HETATM   32  C   UNL     1      39.992  -7.671  13.038  1.00  0.00     0.011 A 
ENDBRANCH  24  26
ENDBRANCH  20  23
ENDBRANCH   2  19
TORSDOF 6
ENDMDL
MODEL 10
REMARK VINA RESULT:      -8.2      1.963      2.490
REMARK  6 active torsions:
REMARK  status: ('A' for Active; 'I' for Inactive)
REMARK    1  A    between atoms: O_2  and  C_3 
REMARK    2  A    between atoms: C_6  and  C_7 
REMARK    3  A    between atoms: C_11  and  C_12 
REMARK       I    between atoms: C_12  and  N_13 
REMARK    4  A    between atoms: N_13  and  N_14 
REMARK       I    between atoms: N_14  and  C_15 
REMARK    5  A    between atoms: C_15  and  C_16 
REMARK    6  A    between atoms: C_17  and  C_18 
ROOT
HETATM    1  C   UNL     1      43.242 -10.128   7.781  1.00  0.00     0.288 C 
HETATM    2  N   UNL     1      42.066 -10.427   7.125  1.00  0.00    -0.262 N 
HETATM    3  O   UNL     1      44.337 -10.220   7.224  1.00  0.00    -0.264 OA
HETATM    4  H   UNL     1      41.182 -10.544   7.613  1.00  0.00     0.190 HD
ENDROOT
BRANCH   1   5
HETATM    5  C   UNL     1      43.107  -9.719   9.151  1.00  0.00     0.121 A 
HETATM    6  N   UNL     1      43.382 -10.571  10.183  1.00  0.00    -0.272 N 
HETATM    7  N   UNL     1      43.192 -10.042  11.399  1.00  0.00    -0.174 NA
HETATM    8  H   UNL     1      43.698 -11.533  10.111  1.00  0.00     0.189 HD
HETATM    9  C   UNL     1      42.796  -8.780  11.167  1.00  0.00     0.089 A 
HETATM   10  C   UNL     1      42.728  -8.540   9.763  1.00  0.00     0.071 A 
BRANCH   9  11
HETATM   11  C   UNL     1      42.490  -7.856  12.264  1.00  0.00    -0.005 A 
HETATM   12  C   UNL     1      41.465  -6.908  12.157  1.00  0.00     0.016 A 
HETATM   13  C   UNL     1      41.184  -6.040  13.219  1.00  0.00     0.037 A 
HETATM   14  C   UNL     1      41.914  -6.104  14.407  1.00  0.00     0.068 A 
HETATM   15  C   UNL     1      42.942  -7.036  14.522  1.00  0.00     0.037 A 
HETATM   16  C   UNL     1      43.227  -7.903  13.458  1.00  0.00     0.016 A 
BRANCH  14  17
HETATM   17  O   UNL     1      41.530  -5.206  15.364  1.00  0.00    -0.356 OA
HETATM   18  C   UNL     1      41.607  -5.638  16.717  1.00  0.00     0.210 C 
ENDBRANCH  14  17
ENDBRANCH   9  11
ENDBRANCH   1   5
BRANCH   2  19
HETATM   19  N   UNL     1      42.147 -11.010   5.851  1.00  0.00    -0.267 N 
HETATM   20  C   UNL     1      41.291 -12.050   5.562  1.00  0.00     0.240 C 
HETATM   21  O   UNL     1      40.370 -12.391   6.297  1.00  0.00    -0.271 OA
HETATM   22  H   UNL     1      43.002 -10.839   5.327  1.00  0.00     0.190 HD
BRANCH  20  23
HETATM   23  C   UNL     1      41.593 -12.764   4.293  1.00  0.00     0.089 A 
HETATM   24  C   UNL     1      42.911 -13.505   4.136  1.00  0.00     0.036 A 
HETATM   25  C   UNL     1      42.652 -12.231   3.365  1.00  0.00     0.025 A 
BRANCH  24  26
HETATM   26  C   UNL     1      42.939 -14.835   3.420  1.00  0.00    -0.015 A 
HETATM   27  C   UNL     1      42.718 -16.042   4.101  1.00  0.00     0.123 A 
HETATM   28  F   UNL     1      42.454 -16.018   5.416  1.00  0.00    -0.206 F 
HETATM   29  C   UNL     1      42.755 -17.278   3.455  1.00  0.00     0.043 A 
HETATM   30  C   UNL     1      43.023 -17.335   2.092  1.00  0.00     0.003 A 
HETATM   31  C   UNL     1      43.256 -16.157   1.385  1.00  0.00     0.001 A 
HETATM   32  C   UNL     1      43.220 -14.924   2.045  1.00  0.00     0.011 A 
ENDBRANCH  24  26
ENDBRANCH  20  23
ENDBRANCH   2  19
TORSDOF 6
ENDMDL
