MODEL 1
REMARK VINA RESULT:     -10.8      0.000      0.000
REMARK  4 active torsions:
REMARK  status: ('A' for Active; 'I' for Inactive)
REMARK    1  A    between atoms: C_4  and  C_5 
REMARK    2  A    between atoms: C_6  and  N_7 
REMARK    3  A    between atoms: C_9  and  C_10 
REMARK       I    between atoms: C_10  and  N_11 
REMARK    4  A    between atoms: N_11  and  C_12 
ROOT
HETATM    1  C   UNL     1      42.312 -16.362   4.129  1.00  0.00     0.019 A 
HETATM    2  C   UNL     1      42.185 -15.676   5.295  1.00  0.00     0.111 A 
HETATM    3  C   UNL     1      42.671 -16.322   6.592  1.00  0.00     0.273 A 
HETATM    4  O   UNL     1      42.522 -15.790   7.692  1.00  0.00    -0.266 OA
HETATM    5  N   UNL     1      43.276 -17.541   6.511  1.00  0.00    -0.321 N 
HETATM    6  C   UNL     1      43.436 -18.248   5.324  1.00  0.00     0.046 A 
HETATM    7  C   UNL     1      42.967 -17.700   4.125  1.00  0.00     0.006 A 
HETATM    8  C   UNL     1      44.059 -19.499   5.361  1.00  0.00     0.032 A 
HETATM    9  C   UNL     1      44.219 -20.225   4.183  1.00  0.00     0.026 A 
HETATM   10  C   UNL     1      43.758 -19.694   2.981  1.00  0.00     0.035 A 
HETATM   11 CL   UNL     1      43.953 -20.592   1.526  1.00  0.00    -0.084 Cl
HETATM   12  C   UNL     1      43.140 -18.442   2.946  1.00  0.00     0.038 A 
HETATM   13  H   UNL     1      43.589 -17.928   7.389  1.00  0.00     0.169 HD
ENDROOT
BRANCH   2  14
HETATM   14  N   UNL     1      41.579 -14.395   5.402  1.00  0.00    -0.375 N 
HETATM   15  C   UNL     1      42.366 -13.328   6.067  1.00  0.00     0.137 C 
HETATM   16  C   UNL     1      41.746 -11.942   5.870  1.00  0.00     0.096 C 
HETATM   17  C   UNL     1      40.250 -11.921   6.200  1.00  0.00     0.017 C 
HETATM   18  C   UNL     1      39.526 -13.035   5.454  1.00  0.00     0.021 C 
HETATM   19  C   UNL     1      40.151 -14.387   5.777  1.00  0.00     0.123 C 
BRANCH  16  20
HETATM   20  C   UNL     1      42.507 -10.898   6.689  1.00  0.00     0.229 C 
HETATM   21  N   UNL     1      43.307 -11.438   7.681  1.00  0.00    -0.311 N 
HETATM   22  H   UNL     1      43.349 -12.441   7.773  1.00  0.00     0.170 HD
HETATM   23  O   UNL     1      42.368  -9.707   6.427  1.00  0.00    -0.273 OA
BRANCH  21  24
HETATM   24  C   UNL     1      44.123 -10.718   8.565  1.00  0.00     0.129 A 
HETATM   25  N   UNL     1      43.925 -10.768   9.892  1.00  0.00    -0.243 NA
HETATM   26  C   UNL     1      44.750 -10.053  10.685  1.00  0.00     0.119 A 
HETATM   27  C   UNL     1      45.785  -9.267  10.209  1.00  0.00     0.019 A 
HETATM   28  C   UNL     1      45.983  -9.217   8.837  1.00  0.00     0.005 A 
HETATM   29  C   UNL     1      45.145  -9.956   8.003  1.00  0.00     0.050 A 
ENDBRANCH  21  24
ENDBRANCH  16  20
ENDBRANCH   2  14
BRANCH   1  30
HETATM   30  C   UNL     1      41.778 -15.730   2.895  1.00  0.00    -0.023 A 
HETATM   31  C   UNL     1      40.512 -16.076   2.407  1.00  0.00     0.012 A 
HETATM   32  C   UNL     1      40.000 -15.442   1.274  1.00  0.00     0.001 A 
HETATM   33  C   UNL     1      40.748 -14.462   0.622  1.00  0.00     0.000 A 
HETATM   34  C   UNL     1      42.012 -14.116   1.099  1.00  0.00     0.001 A 
HETATM   35  C   UNL     1      42.526 -14.747   2.232  1.00  0.00     0.012 A 
ENDBRANCH   1  30
TORSDOF 4
ENDMDL
MODEL 2
REMARK VINA RESULT:     -10.3      1.389      1.404
REMARK  4 active torsions:
REMARK  status: ('A' for Active; 'I' for Inactive)
REMARK    1  A    between atoms: C_4  and  C_5 
REMARK    2  A    between atoms: C_6  and  N_7 
REMARK    3  A    between atoms: C_9  and  C_10 
REMARK       I    between atoms: C_10  and  N_11 
REMARK    4  A    between atoms: N_11  and  C_12 
ROOT
HETATM    1  C   UNL     1      42.356 -16.288   4.231  1.00  0.00     0.019 A 
HETATM    2  C   UNL     1      42.229 -15.607   5.400  1.00  0.00     0.111 A 
HETATM    3  C   UNL     1      42.699 -16.265   6.697  1.00  0.00     0.273 A 
HETATM    4  O   UNL     1      42.550 -15.737   7.799  1.00  0.00    -0.266 OA
HETATM    5  N   UNL     1      43.292 -17.490   6.613  1.00  0.00    -0.321 N 
HETATM    6  C   UNL     1      43.452 -18.192   5.423  1.00  0.00     0.046 A 
HETATM    7  C   UNL     1      42.996 -17.633   4.225  1.00  0.00     0.006 A 
HETATM    8  C   UNL     1      44.060 -19.450   5.458  1.00  0.00     0.032 A 
HETATM    9  C   UNL     1      44.220 -20.172   4.277  1.00  0.00     0.026 A 
HETATM   10  C   UNL     1      43.773 -19.629   3.074  1.00  0.00     0.035 A 
HETATM   11 CL   UNL     1      43.967 -20.521   1.616  1.00  0.00    -0.084 Cl
HETATM   12  C   UNL     1      43.169 -18.370   3.043  1.00  0.00     0.038 A 
HETATM   13  H   UNL     1      43.595 -17.885   7.491  1.00  0.00     0.169 HD
ENDROOT
BRANCH   2  14
HETATM   14  N   UNL     1      41.636 -14.320   5.511  1.00  0.00    -0.375 N 
HETATM   15  C   UNL     1      42.454 -13.250   6.132  1.00  0.00     0.137 C 
HETATM   16  C   UNL     1      41.837 -11.861   5.937  1.00  0.00     0.096 C 
HETATM   17  C   UNL     1      40.355 -11.825   6.320  1.00  0.00     0.017 C 
HETATM   18  C   UNL     1      39.597 -12.944   5.616  1.00  0.00     0.021 C 
HETATM   19  C   UNL     1      40.223 -14.296   5.936  1.00  0.00     0.123 C 
BRANCH  16  20
HETATM   20  C   UNL     1      42.634 -10.812   6.714  1.00  0.00     0.229 C 
HETATM   21  N   UNL     1      41.864 -10.034   7.560  1.00  0.00    -0.311 N 
HETATM   22  H   UNL     1      40.875 -10.223   7.619  1.00  0.00     0.170 HD
HETATM   23  O   UNL     1      43.849 -10.732   6.549  1.00  0.00    -0.273 OA
BRANCH  21  24
HETATM   24  C   UNL     1      42.333  -9.014   8.399  1.00  0.00     0.129 A 
HETATM   25  N   UNL     1      42.763  -9.279   9.643  1.00  0.00    -0.243 NA
HETATM   26  C   UNL     1      43.204  -8.248  10.395  1.00  0.00     0.119 A 
HETATM   27  C   UNL     1      43.233  -6.935   9.961  1.00  0.00     0.019 A 
HETATM   28  C   UNL     1      42.784  -6.667   8.676  1.00  0.00     0.005 A 
HETATM   29  C   UNL     1      42.333  -7.720   7.881  1.00  0.00     0.050 A 
ENDBRANCH  21  24
ENDBRANCH  16  20
ENDBRANCH   2  14
BRANCH   1  30
HETATM   30  C   UNL     1      41.837 -15.643   2.998  1.00  0.00    -0.023 A 
HETATM   31  C   UNL     1      40.569 -15.970   2.502  1.00  0.00     0.012 A 
HETATM   32  C   UNL     1      40.071 -15.325   1.369  1.00  0.00     0.001 A 
HETATM   33  C   UNL     1      40.835 -14.351   0.725  1.00  0.00     0.000 A 
HETATM   34  C   UNL     1      42.101 -14.024   1.211  1.00  0.00     0.001 A 
HETATM   35  C   UNL     1      42.601 -14.667   2.344  1.00  0.00     0.012 A 
ENDBRANCH   1  30
TORSDOF 4
ENDMDL
MODEL 3
REMARK VINA RESULT:      -9.7      3.590      8.617
REMARK  4 active torsions:
REMARK  status: ('A' for Active; 'I' for Inactive)
REMARK    1  A    between atoms: C_4  and  C_5 
REMARK    2  A    between atoms: C_6  and  N_7 
REMARK    3  A    between atoms: C_9  and  C_10 
REMARK       I    between atoms: C_10  and  N_11 
REMARK    4  A    between atoms: N_11  and  C_12 
ROOT
HETATM    1  C   UNL     1      42.313 -10.317   7.136  1.00  0.00     0.019 A 
HETATM    2  C   UNL     1      43.168 -11.179   6.527  1.00  0.00     0.111 A 
HETATM    3  C   UNL     1      44.548 -11.412   7.141  1.00  0.00     0.273 A 
HETATM    4  O   UNL     1      45.400 -12.122   6.605  1.00  0.00    -0.266 OA
HETATM    5  N   UNL     1      44.837 -10.789   8.319  1.00  0.00    -0.321 N 
HETATM    6  C   UNL     1      43.965  -9.922   8.969  1.00  0.00     0.046 A 
HETATM    7  C   UNL     1      42.709  -9.659   8.412  1.00  0.00     0.006 A 
HETATM    8  C   UNL     1      44.373  -9.326  10.166  1.00  0.00     0.032 A 
HETATM    9  C   UNL     1      43.517  -8.448  10.826  1.00  0.00     0.026 A 
HETATM   10  C   UNL     1      42.262  -8.176  10.286  1.00  0.00     0.035 A 
HETATM   11 CL   UNL     1      41.205  -7.088  11.099  1.00  0.00    -0.084 Cl
HETATM   12  C   UNL     1      41.856  -8.776   9.091  1.00  0.00     0.038 A 
HETATM   13  H   UNL     1      45.756 -10.976   8.694  1.00  0.00     0.169 HD
ENDROOT
BRANCH   2  14
HETATM   14  N   UNL     1      42.883 -11.858   5.311  1.00  0.00    -0.375 N 
HETATM   15  C   UNL     1      42.708 -13.328   5.383  1.00  0.00     0.137 C 
HETATM   16  C   UNL     1      42.125 -13.907   4.090  1.00  0.00     0.096 C 
HETATM   17  C   UNL     1      42.875 -13.421   2.846  1.00  0.00     0.017 C 
HETATM   18  C   UNL     1      42.984 -11.901   2.851  1.00  0.00     0.021 C 
HETATM   19  C   UNL     1      43.654 -11.418   4.132  1.00  0.00     0.123 C 
BRANCH  16  20
HETATM   20  C   UNL     1      42.098 -15.435   4.156  1.00  0.00     0.229 C 
HETATM   21  N   UNL     1      43.184 -16.042   3.553  1.00  0.00    -0.311 N 
HETATM   22  H   UNL     1      43.901 -15.458   3.150  1.00  0.00     0.170 HD
HETATM   23  O   UNL     1      41.160 -15.998   4.715  1.00  0.00    -0.273 OA
BRANCH  21  24
HETATM   24  C   UNL     1      43.424 -17.422   3.481  1.00  0.00     0.129 A 
HETATM   25  N   UNL     1      44.011 -18.080   4.494  1.00  0.00    -0.243 NA
HETATM   26  C   UNL     1      44.208 -19.409   4.358  1.00  0.00     0.119 A 
HETATM   27  C   UNL     1      43.845 -20.130   3.234  1.00  0.00     0.019 A 
HETATM   28  C   UNL     1      43.242 -19.444   2.191  1.00  0.00     0.005 A 
HETATM   29  C   UNL     1      43.022 -18.073   2.316  1.00  0.00     0.050 A 
ENDBRANCH  21  24
ENDBRANCH  16  20
ENDBRANCH   2  14
BRANCH   1  30
HETATM   30  C   UNL     1      41.002 -10.070   6.483  1.00  0.00    -0.023 A 
HETATM   31  C   UNL     1      40.853  -9.036   5.551  1.00  0.00     0.012 A 
HETATM   32  C   UNL     1      39.629  -8.842   4.908  1.00  0.00     0.001 A 
HETATM   33  C   UNL     1      38.549  -9.677   5.192  1.00  0.00     0.000 A 
HETATM   34  C   UNL     1      38.688 -10.706   6.123  1.00  0.00     0.001 A 
HETATM   35  C   UNL     1      39.910 -10.904   6.766  1.00  0.00     0.012 A 
ENDBRANCH   1  30
TORSDOF 4
ENDMDL
MODEL 4
REMARK VINA RESULT:      -9.1      2.375      4.753
REMARK  4 active torsions:
REMARK  status: ('A' for Active; 'I' for Inactive)
REMARK    1  A    between atoms: C_4  and  C_5 
REMARK    2  A    between atoms: C_6  and  N_7 
REMARK    3  A    between atoms: C_9  and  C_10 
REMARK       I    between atoms: C_10  and  N_11 
REMARK    4  A    between atoms: N_11  and  C_12 
ROOT
HETATM    1  C   UNL     1      42.879 -16.368   4.578  1.00  0.00     0.019 A 
HETATM    2  C   UNL     1      42.938 -15.792   5.807  1.00  0.00     0.111 A 
HETATM    3  C   UNL     1      43.357 -16.644   7.005  1.00  0.00     0.273 A 
HETATM    4  O   UNL     1      43.363 -16.209   8.157  1.00  0.00    -0.266 OA
HETATM    5  N   UNL     1      43.719 -17.938   6.773  1.00  0.00    -0.321 N 
HETATM    6  C   UNL     1      43.687 -18.538   5.519  1.00  0.00     0.046 A 
HETATM    7  C   UNL     1      43.271 -17.794   4.409  1.00  0.00     0.006 A 
HETATM    8  C   UNL     1      44.066 -19.878   5.401  1.00  0.00     0.032 A 
HETATM    9  C   UNL     1      44.031 -20.497   4.153  1.00  0.00     0.026 A 
HETATM   10  C   UNL     1      43.621 -19.771   3.038  1.00  0.00     0.035 A 
HETATM   11 CL   UNL     1      43.575 -20.537   1.497  1.00  0.00    -0.084 Cl
HETATM   12  C   UNL     1      43.246 -18.431   3.158  1.00  0.00     0.038 A 
HETATM   13  H   UNL     1      43.996 -18.463   7.590  1.00  0.00     0.169 HD
ENDROOT
BRANCH   2  14
HETATM   14  N   UNL     1      42.588 -14.441   6.071  1.00  0.00    -0.375 N 
HETATM   15  C   UNL     1      41.329 -13.938   5.469  1.00  0.00     0.137 C 
HETATM   16  C   UNL     1      40.909 -12.584   6.048  1.00  0.00     0.096 C 
HETATM   17  C   UNL     1      42.057 -11.570   6.047  1.00  0.00     0.017 C 
HETATM   18  C   UNL     1      43.295 -12.168   6.705  1.00  0.00     0.021 C 
HETATM   19  C   UNL     1      43.694 -13.465   6.011  1.00  0.00     0.123 C 
BRANCH  16  20
HETATM   20  C   UNL     1      39.692 -12.040   5.299  1.00  0.00     0.229 C 
HETATM   21  N   UNL     1      39.974 -11.587   4.023  1.00  0.00    -0.311 N 
HETATM   22  H   UNL     1      40.920 -11.666   3.682  1.00  0.00     0.170 HD
HETATM   23  O   UNL     1      38.594 -12.042   5.849  1.00  0.00    -0.273 OA
BRANCH  21  24
HETATM   24  C   UNL     1      39.050 -11.056   3.111  1.00  0.00     0.129 A 
HETATM   25  N   UNL     1      38.709  -9.758   3.143  1.00  0.00    -0.243 NA
HETATM   26  C   UNL     1      37.815  -9.314   2.234  1.00  0.00     0.119 A 
HETATM   27  C   UNL     1      37.227 -10.120   1.276  1.00  0.00     0.019 A 
HETATM   28  C   UNL     1      37.581 -11.461   1.250  1.00  0.00     0.005 A 
HETATM   29  C   UNL     1      38.509 -11.935   2.176  1.00  0.00     0.050 A 
ENDBRANCH  21  24
ENDBRANCH  16  20
ENDBRANCH   2  14
BRANCH   1  30
HETATM   30  C   UNL     1      42.414 -15.527   3.445  1.00  0.00    -0.023 A 
HETATM   31  C   UNL     1      43.292 -14.646   2.803  1.00  0.00     0.012 A 
HETATM   32  C   UNL     1      42.858 -13.895   1.709  1.00  0.00     0.001 A 
HETATM   33  C   UNL     1      41.546 -14.018   1.252  1.00  0.00     0.000 A 
HETATM   34  C   UNL     1      40.664 -14.889   1.890  1.00  0.00     0.001 A 
HETATM   35  C   UNL     1      41.095 -15.642   2.983  1.00  0.00     0.012 A 
ENDBRANCH   1  30
TORSDOF 4
ENDMDL
MODEL 5
REMARK VINA RESULT:      -8.6      4.585      9.489
REMARK  4 active torsions:
REMARK  status: ('A' for Active; 'I' for Inactive)
REMARK    1  A    between atoms: C_4  and  C_5 
REMARK    2  A    between atoms: C_6  and  N_7 
REMARK    3  A    between atoms: C_9  and  C_10 
REMARK       I    between atoms: C_10  and  N_11 
REMARK    4  A    between atoms: N_11  and  C_12 
ROOT
HETATM    1  C   UNL     1      42.101  -8.941  10.097  1.00  0.00     0.019 A 
HETATM    2  C   UNL     1      43.117  -9.842  10.064  1.00  0.00     0.111 A 
HETATM    3  C   UNL     1      43.466 -10.613  11.337  1.00  0.00     0.273 A 
HETATM    4  O   UNL     1      44.418 -11.392  11.400  1.00  0.00    -0.266 OA
HETATM    5  N   UNL     1      42.692 -10.408  12.440  1.00  0.00    -0.321 N 
HETATM    6  C   UNL     1      41.633  -9.507  12.486  1.00  0.00     0.046 A 
HETATM    7  C   UNL     1      41.314  -8.758  11.348  1.00  0.00     0.006 A 
HETATM    8  C   UNL     1      40.917  -9.367  13.678  1.00  0.00     0.032 A 
HETATM    9  C   UNL     1      39.860  -8.461  13.745  1.00  0.00     0.026 A 
HETATM   10  C   UNL     1      39.528  -7.709  12.621  1.00  0.00     0.035 A 
HETATM   11 CL   UNL     1      38.224  -6.589  12.703  1.00  0.00    -0.084 Cl
HETATM   12  C   UNL     1      40.244  -7.855  11.430  1.00  0.00     0.038 A 
HETATM   13  H   UNL     1      42.952 -10.942  13.257  1.00  0.00     0.169 HD
ENDROOT
BRANCH   2  14
HETATM   14  N   UNL     1      43.924 -10.091   8.921  1.00  0.00    -0.375 N 
HETATM   15  C   UNL     1      43.532 -11.227   8.051  1.00  0.00     0.137 C 
HETATM   16  C   UNL     1      44.284 -11.221   6.716  1.00  0.00     0.096 C 
HETATM   17  C   UNL     1      45.796 -11.061   6.902  1.00  0.00     0.017 C 
HETATM   18  C   UNL     1      46.098  -9.858   7.788  1.00  0.00     0.021 C 
HETATM   19  C   UNL     1      45.382  -9.989   9.127  1.00  0.00     0.123 C 
BRANCH  16  20
HETATM   20  C   UNL     1      43.957 -12.483   5.917  1.00  0.00     0.229 C 
HETATM   21  N   UNL     1      43.814 -13.619   6.694  1.00  0.00    -0.311 N 
HETATM   22  H   UNL     1      43.909 -13.533   7.695  1.00  0.00     0.170 HD
HETATM   23  O   UNL     1      43.843 -12.412   4.696  1.00  0.00    -0.273 OA
BRANCH  21  24
HETATM   24  C   UNL     1      43.499 -14.904   6.229  1.00  0.00     0.129 A 
HETATM   25  N   UNL     1      42.279 -15.189   5.747  1.00  0.00    -0.243 NA
HETATM   26  C   UNL     1      42.046 -16.446   5.313  1.00  0.00     0.119 A 
HETATM   27  C   UNL     1      42.989 -17.458   5.342  1.00  0.00     0.019 A 
HETATM   28  C   UNL     1      44.247 -17.157   5.844  1.00  0.00     0.005 A 
HETATM   29  C   UNL     1      44.509 -15.862   6.289  1.00  0.00     0.050 A 
ENDBRANCH  21  24
ENDBRANCH  16  20
ENDBRANCH   2  14
BRANCH   1  30
HETATM   30  C   UNL     1      41.825  -8.168   8.859  1.00  0.00    -0.023 A 
HETATM   31  C   UNL     1      40.916  -8.646   7.907  1.00  0.00     0.012 A 
HETATM   32  C   UNL     1      40.628  -7.890   6.770  1.00  0.00     0.001 A 
HETATM   33  C   UNL     1      41.247  -6.655   6.576  1.00  0.00     0.000 A 
HETATM   34  C   UNL     1      42.158  -6.175   7.516  1.00  0.00     0.001 A 
HETATM   35  C   UNL     1      42.447  -6.928   8.655  1.00  0.00     0.012 A 
ENDBRANCH   1  30
TORSDOF 4
ENDMDL
MODEL 6
REMARK VINA RESULT:      -8.5      8.092     11.330
REMARK  4 active torsions:
REMARK  status: ('A' for Active; 'I' for Inactive)
REMARK    1  A    between atoms: C_4  and  C_5 
REMARK    2  A    between atoms: C_6  and  N_7 
REMARK    3  A    between atoms: C_9  and  C_10 
REMARK       I    between atoms: C_10  and  N_11 
REMARK    4  A    between atoms: N_11  and  C_12 
ROOT
HETATM    1  C   UNL     1      42.081  -7.765  11.131  1.00  0.00     0.019 A 
HETATM    2  C   UNL     1      41.205  -8.145  12.097  1.00  0.00     0.111 A 
HETATM    3  C   UNL     1      41.286  -9.565  12.656  1.00  0.00     0.273 A 
HETATM    4  O   UNL     1      40.481  -9.999  13.480  1.00  0.00    -0.266 OA
HETATM    5  N   UNL     1      42.286 -10.373  12.203  1.00  0.00    -0.321 N 
HETATM    6  C   UNL     1      43.207  -9.995  11.231  1.00  0.00     0.046 A 
HETATM    7  C   UNL     1      43.134  -8.714  10.673  1.00  0.00     0.006 A 
HETATM    8  C   UNL     1      44.182 -10.912  10.831  1.00  0.00     0.032 A 
HETATM    9  C   UNL     1      45.107 -10.553   9.852  1.00  0.00     0.026 A 
HETATM   10  C   UNL     1      45.049  -9.282   9.286  1.00  0.00     0.035 A 
HETATM   11 CL   UNL     1      46.188  -8.839   8.075  1.00  0.00    -0.084 Cl
HETATM   12  C   UNL     1      44.076  -8.366   9.692  1.00  0.00     0.038 A 
HETATM   13  H   UNL     1      42.309 -11.300  12.603  1.00  0.00     0.169 HD
ENDROOT
BRANCH   2  14
HETATM   14  N   UNL     1      40.168  -7.314  12.602  1.00  0.00    -0.375 N 
HETATM   15  C   UNL     1      40.158  -7.057  14.063  1.00  0.00     0.137 C 
HETATM   16  C   UNL     1      39.190  -5.935  14.448  1.00  0.00     0.096 C 
HETATM   17  C   UNL     1      37.801  -6.128  13.832  1.00  0.00     0.017 C 
HETATM   18  C   UNL     1      37.914  -6.360  12.330  1.00  0.00     0.021 C 
HETATM   19  C   UNL     1      38.823  -7.549  12.041  1.00  0.00     0.123 C 
BRANCH  16  20
HETATM   20  C   UNL     1      39.106  -5.804  15.969  1.00  0.00     0.229 C 
HETATM   21  N   UNL     1      39.945  -6.666  16.654  1.00  0.00    -0.311 N 
HETATM   22  H   UNL     1      40.546  -7.277  16.122  1.00  0.00     0.170 HD
HETATM   23  O   UNL     1      38.339  -4.982  16.463  1.00  0.00    -0.273 OA
BRANCH  21  24
HETATM   24  C   UNL     1      40.085  -6.750  18.046  1.00  0.00     0.129 A 
HETATM   25  N   UNL     1      40.583  -5.726  18.759  1.00  0.00    -0.243 NA
HETATM   26  C   UNL     1      40.687  -5.875  20.096  1.00  0.00     0.119 A 
HETATM   27  C   UNL     1      40.315  -7.021  20.775  1.00  0.00     0.019 A 
HETATM   28  C   UNL     1      39.803  -8.076  20.033  1.00  0.00     0.005 A 
HETATM   29  C   UNL     1      39.681  -7.938  18.651  1.00  0.00     0.050 A 
ENDBRANCH  21  24
ENDBRANCH  16  20
ENDBRANCH   2  14
BRANCH   1  30
HETATM   30  C   UNL     1      41.938  -6.398  10.569  1.00  0.00    -0.023 A 
HETATM   31  C   UNL     1      41.196  -6.180   9.401  1.00  0.00     0.012 A 
HETATM   32  C   UNL     1      41.029  -4.885   8.908  1.00  0.00     0.001 A 
HETATM   33  C   UNL     1      41.601  -3.802   9.575  1.00  0.00     0.000 A 
HETATM   34  C   UNL     1      42.346  -4.012  10.735  1.00  0.00     0.001 A 
HETATM   35  C   UNL     1      42.514  -5.305  11.232  1.00  0.00     0.012 A 
ENDBRANCH   1  30
TORSDOF 4
ENDMDL
MODEL 7
REMARK VINA RESULT:      -8.5      3.189      5.174
REMARK  4 active torsions:
REMARK  status: ('A' for Active; 'I' for Inactive)
REMARK    1  A    between atoms: C_4  and  C_5 
REMARK    2  A    between atoms: C_6  and  N_7 
REMARK    3  A    between atoms: C_9  and  C_10 
REMARK       I    between atoms: C_10  and  N_11 
REMARK    4  A    between atoms: N_11  and  C_12 
ROOT
HETATM    1  C   UNL     1      41.785 -12.696   4.474  1.00  0.00     0.019 A 
HETATM    2  C   UNL     1      40.801 -11.760   4.518  1.00  0.00     0.111 A 
HETATM    3  C   UNL     1      39.481 -12.037   3.799  1.00  0.00     0.273 A 
HETATM    4  O   UNL     1      38.574 -11.207   3.737  1.00  0.00    -0.266 OA
HETATM    5  N   UNL     1      39.325 -13.249   3.194  1.00  0.00    -0.321 N 
HETATM    6  C   UNL     1      40.312 -14.228   3.158  1.00  0.00     0.046 A 
HETATM    7  C   UNL     1      41.545 -13.989   3.775  1.00  0.00     0.006 A 
HETATM    8  C   UNL     1      40.048 -15.430   2.495  1.00  0.00     0.032 A 
HETATM    9  C   UNL     1      41.029 -16.418   2.441  1.00  0.00     0.026 A 
HETATM   10  C   UNL     1      42.261 -16.197   3.051  1.00  0.00     0.035 A 
HETATM   11 CL   UNL     1      43.474 -17.416   2.982  1.00  0.00    -0.084 Cl
HETATM   12  C   UNL     1      42.521 -14.996   3.716  1.00  0.00     0.038 A 
HETATM   13  H   UNL     1      38.437 -13.394   2.737  1.00  0.00     0.169 HD
ENDROOT
BRANCH   2  14
HETATM   14  N   UNL     1      40.930 -10.499   5.161  1.00  0.00    -0.375 N 
HETATM   15  C   UNL     1      40.528 -10.421   6.586  1.00  0.00     0.137 C 
HETATM   16  C   UNL     1      40.976  -9.113   7.245  1.00  0.00     0.096 C 
HETATM   17  C   UNL     1      40.596  -7.884   6.414  1.00  0.00     0.017 C 
HETATM   18  C   UNL     1      41.072  -8.047   4.976  1.00  0.00     0.021 C 
HETATM   19  C   UNL     1      40.507  -9.327   4.369  1.00  0.00     0.123 C 
BRANCH  16  20
HETATM   20  C   UNL     1      40.416  -9.015   8.665  1.00  0.00     0.229 C 
HETATM   21  N   UNL     1      41.262  -9.517   9.638  1.00  0.00    -0.311 N 
HETATM   22  H   UNL     1      42.161  -9.876   9.356  1.00  0.00     0.170 HD
HETATM   23  O   UNL     1      39.307  -8.518   8.843  1.00  0.00    -0.273 OA
BRANCH  21  24
HETATM   24  C   UNL     1      41.013  -9.539  11.018  1.00  0.00     0.129 A 
HETATM   25  N   UNL     1      39.921 -10.139  11.518  1.00  0.00    -0.243 NA
HETATM   26  C   UNL     1      39.745 -10.124  12.856  1.00  0.00     0.119 A 
HETATM   27  C   UNL     1      40.622  -9.522  13.741  1.00  0.00     0.019 A 
HETATM   28  C   UNL     1      41.747  -8.901  13.218  1.00  0.00     0.005 A 
HETATM   29  C   UNL     1      41.949  -8.914  11.839  1.00  0.00     0.050 A 
ENDBRANCH  21  24
ENDBRANCH  16  20
ENDBRANCH   2  14
BRANCH   1  30
HETATM   30  C   UNL     1      43.075 -12.372   5.136  1.00  0.00    -0.023 A 
HETATM   31  C   UNL     1      44.075 -11.675   4.446  1.00  0.00     0.012 A 
HETATM   32  C   UNL     1      45.264 -11.334   5.091  1.00  0.00     0.001 A 
HETATM   33  C   UNL     1      45.463 -11.687   6.426  1.00  0.00     0.000 A 
HETATM   34  C   UNL     1      44.474 -12.386   7.118  1.00  0.00     0.001 A 
HETATM   35  C   UNL     1      43.283 -12.727   6.476  1.00  0.00     0.012 A 
ENDBRANCH   1  30
TORSDOF 4
ENDMDL
MODEL 8
REMARK VINA RESULT:      -8.4      3.113      5.533
REMARK  4 active torsions:
REMARK  status: ('A' for Active; 'I' for Inactive)
REMARK    1  A    between atoms: C_4  and  C_5 
REMARK    2  A    between atoms: C_6  and  N_7 
REMARK    3  A    between atoms: C_9  and  C_10 
REMARK       I    between atoms: C_10  and  N_11 
REMARK    4  A    between atoms: N_11  and  C_12 
ROOT
HETATM    1  C   UNL     1      40.969 -13.168   1.602  1.00  0.00     0.019 A 
HETATM    2  C   UNL     1      41.243 -12.006   2.252  1.00  0.00     0.111 A 
HETATM    3  C   UNL     1      40.761 -10.688   1.647  1.00  0.00     0.273 A 
HETATM    4  O   UNL     1      41.034  -9.594   2.143  1.00  0.00    -0.266 OA
HETATM    5  N   UNL     1      40.014 -10.742   0.508  1.00  0.00    -0.321 N 
HETATM    6  C   UNL     1      39.704 -11.924  -0.158  1.00  0.00     0.046 A 
HETATM    7  C   UNL     1      40.164 -13.144   0.350  1.00  0.00     0.006 A 
HETATM    8  C   UNL     1      38.943 -11.859  -1.329  1.00  0.00     0.032 A 
HETATM    9  C   UNL     1      38.632 -13.032  -2.014  1.00  0.00     0.026 A 
HETATM   10  C   UNL     1      39.080 -14.255  -1.522  1.00  0.00     0.035 A 
HETATM   11 CL   UNL     1      38.698 -15.703  -2.369  1.00  0.00    -0.084 Cl
HETATM   12  C   UNL     1      39.837 -14.316  -0.349  1.00  0.00     0.038 A 
HETATM   13  H   UNL     1      39.710  -9.850   0.147  1.00  0.00     0.169 HD
ENDROOT
BRANCH   2  14
HETATM   14  N   UNL     1      41.999 -11.925   3.452  1.00  0.00    -0.375 N 
HETATM   15  C   UNL     1      41.435 -11.107   4.553  1.00  0.00     0.137 C 
HETATM   16  C   UNL     1      42.176 -11.324   5.876  1.00  0.00     0.096 C 
HETATM   17  C   UNL     1      43.695 -11.205   5.717  1.00  0.00     0.017 C 
HETATM   18  C   UNL     1      44.181 -12.097   4.581  1.00  0.00     0.021 C 
HETATM   19  C   UNL     1      43.456 -11.754   3.285  1.00  0.00     0.123 C 
BRANCH  16  20
HETATM   20  C   UNL     1      41.655 -10.357   6.941  1.00  0.00     0.229 C 
HETATM   21  N   UNL     1      42.572 -10.071   7.936  1.00  0.00    -0.311 N 
HETATM   22  H   UNL     1      43.490 -10.485   7.878  1.00  0.00     0.170 HD
HETATM   23  O   UNL     1      40.513  -9.916   6.849  1.00  0.00    -0.273 OA
BRANCH  21  24
HETATM   24  C   UNL     1      42.370  -9.208   9.023  1.00  0.00     0.129 A 
HETATM   25  N   UNL     1      41.646  -9.588  10.088  1.00  0.00    -0.243 NA
HETATM   26  C   UNL     1      41.494  -8.707  11.099  1.00  0.00     0.119 A 
HETATM   27  C   UNL     1      42.037  -7.434  11.099  1.00  0.00     0.019 A 
HETATM   28  C   UNL     1      42.781  -7.046   9.995  1.00  0.00     0.005 A 
HETATM   29  C   UNL     1      42.955  -7.946   8.944  1.00  0.00     0.050 A 
ENDBRANCH  21  24
ENDBRANCH  16  20
ENDBRANCH   2  14
BRANCH   1  30
HETATM   30  C   UNL     1      41.501 -14.426   2.187  1.00  0.00    -0.023 A 
HETATM   31  C   UNL     1      40.779 -15.118   3.168  1.00  0.00     0.012 A 
HETATM   32  C   UNL     1      41.265 -16.323   3.677  1.00  0.00     0.001 A 
HETATM   33  C   UNL     1      42.472 -16.844   3.211  1.00  0.00     0.000 A 
HETATM   34  C   UNL     1      43.199 -16.158   2.238  1.00  0.00     0.001 A 
HETATM   35  C   UNL     1      42.715 -14.953   1.727  1.00  0.00     0.012 A 
ENDBRANCH   1  30
TORSDOF 4
ENDMDL
MODEL 9
REMARK VINA RESULT:      -8.3      4.898      8.904
REMARK  4 active torsions:
REMARK  status: ('A' for Active; 'I' for Inactive)
REMARK    1  A    between atoms: C_4  and  C_5 
REMARK    2  A    between atoms: C_6  and  N_7 
REMARK    3  A    between atoms: C_9  and  C_10 
REMARK       I    between atoms: C_10  and  N_11 
REMARK    4  A    between atoms: N_11  and  C_12 
ROOT
HETATM    1  C   UNL     1      38.664 -11.178   0.008  1.00  0.00     0.019 A 
HETATM    2  C   UNL     1      39.126 -11.198   1.286  1.00  0.00     0.111 A 
HETATM    3  C   UNL     1      38.281 -10.560   2.388  1.00  0.00     0.273 A 
HETATM    4  O   UNL     1      38.667 -10.478   3.554  1.00  0.00    -0.266 OA
HETATM    5  N   UNL     1      37.061 -10.055   2.048  1.00  0.00    -0.321 N 
HETATM    6  C   UNL     1      36.562 -10.047   0.749  1.00  0.00     0.046 A 
HETATM    7  C   UNL     1      37.329 -10.588  -0.288  1.00  0.00     0.006 A 
HETATM    8  C   UNL     1      35.304  -9.487   0.512  1.00  0.00     0.032 A 
HETATM    9  C   UNL     1      34.793  -9.462  -0.784  1.00  0.00     0.026 A 
HETATM   10  C   UNL     1      35.542  -9.998  -1.828  1.00  0.00     0.035 A 
HETATM   11 CL   UNL     1      34.913  -9.964  -3.429  1.00  0.00    -0.084 Cl
HETATM   12  C   UNL     1      36.798 -10.560  -1.587  1.00  0.00     0.038 A 
HETATM   13  H   UNL     1      36.533  -9.650   2.807  1.00  0.00     0.169 HD
ENDROOT
BRANCH   2  14
HETATM   14  N   UNL     1      40.382 -11.739   1.670  1.00  0.00    -0.375 N 
HETATM   15  C   UNL     1      40.417 -13.175   2.036  1.00  0.00     0.137 C 
HETATM   16  C   UNL     1      41.847 -13.711   2.148  1.00  0.00     0.096 C 
HETATM   17  C   UNL     1      42.736 -12.817   3.019  1.00  0.00     0.017 C 
HETATM   18  C   UNL     1      42.652 -11.369   2.552  1.00  0.00     0.021 C 
HETATM   19  C   UNL     1      41.205 -10.891   2.556  1.00  0.00     0.123 C 
BRANCH  16  20
HETATM   20  C   UNL     1      41.837 -15.150   2.665  1.00  0.00     0.229 C 
HETATM   21  N   UNL     1      43.081 -15.755   2.670  1.00  0.00    -0.311 N 
HETATM   22  H   UNL     1      43.879 -15.217   2.368  1.00  0.00     0.170 HD
HETATM   23  O   UNL     1      40.777 -15.653   3.028  1.00  0.00    -0.273 OA
BRANCH  21  24
HETATM   24  C   UNL     1      43.365 -17.056   3.107  1.00  0.00     0.129 A 
HETATM   25  N   UNL     1      43.805 -17.292   4.353  1.00  0.00    -0.243 NA
HETATM   26  C   UNL     1      44.056 -18.571   4.707  1.00  0.00     0.119 A 
HETATM   27  C   UNL     1      43.891 -19.651   3.858  1.00  0.00     0.019 A 
HETATM   28  C   UNL     1      43.439 -19.400   2.570  1.00  0.00     0.005 A 
HETATM   29  C   UNL     1      43.167 -18.087   2.190  1.00  0.00     0.050 A 
ENDBRANCH  21  24
ENDBRANCH  16  20
ENDBRANCH   2  14
BRANCH   1  30
HETATM   30  C   UNL     1      39.535 -11.755  -1.048  1.00  0.00    -0.023 A 
HETATM   31  C   UNL     1      40.551 -10.989  -1.633  1.00  0.00     0.012 A 
HETATM   32  C   UNL     1      41.394 -11.555  -2.590  1.00  0.00     0.001 A 
HETATM   33  C   UNL     1      41.228 -12.886  -2.970  1.00  0.00     0.000 A 
HETATM   34  C   UNL     1      40.216 -13.655  -2.396  1.00  0.00     0.001 A 
HETATM   35  C   UNL     1      39.372 -13.092  -1.437  1.00  0.00     0.012 A 
ENDBRANCH   1  30
TORSDOF 4
ENDMDL
MODEL 10
REMARK VINA RESULT:      -8.3      2.723      3.164
REMARK  4 active torsions:
REMARK  status: ('A' for Active; 'I' for Inactive)
REMARK    1  A    between atoms: C_4  and  C_5 
REMARK    2  A    between atoms: C_6  and  N_7 
REMARK    3  A    between atoms: C_9  and  C_10 
REMARK       I    between atoms: C_10  and  N_11 
REMARK    4  A    between atoms: N_11  and  C_12 
ROOT
HETATM    1  C   UNL     1      42.084 -15.830   3.803  1.00  0.00     0.019 A 
HETATM    2  C   UNL     1      41.907 -15.006   4.869  1.00  0.00     0.111 A 
HETATM    3  C   UNL     1      42.535 -15.384   6.210  1.00  0.00     0.273 A 
HETATM    4  O   UNL     1      42.358 -14.723   7.234  1.00  0.00    -0.266 OA
HETATM    5  N   UNL     1      43.306 -16.507   6.260  1.00  0.00    -0.321 N 
HETATM    6  C   UNL     1      43.517 -17.350   5.174  1.00  0.00     0.046 A 
HETATM    7  C   UNL     1      42.924 -17.051   3.943  1.00  0.00     0.006 A 
HETATM    8  C   UNL     1      44.315 -18.485   5.345  1.00  0.00     0.032 A 
HETATM    9  C   UNL     1      44.528 -19.346   4.271  1.00  0.00     0.026 A 
HETATM   10  C   UNL     1      43.946 -19.063   3.038  1.00  0.00     0.035 A 
HETATM   11 CL   UNL     1      44.207 -20.127   1.711  1.00  0.00    -0.084 Cl
HETATM   12  C   UNL     1      43.153 -17.925   2.869  1.00  0.00     0.038 A 
HETATM   13  H   UNL     1      43.708 -16.716   7.163  1.00  0.00     0.169 HD
ENDROOT
BRANCH   2  14
HETATM   14  N   UNL     1      41.128 -13.818   4.836  1.00  0.00    -0.375 N 
HETATM   15  C   UNL     1      41.860 -12.529   4.792  1.00  0.00     0.137 C 
HETATM   16  C   UNL     1      40.939 -11.349   4.470  1.00  0.00     0.096 C 
HETATM   17  C   UNL     1      39.686 -11.332   5.350  1.00  0.00     0.017 C 
HETATM   18  C   UNL     1      38.992 -12.688   5.312  1.00  0.00     0.021 C 
HETATM   19  C   UNL     1      39.955 -13.792   5.732  1.00  0.00     0.123 C 
BRANCH  16  20
HETATM   20  C   UNL     1      41.707 -10.030   4.577  1.00  0.00     0.229 C 
HETATM   21  N   UNL     1      40.896  -8.917   4.702  1.00  0.00    -0.311 N 
HETATM   22  H   UNL     1      39.897  -9.050   4.736  1.00  0.00     0.170 HD
HETATM   23  O   UNL     1      42.935 -10.043   4.551  1.00  0.00    -0.273 OA
BRANCH  21  24
HETATM   24  C   UNL     1      41.330  -7.590   4.835  1.00  0.00     0.129 A 
HETATM   25  N   UNL     1      41.599  -6.834   3.758  1.00  0.00    -0.243 NA
HETATM   26  C   UNL     1      42.010  -5.564   3.961  1.00  0.00     0.119 A 
HETATM   27  C   UNL     1      42.175  -4.999   5.212  1.00  0.00     0.019 A 
HETATM   28  C   UNL     1      41.898  -5.785   6.321  1.00  0.00     0.005 A 
HETATM   29  C   UNL     1      41.465  -7.097   6.132  1.00  0.00     0.050 A 
ENDBRANCH  21  24
ENDBRANCH  16  20
ENDBRANCH   2  14
BRANCH   1  30
HETATM   30  C   UNL     1      41.413 -15.462   2.530  1.00  0.00    -0.023 A 
HETATM   31  C   UNL     1      40.198 -16.057   2.166  1.00  0.00     0.012 A 
HETATM   32  C   UNL     1      39.552 -15.670   0.991  1.00  0.00     0.001 A 
HETATM   33  C   UNL     1      40.114 -14.691   0.172  1.00  0.00     0.000 A 
HETATM   34  C   UNL     1      41.326 -14.098   0.525  1.00  0.00     0.001 A 
HETATM   35  C   UNL     1      41.974 -14.481   1.700  1.00  0.00     0.012 A 
ENDBRANCH   1  30
TORSDOF 4
ENDMDL
