MODEL 1
REMARK VINA RESULT:      -8.3      0.000      0.000
REMARK  5 active torsions:
REMARK  status: ('A' for Active; 'I' for Inactive)
REMARK    1  A    between atoms: C_6  and  N_7 
REMARK       I    between atoms: N_7  and  C_8 
REMARK    2  A    between atoms: C_8  and  C_9 
REMARK    3  A    between atoms: C_9  and  C_10 
REMARK    4  A    between atoms: C_12  and  O_13 
REMARK    5  A    between atoms: C_19  and  C_20 
ROOT
HETATM    1  C   UNL     1      43.169 -20.030   1.852  1.00  0.00     0.073 C 
HETATM    2  C   UNL     1      43.579 -19.338   3.099  1.00  0.00     0.065 A 
HETATM    3  N   UNL     1      44.270 -20.000   4.035  1.00  0.00    -0.177 NA
HETATM    4  N   UNL     1      44.474 -19.084   4.996  1.00  0.00    -0.262 N 
HETATM    5  H   UNL     1      45.008 -19.334   5.824  1.00  0.00     0.191 HD
HETATM    6  C   UNL     1      43.902 -17.865   4.732  1.00  0.00     0.137 A 
HETATM    7  C   UNL     1      43.338 -17.986   3.477  1.00  0.00     0.046 A 
ENDROOT
BRANCH   6   8
HETATM    8  N   UNL     1      43.943 -16.790   5.602  1.00  0.00    -0.311 N 
HETATM    9  C   UNL     1      42.818 -16.348   6.281  1.00  0.00     0.227 C 
HETATM   10  O   UNL     1      41.713 -16.886   6.212  1.00  0.00    -0.273 OA
HETATM   11  H   UNL     1      44.841 -16.353   5.777  1.00  0.00     0.170 HD
BRANCH   9  12
HETATM   12  C   UNL     1      43.050 -15.078   7.075  1.00  0.00     0.141 C 
BRANCH  12  13
HETATM   13  C   UNL     1      43.321 -13.804   6.304  1.00  0.00    -0.047 A 
HETATM   14  C   UNL     1      44.290 -12.853   6.670  1.00  0.00     0.044 A 
HETATM   15  C   UNL     1      44.562 -11.752   5.851  1.00  0.00     0.068 A 
HETATM   16  C   UNL     1      43.840 -11.577   4.670  1.00  0.00     0.037 A 
HETATM   17  C   UNL     1      42.870 -12.502   4.294  1.00  0.00     0.003 A 
HETATM   18  C   UNL     1      42.620 -13.612   5.099  1.00  0.00     0.007 A 
BRANCH  15  19
HETATM   19  O   UNL     1      45.501 -10.787   6.093  1.00  0.00    -0.356 OA
HETATM   20  C   UNL     1      45.999 -10.690   7.421  1.00  0.00     0.210 C 
ENDBRANCH  15  19
ENDBRANCH  12  13
ENDBRANCH   9  12
ENDBRANCH   6   8
BRANCH   7  21
HETATM   21  C   UNL     1      42.725 -16.900   2.739  1.00  0.00    -0.020 A 
HETATM   22  C   UNL     1      43.539 -15.950   2.108  1.00  0.00     0.014 A 
HETATM   23  C   UNL     1      42.969 -14.879   1.417  1.00  0.00     0.020 A 
HETATM   24  C   UNL     1      41.583 -14.757   1.358  1.00  0.00     0.011 A 
HETATM   25 BR   UNL     1      40.810 -13.301   0.433  1.00  0.00    -0.051 Br
HETATM   26  C   UNL     1      40.762 -15.699   1.975  1.00  0.00     0.020 A 
HETATM   27  C   UNL     1      41.332 -16.774   2.663  1.00  0.00     0.014 A 
ENDBRANCH   7  21
TORSDOF 5
ENDMDL
MODEL 2
REMARK VINA RESULT:      -8.0      1.010      2.046
REMARK  5 active torsions:
REMARK  status: ('A' for Active; 'I' for Inactive)
REMARK    1  A    between atoms: C_6  and  N_7 
REMARK       I    between atoms: N_7  and  C_8 
REMARK    2  A    between atoms: C_8  and  C_9 
REMARK    3  A    between atoms: C_9  and  C_10 
REMARK    4  A    between atoms: C_12  and  O_13 
REMARK    5  A    between atoms: C_19  and  C_20 
ROOT
HETATM    1  C   UNL     1      43.064 -20.133   1.847  1.00  0.00     0.073 C 
HETATM    2  C   UNL     1      43.540 -19.420   3.058  1.00  0.00     0.065 A 
HETATM    3  N   UNL     1      44.256 -20.075   3.980  1.00  0.00    -0.177 NA
HETATM    4  N   UNL     1      44.520 -19.141   4.910  1.00  0.00    -0.262 N 
HETATM    5  H   UNL     1      45.083 -19.383   5.721  1.00  0.00     0.191 HD
HETATM    6  C   UNL     1      43.962 -17.916   4.640  1.00  0.00     0.137 A 
HETATM    7  C   UNL     1      43.342 -18.055   3.413  1.00  0.00     0.046 A 
ENDROOT
BRANCH   6   8
HETATM    8  N   UNL     1      44.061 -16.823   5.481  1.00  0.00    -0.311 N 
HETATM    9  C   UNL     1      42.969 -16.325   6.174  1.00  0.00     0.227 C 
HETATM   10  O   UNL     1      41.844 -16.824   6.144  1.00  0.00    -0.273 OA
HETATM   11  H   UNL     1      44.977 -16.413   5.623  1.00  0.00     0.170 HD
BRANCH   9  12
HETATM   12  C   UNL     1      43.264 -15.044   6.930  1.00  0.00     0.141 C 
BRANCH  12  13
HETATM   13  C   UNL     1      43.548 -13.797   6.120  1.00  0.00    -0.047 A 
HETATM   14  C   UNL     1      43.053 -13.571   4.824  1.00  0.00     0.044 A 
HETATM   15  C   UNL     1      43.265 -12.348   4.177  1.00  0.00     0.068 A 
HETATM   16  C   UNL     1      44.005 -11.352   4.813  1.00  0.00     0.037 A 
HETATM   17  C   UNL     1      44.512 -11.559   6.093  1.00  0.00     0.003 A 
HETATM   18  C   UNL     1      44.276 -12.768   6.745  1.00  0.00     0.007 A 
BRANCH  15  19
HETATM   19  O   UNL     1      42.805 -12.010   2.934  1.00  0.00    -0.356 OA
HETATM   20  C   UNL     1      41.794 -11.012   2.870  1.00  0.00     0.210 C 
ENDBRANCH  15  19
ENDBRANCH  12  13
ENDBRANCH   9  12
ENDBRANCH   6   8
BRANCH   7  21
HETATM   21  C   UNL     1      42.722 -16.974   2.675  1.00  0.00    -0.020 A 
HETATM   22  C   UNL     1      41.325 -16.869   2.650  1.00  0.00     0.014 A 
HETATM   23  C   UNL     1      40.706 -15.853   1.919  1.00  0.00     0.020 A 
HETATM   24  C   UNL     1      41.485 -14.941   1.212  1.00  0.00     0.011 A 
HETATM   25 BR   UNL     1      40.648 -13.572   0.212  1.00  0.00    -0.051 Br
HETATM   26  C   UNL     1      42.876 -15.030   1.234  1.00  0.00     0.020 A 
HETATM   27  C   UNL     1      43.496 -16.044   1.969  1.00  0.00     0.014 A 
ENDBRANCH   7  21
TORSDOF 5
ENDMDL
MODEL 3
REMARK VINA RESULT:      -7.3      3.397      6.418
REMARK  5 active torsions:
REMARK  status: ('A' for Active; 'I' for Inactive)
REMARK    1  A    between atoms: C_6  and  N_7 
REMARK       I    between atoms: N_7  and  C_8 
REMARK    2  A    between atoms: C_8  and  C_9 
REMARK    3  A    between atoms: C_9  and  C_10 
REMARK    4  A    between atoms: C_12  and  O_13 
REMARK    5  A    between atoms: C_19  and  C_20 
ROOT
HETATM    1  C   UNL     1      39.053 -10.856   2.509  1.00  0.00     0.073 C 
HETATM    2  C   UNL     1      39.759 -11.964   1.817  1.00  0.00     0.065 A 
HETATM    3  N   UNL     1      39.308 -12.410   0.638  1.00  0.00    -0.177 NA
HETATM    4  N   UNL     1      40.173 -13.384   0.308  1.00  0.00    -0.262 N 
HETATM    5  H   UNL     1      40.064 -13.876  -0.575  1.00  0.00     0.191 HD
HETATM    6  C   UNL     1      41.142 -13.610   1.253  1.00  0.00     0.137 A 
HETATM    7  C   UNL     1      40.921 -12.670   2.241  1.00  0.00     0.046 A 
ENDROOT
BRANCH   6   8
HETATM    8  N   UNL     1      42.107 -14.596   1.147  1.00  0.00    -0.311 N 
HETATM    9  C   UNL     1      41.890 -15.890   1.593  1.00  0.00     0.227 C 
HETATM   10  O   UNL     1      40.828 -16.288   2.072  1.00  0.00    -0.273 OA
HETATM   11  H   UNL     1      42.976 -14.363   0.681  1.00  0.00     0.170 HD
BRANCH   9  12
HETATM   12  C   UNL     1      43.118 -16.774   1.507  1.00  0.00     0.141 C 
BRANCH  12  13
HETATM   13  C   UNL     1      43.494 -17.580   2.732  1.00  0.00    -0.047 A 
HETATM   14  C   UNL     1      43.595 -17.043   4.028  1.00  0.00     0.044 A 
HETATM   15  C   UNL     1      43.839 -17.867   5.131  1.00  0.00     0.068 A 
HETATM   16  C   UNL     1      44.018 -19.237   4.940  1.00  0.00     0.037 A 
HETATM   17  C   UNL     1      43.931 -19.789   3.665  1.00  0.00     0.003 A 
HETATM   18  C   UNL     1      43.660 -18.968   2.572  1.00  0.00     0.007 A 
BRANCH  15  19
HETATM   19  O   UNL     1      43.927 -17.457   6.433  1.00  0.00    -0.356 OA
HETATM   20  C   UNL     1      44.570 -16.213   6.676  1.00  0.00     0.210 C 
ENDBRANCH  15  19
ENDBRANCH  12  13
ENDBRANCH   9  12
ENDBRANCH   6   8
BRANCH   7  21
HETATM   21  C   UNL     1      41.783 -12.457   3.386  1.00  0.00    -0.020 A 
HETATM   22  C   UNL     1      42.806 -11.503   3.312  1.00  0.00     0.014 A 
HETATM   23  C   UNL     1      43.666 -11.304   4.393  1.00  0.00     0.020 A 
HETATM   24  C   UNL     1      43.503 -12.061   5.550  1.00  0.00     0.011 A 
HETATM   25 BR   UNL     1      44.675 -11.802   7.011  1.00  0.00    -0.051 Br
HETATM   26  C   UNL     1      42.485 -13.009   5.640  1.00  0.00     0.020 A 
HETATM   27  C   UNL     1      41.621 -13.205   4.559  1.00  0.00     0.014 A 
ENDBRANCH   7  21
TORSDOF 5
ENDMDL
MODEL 4
REMARK VINA RESULT:      -7.2      3.762      5.291
REMARK  5 active torsions:
REMARK  status: ('A' for Active; 'I' for Inactive)
REMARK    1  A    between atoms: C_6  and  N_7 
REMARK       I    between atoms: N_7  and  C_8 
REMARK    2  A    between atoms: C_8  and  C_9 
REMARK    3  A    between atoms: C_9  and  C_10 
REMARK    4  A    between atoms: C_12  and  O_13 
REMARK    5  A    between atoms: C_19  and  C_20 
ROOT
HETATM    1  C   UNL     1      39.482 -14.562  -1.227  1.00  0.00     0.073 C 
HETATM    2  C   UNL     1      39.532 -13.460  -0.234  1.00  0.00     0.065 A 
HETATM    3  N   UNL     1      38.843 -12.333  -0.452  1.00  0.00    -0.177 NA
HETATM    4  N   UNL     1      39.105 -11.579   0.630  1.00  0.00    -0.262 N 
HETATM    5  H   UNL     1      38.673 -10.664   0.722  1.00  0.00     0.191 HD
HETATM    6  C   UNL     1      39.974 -12.164   1.517  1.00  0.00     0.137 A 
HETATM    7  C   UNL     1      40.245 -13.415   0.999  1.00  0.00     0.046 A 
ENDROOT
BRANCH   6   8
HETATM    8  N   UNL     1      40.422 -11.552   2.673  1.00  0.00    -0.311 N 
HETATM    9  C   UNL     1      41.635 -10.882   2.730  1.00  0.00     0.227 C 
HETATM   10  O   UNL     1      42.388 -10.733   1.768  1.00  0.00    -0.273 OA
HETATM   11  H   UNL     1      39.812 -11.557   3.483  1.00  0.00     0.170 HD
BRANCH   9  12
HETATM   12  C   UNL     1      41.997 -10.403   4.122  1.00  0.00     0.141 C 
BRANCH  12  13
HETATM   13  C   UNL     1      42.740 -11.362   5.027  1.00  0.00    -0.047 A 
HETATM   14  C   UNL     1      43.486 -10.966   6.151  1.00  0.00     0.044 A 
HETATM   15  C   UNL     1      44.056 -11.915   7.006  1.00  0.00     0.068 A 
HETATM   16  C   UNL     1      43.910 -13.273   6.723  1.00  0.00     0.037 A 
HETATM   17  C   UNL     1      43.182 -13.687   5.610  1.00  0.00     0.003 A 
HETATM   18  C   UNL     1      42.593 -12.739   4.775  1.00  0.00     0.007 A 
BRANCH  15  19
HETATM   19  O   UNL     1      44.773 -11.644   8.139  1.00  0.00    -0.356 OA
HETATM   20  C   UNL     1      45.763 -10.627   8.048  1.00  0.00     0.210 C 
ENDBRANCH  15  19
ENDBRANCH  12  13
ENDBRANCH   9  12
ENDBRANCH   6   8
BRANCH   7  21
HETATM   21  C   UNL     1      41.026 -14.435   1.668  1.00  0.00    -0.020 A 
HETATM   22  C   UNL     1      42.412 -14.488   1.463  1.00  0.00     0.014 A 
HETATM   23  C   UNL     1      43.178 -15.482   2.074  1.00  0.00     0.020 A 
HETATM   24  C   UNL     1      42.559 -16.424   2.892  1.00  0.00     0.011 A 
HETATM   25 BR   UNL     1      43.595 -17.778   3.711  1.00  0.00    -0.051 Br
HETATM   26  C   UNL     1      41.183 -16.379   3.110  1.00  0.00     0.020 A 
HETATM   27  C   UNL     1      40.416 -15.381   2.501  1.00  0.00     0.014 A 
ENDBRANCH   7  21
TORSDOF 5
ENDMDL
MODEL 5
REMARK VINA RESULT:      -7.2      3.318      5.243
REMARK  5 active torsions:
REMARK  status: ('A' for Active; 'I' for Inactive)
REMARK    1  A    between atoms: C_6  and  N_7 
REMARK       I    between atoms: N_7  and  C_8 
REMARK    2  A    between atoms: C_8  and  C_9 
REMARK    3  A    between atoms: C_9  and  C_10 
REMARK    4  A    between atoms: C_12  and  O_13 
REMARK    5  A    between atoms: C_19  and  C_20 
ROOT
HETATM    1  C   UNL     1      39.917 -14.899   2.290  1.00  0.00     0.073 C 
HETATM    2  C   UNL     1      40.687 -14.036   3.222  1.00  0.00     0.065 A 
HETATM    3  N   UNL     1      40.364 -12.744   3.355  1.00  0.00    -0.177 NA
HETATM    4  N   UNL     1      41.240 -12.284   4.264  1.00  0.00    -0.262 N 
HETATM    5  H   UNL     1      41.191 -11.314   4.565  1.00  0.00     0.191 HD
HETATM    6  C   UNL     1      42.145 -13.224   4.690  1.00  0.00     0.137 A 
HETATM    7  C   UNL     1      41.787 -14.396   4.052  1.00  0.00     0.046 A 
ENDROOT
BRANCH   6   8
HETATM    8  N   UNL     1      43.167 -12.961   5.584  1.00  0.00    -0.311 N 
HETATM    9  C   UNL     1      44.046 -11.904   5.408  1.00  0.00     0.227 C 
HETATM   10  O   UNL     1      43.975 -11.091   4.487  1.00  0.00    -0.273 OA
HETATM   11  H   UNL     1      43.232 -13.537   6.415  1.00  0.00     0.170 HD
BRANCH   9  12
HETATM   12  C   UNL     1      45.170 -11.875   6.425  1.00  0.00     0.141 C 
BRANCH  12  13
HETATM   13  C   UNL     1      45.037 -10.926   7.596  1.00  0.00    -0.047 A 
HETATM   14  C   UNL     1      43.960 -10.937   8.500  1.00  0.00     0.044 A 
HETATM   15  C   UNL     1      43.956 -10.103   9.623  1.00  0.00     0.068 A 
HETATM   16  C   UNL     1      45.018  -9.224   9.833  1.00  0.00     0.037 A 
HETATM   17  C   UNL     1      46.090  -9.191   8.945  1.00  0.00     0.003 A 
HETATM   18  C   UNL     1      46.104 -10.042   7.842  1.00  0.00     0.007 A 
BRANCH  15  19
HETATM   19  O   UNL     1      42.979 -10.054  10.581  1.00  0.00    -0.356 OA
HETATM   20  C   UNL     1      41.761  -9.412  10.226  1.00  0.00     0.210 C 
ENDBRANCH  15  19
ENDBRANCH  12  13
ENDBRANCH   9  12
ENDBRANCH   6   8
BRANCH   7  21
HETATM   21  C   UNL     1      42.395 -15.688   4.296  1.00  0.00    -0.020 A 
HETATM   22  C   UNL     1      43.078 -16.336   3.258  1.00  0.00     0.014 A 
HETATM   23  C   UNL     1      43.645 -17.595   3.464  1.00  0.00     0.020 A 
HETATM   24  C   UNL     1      43.528 -18.208   4.709  1.00  0.00     0.011 A 
HETATM   25 BR   UNL     1      44.285 -19.918   4.985  1.00  0.00    -0.051 Br
HETATM   26  C   UNL     1      42.858 -17.571   5.752  1.00  0.00     0.020 A 
HETATM   27  C   UNL     1      42.295 -16.308   5.548  1.00  0.00     0.014 A 
ENDBRANCH   7  21
TORSDOF 5
ENDMDL
MODEL 6
REMARK VINA RESULT:      -7.2      3.676      6.862
REMARK  5 active torsions:
REMARK  status: ('A' for Active; 'I' for Inactive)
REMARK    1  A    between atoms: C_6  and  N_7 
REMARK       I    between atoms: N_7  and  C_8 
REMARK    2  A    between atoms: C_8  and  C_9 
REMARK    3  A    between atoms: C_9  and  C_10 
REMARK    4  A    between atoms: C_12  and  O_13 
REMARK    5  A    between atoms: C_19  and  C_20 
ROOT
HETATM    1  C   UNL     1      39.283 -10.185   2.100  1.00  0.00     0.073 C 
HETATM    2  C   UNL     1      39.966 -11.345   1.473  1.00  0.00     0.065 A 
HETATM    3  N   UNL     1      39.649 -11.711   0.225  1.00  0.00    -0.177 NA
HETATM    4  N   UNL     1      40.449 -12.764  -0.016  1.00  0.00    -0.262 N 
HETATM    5  H   UNL     1      40.420 -13.220  -0.924  1.00  0.00     0.191 HD
HETATM    6  C   UNL     1      41.240 -13.116   1.048  1.00  0.00     0.137 A 
HETATM    7  C   UNL     1      40.974 -12.182   2.031  1.00  0.00     0.046 A 
ENDROOT
BRANCH   6   8
HETATM    8  N   UNL     1      42.103 -14.197   1.042  1.00  0.00    -0.311 N 
HETATM    9  C   UNL     1      41.680 -15.480   1.352  1.00  0.00     0.227 C 
HETATM   10  O   UNL     1      40.515 -15.780   1.611  1.00  0.00    -0.273 OA
HETATM   11  H   UNL     1      43.061 -14.039   0.752  1.00  0.00     0.170 HD
BRANCH   9  12
HETATM   12  C   UNL     1      42.808 -16.490   1.419  1.00  0.00     0.141 C 
BRANCH  12  13
HETATM   13  C   UNL     1      43.206 -17.013   2.783  1.00  0.00    -0.047 A 
HETATM   14  C   UNL     1      43.553 -18.351   3.042  1.00  0.00     0.044 A 
HETATM   15  C   UNL     1      44.016 -18.742   4.303  1.00  0.00     0.068 A 
HETATM   16  C   UNL     1      44.104 -17.799   5.327  1.00  0.00     0.037 A 
HETATM   17  C   UNL     1      43.756 -16.471   5.095  1.00  0.00     0.003 A 
HETATM   18  C   UNL     1      43.321 -16.080   3.829  1.00  0.00     0.007 A 
BRANCH  15  19
HETATM   19  O   UNL     1      44.409 -20.004   4.656  1.00  0.00    -0.356 OA
HETATM   20  C   UNL     1      43.956 -21.074   3.835  1.00  0.00     0.210 C 
ENDBRANCH  15  19
ENDBRANCH  12  13
ENDBRANCH   9  12
ENDBRANCH   6   8
BRANCH   7  21
HETATM   21  C   UNL     1      41.675 -12.091   3.295  1.00  0.00    -0.020 A 
HETATM   22  C   UNL     1      42.774 -11.230   3.414  1.00  0.00     0.014 A 
HETATM   23  C   UNL     1      43.482 -11.150   4.615  1.00  0.00     0.020 A 
HETATM   24  C   UNL     1      43.092 -11.934   5.698  1.00  0.00     0.011 A 
HETATM   25 BR   UNL     1      44.057 -11.836   7.320  1.00  0.00    -0.051 Br
HETATM   26  C   UNL     1      41.996 -12.790   5.595  1.00  0.00     0.020 A 
HETATM   27  C   UNL     1      41.284 -12.866   4.394  1.00  0.00     0.014 A 
ENDBRANCH   7  21
TORSDOF 5
ENDMDL
MODEL 7
REMARK VINA RESULT:      -7.0      2.978      6.324
REMARK  5 active torsions:
REMARK  status: ('A' for Active; 'I' for Inactive)
REMARK    1  A    between atoms: C_6  and  N_7 
REMARK       I    between atoms: N_7  and  C_8 
REMARK    2  A    between atoms: C_8  and  C_9 
REMARK    3  A    between atoms: C_9  and  C_10 
REMARK    4  A    between atoms: C_12  and  O_13 
REMARK    5  A    between atoms: C_19  and  C_20 
ROOT
HETATM    1  C   UNL     1      40.312  -8.976   4.469  1.00  0.00     0.073 C 
HETATM    2  C   UNL     1      40.828 -10.081   5.316  1.00  0.00     0.065 A 
HETATM    3  N   UNL     1      41.113  -9.858   6.605  1.00  0.00    -0.177 NA
HETATM    4  N   UNL     1      41.535 -11.052   7.054  1.00  0.00    -0.262 N 
HETATM    5  H   UNL     1      41.795 -11.159   8.031  1.00  0.00     0.191 HD
HETATM    6  C   UNL     1      41.573 -12.027   6.090  1.00  0.00     0.137 A 
HETATM    7  C   UNL     1      41.081 -11.433   4.944  1.00  0.00     0.046 A 
ENDROOT
BRANCH   6   8
HETATM    8  N   UNL     1      42.021 -13.316   6.315  1.00  0.00    -0.311 N 
HETATM    9  C   UNL     1      43.370 -13.622   6.411  1.00  0.00     0.227 C 
HETATM   10  O   UNL     1      44.274 -12.788   6.354  1.00  0.00    -0.273 OA
HETATM   11  H   UNL     1      41.329 -14.042   6.461  1.00  0.00     0.170 HD
BRANCH   9  12
HETATM   12  C   UNL     1      43.648 -15.107   6.523  1.00  0.00     0.141 C 
BRANCH  12  13
HETATM   13  C   UNL     1      43.581 -15.935   5.257  1.00  0.00    -0.047 A 
HETATM   14  C   UNL     1      43.931 -17.294   5.185  1.00  0.00     0.044 A 
HETATM   15  C   UNL     1      43.740 -18.025   4.008  1.00  0.00     0.068 A 
HETATM   16  C   UNL     1      43.226 -17.387   2.878  1.00  0.00     0.037 A 
HETATM   17  C   UNL     1      42.882 -16.039   2.924  1.00  0.00     0.003 A 
HETATM   18  C   UNL     1      43.048 -15.322   4.108  1.00  0.00     0.007 A 
BRANCH  15  19
HETATM   19  O   UNL     1      44.015 -19.354   3.836  1.00  0.00    -0.356 OA
HETATM   20  C   UNL     1      43.717 -19.915   2.564  1.00  0.00     0.210 C 
ENDBRANCH  15  19
ENDBRANCH  12  13
ENDBRANCH   9  12
ENDBRANCH   6   8
BRANCH   7  21
HETATM   21  C   UNL     1      40.826 -12.127   3.698  1.00  0.00    -0.020 A 
HETATM   22  C   UNL     1      39.657 -12.886   3.558  1.00  0.00     0.014 A 
HETATM   23  C   UNL     1      39.408 -13.587   2.376  1.00  0.00     0.020 A 
HETATM   24  C   UNL     1      40.329 -13.529   1.334  1.00  0.00     0.011 A 
HETATM   25 BR   UNL     1      39.999 -14.487  -0.262  1.00  0.00    -0.051 Br
HETATM   26  C   UNL     1      41.493 -12.772   1.457  1.00  0.00     0.020 A 
HETATM   27  C   UNL     1      41.740 -12.066   2.639  1.00  0.00     0.014 A 
ENDBRANCH   7  21
TORSDOF 5
ENDMDL
MODEL 8
REMARK VINA RESULT:      -6.9      3.304      6.419
REMARK  5 active torsions:
REMARK  status: ('A' for Active; 'I' for Inactive)
REMARK    1  A    between atoms: C_6  and  N_7 
REMARK       I    between atoms: N_7  and  C_8 
REMARK    2  A    between atoms: C_8  and  C_9 
REMARK    3  A    between atoms: C_9  and  C_10 
REMARK    4  A    between atoms: C_12  and  O_13 
REMARK    5  A    between atoms: C_19  and  C_20 
ROOT
HETATM    1  C   UNL     1      39.248 -11.600   5.733  1.00  0.00     0.073 C 
HETATM    2  C   UNL     1      40.126 -12.767   5.461  1.00  0.00     0.065 A 
HETATM    3  N   UNL     1      40.248 -13.738   6.374  1.00  0.00    -0.177 NA
HETATM    4  N   UNL     1      41.091 -14.615   5.802  1.00  0.00    -0.262 N 
HETATM    5  H   UNL     1      41.333 -15.472   6.291  1.00  0.00     0.191 HD
HETATM    6  C   UNL     1      41.549 -14.222   4.569  1.00  0.00     0.137 A 
HETATM    7  C   UNL     1      40.907 -13.030   4.299  1.00  0.00     0.046 A 
ENDROOT
BRANCH   6   8
HETATM    8  N   UNL     1      42.462 -14.944   3.821  1.00  0.00    -0.311 N 
HETATM    9  C   UNL     1      42.093 -16.057   3.082  1.00  0.00     0.227 C 
HETATM   10  O   UNL     1      40.938 -16.472   2.986  1.00  0.00    -0.273 OA
HETATM   11  H   UNL     1      43.417 -14.607   3.781  1.00  0.00     0.170 HD
BRANCH   9  12
HETATM   12  C   UNL     1      43.265 -16.778   2.447  1.00  0.00     0.141 C 
BRANCH  12  13
HETATM   13  C   UNL     1      43.544 -18.198   2.894  1.00  0.00    -0.047 A 
HETATM   14  C   UNL     1      43.806 -18.567   4.225  1.00  0.00     0.044 A 
HETATM   15  C   UNL     1      43.947 -19.912   4.583  1.00  0.00     0.068 A 
HETATM   16  C   UNL     1      43.861 -20.899   3.600  1.00  0.00     0.037 A 
HETATM   17  C   UNL     1      43.612 -20.554   2.275  1.00  0.00     0.003 A 
HETATM   18  C   UNL     1      43.444 -19.215   1.927  1.00  0.00     0.007 A 
BRANCH  15  19
HETATM   19  O   UNL     1      44.171 -20.385   5.847  1.00  0.00    -0.356 OA
HETATM   20  C   UNL     1      43.386 -19.827   6.893  1.00  0.00     0.210 C 
ENDBRANCH  15  19
ENDBRANCH  12  13
ENDBRANCH   9  12
ENDBRANCH   6   8
BRANCH   7  21
HETATM   21  C   UNL     1      40.996 -12.309   3.046  1.00  0.00    -0.020 A 
HETATM   22  C   UNL     1      40.358 -12.821   1.908  1.00  0.00     0.014 A 
HETATM   23  C   UNL     1      40.458 -12.158   0.684  1.00  0.00     0.020 A 
HETATM   24  C   UNL     1      41.197 -10.981   0.596  1.00  0.00     0.011 A 
HETATM   25 BR   UNL     1      41.343 -10.089  -1.064  1.00  0.00    -0.051 Br
HETATM   26  C   UNL     1      41.831 -10.457   1.721  1.00  0.00     0.020 A 
HETATM   27  C   UNL     1      41.728 -11.118   2.948  1.00  0.00     0.014 A 
ENDBRANCH   7  21
TORSDOF 5
ENDMDL
MODEL 9
REMARK VINA RESULT:      -6.8      3.604      6.246
REMARK  5 active torsions:
REMARK  status: ('A' for Active; 'I' for Inactive)
REMARK    1  A    between atoms: C_6  and  N_7 
REMARK       I    between atoms: N_7  and  C_8 
REMARK    2  A    between atoms: C_8  and  C_9 
REMARK    3  A    between atoms: C_9  and  C_10 
REMARK    4  A    between atoms: C_12  and  O_13 
REMARK    5  A    between atoms: C_19  and  C_20 
ROOT
HETATM    1  C   UNL     1      40.542 -10.104   1.093  1.00  0.00     0.073 C 
HETATM    2  C   UNL     1      41.373 -11.269   1.489  1.00  0.00     0.065 A 
HETATM    3  N   UNL     1      42.171 -11.187   2.561  1.00  0.00    -0.177 NA
HETATM    4  N   UNL     1      42.751 -12.397   2.626  1.00  0.00    -0.262 N 
HETATM    5  H   UNL     1      43.397 -12.606   3.383  1.00  0.00     0.191 HD
HETATM    6  C   UNL     1      42.386 -13.243   1.609  1.00  0.00     0.137 A 
HETATM    7  C   UNL     1      41.455 -12.546   0.865  1.00  0.00     0.046 A 
ENDROOT
BRANCH   6   8
HETATM    8  N   UNL     1      42.895 -14.520   1.449  1.00  0.00    -0.311 N 
HETATM    9  C   UNL     1      42.339 -15.620   2.082  1.00  0.00     0.227 C 
HETATM   10  O   UNL     1      41.336 -15.575   2.793  1.00  0.00    -0.273 OA
HETATM   11  H   UNL     1      43.669 -14.646   0.806  1.00  0.00     0.170 HD
BRANCH   9  12
HETATM   12  C   UNL     1      43.129 -16.898   1.881  1.00  0.00     0.141 C 
BRANCH  12  13
HETATM   13  C   UNL     1      43.498 -17.700   3.111  1.00  0.00    -0.047 A 
HETATM   14  C   UNL     1      43.570 -17.163   4.408  1.00  0.00     0.044 A 
HETATM   15  C   UNL     1      43.810 -17.985   5.514  1.00  0.00     0.068 A 
HETATM   16  C   UNL     1      44.015 -19.352   5.324  1.00  0.00     0.037 A 
HETATM   17  C   UNL     1      43.958 -19.903   4.047  1.00  0.00     0.003 A 
HETATM   18  C   UNL     1      43.691 -19.084   2.950  1.00  0.00     0.007 A 
BRANCH  15  19
HETATM   19  O   UNL     1      43.869 -17.577   6.818  1.00  0.00    -0.356 OA
HETATM   20  C   UNL     1      42.956 -16.562   7.218  1.00  0.00     0.210 C 
ENDBRANCH  15  19
ENDBRANCH  12  13
ENDBRANCH   9  12
ENDBRANCH   6   8
BRANCH   7  21
HETATM   21  C   UNL     1      40.705 -13.098  -0.245  1.00  0.00    -0.020 A 
HETATM   22  C   UNL     1      40.733 -12.449  -1.487  1.00  0.00     0.014 A 
HETATM   23  C   UNL     1      39.993 -12.947  -2.561  1.00  0.00     0.020 A 
HETATM   24  C   UNL     1      39.223 -14.095  -2.393  1.00  0.00     0.011 A 
HETATM   25 BR   UNL     1      38.210 -14.764  -3.843  1.00  0.00    -0.051 Br
HETATM   26  C   UNL     1      39.190 -14.754  -1.165  1.00  0.00     0.020 A 
HETATM   27  C   UNL     1      39.935 -14.258  -0.091  1.00  0.00     0.014 A 
ENDBRANCH   7  21
TORSDOF 5
ENDMDL
MODEL 10
REMARK VINA RESULT:      -6.7      4.649      7.356
REMARK  5 active torsions:
REMARK  status: ('A' for Active; 'I' for Inactive)
REMARK    1  A    between atoms: C_6  and  N_7 
REMARK       I    between atoms: N_7  and  C_8 
REMARK    2  A    between atoms: C_8  and  C_9 
REMARK    3  A    between atoms: C_9  and  C_10 
REMARK    4  A    between atoms: C_12  and  O_13 
REMARK    5  A    between atoms: C_19  and  C_20 
ROOT
HETATM    1  C   UNL     1      40.134 -10.351  -2.551  1.00  0.00     0.073 C 
HETATM    2  C   UNL     1      40.183 -11.741  -2.034  1.00  0.00     0.065 A 
HETATM    3  N   UNL     1      40.572 -12.740  -2.836  1.00  0.00    -0.177 NA
HETATM    4  N   UNL     1      40.507 -13.829  -2.053  1.00  0.00    -0.262 N 
HETATM    5  H   UNL     1      40.781 -14.734  -2.426  1.00  0.00     0.191 HD
HETATM    6  C   UNL     1      40.050 -13.575  -0.784  1.00  0.00     0.137 A 
HETATM    7  C   UNL     1      39.862 -12.208  -0.726  1.00  0.00     0.046 A 
ENDROOT
BRANCH   6   8
HETATM    8  N   UNL     1      39.856 -14.552   0.176  1.00  0.00    -0.311 N 
HETATM    9  C   UNL     1      40.830 -14.873   1.108  1.00  0.00     0.227 C 
HETATM   10  O   UNL     1      41.917 -14.300   1.198  1.00  0.00    -0.273 OA
HETATM   11  H   UNL     1      38.951 -15.005   0.218  1.00  0.00     0.170 HD
BRANCH   9  12
HETATM   12  C   UNL     1      40.469 -16.060   1.978  1.00  0.00     0.141 C 
BRANCH  12  13
HETATM   13  C   UNL     1      41.573 -16.700   2.793  1.00  0.00    -0.047 A 
HETATM   14  C   UNL     1      42.385 -17.750   2.331  1.00  0.00     0.044 A 
HETATM   15  C   UNL     1      43.458 -18.219   3.096  1.00  0.00     0.068 A 
HETATM   16  C   UNL     1      43.706 -17.660   4.349  1.00  0.00     0.037 A 
HETATM   17  C   UNL     1      42.909 -16.625   4.830  1.00  0.00     0.003 A 
HETATM   18  C   UNL     1      41.857 -16.142   4.052  1.00  0.00     0.007 A 
BRANCH  15  19
HETATM   19  O   UNL     1      44.328 -19.211   2.733  1.00  0.00    -0.356 OA
HETATM   20  C   UNL     1      43.783 -20.322   2.032  1.00  0.00     0.210 C 
ENDBRANCH  15  19
ENDBRANCH  12  13
ENDBRANCH   9  12
ENDBRANCH   6   8
BRANCH   7  21
HETATM   21  C   UNL     1      39.498 -11.474   0.468  1.00  0.00    -0.020 A 
HETATM   22  C   UNL     1      40.501 -11.043   1.346  1.00  0.00     0.014 A 
HETATM   23  C   UNL     1      40.170 -10.361   2.518  1.00  0.00     0.020 A 
HETATM   24  C   UNL     1      38.832 -10.110   2.814  1.00  0.00     0.011 A 
HETATM   25 BR   UNL     1      38.381  -9.197   4.407  1.00  0.00    -0.051 Br
HETATM   26  C   UNL     1      37.824 -10.526   1.946  1.00  0.00     0.020 A 
HETATM   27  C   UNL     1      38.156 -11.205   0.770  1.00  0.00     0.014 A 
ENDBRANCH   7  21
TORSDOF 5
ENDMDL
