MODEL 1
REMARK VINA RESULT:      -9.0      0.000      0.000
REMARK  5 active torsions:
REMARK  status: ('A' for Active; 'I' for Inactive)
REMARK    1  A    between atoms: N_4  and  C_5 
REMARK    2  A    between atoms: C_14  and  C_15 
REMARK       I    between atoms: C_15  and  N_16 
REMARK    3  A    between atoms: N_16  and  N_17 
REMARK    4  A    between atoms: N_17  and  C_18 
REMARK    5  A    between atoms: N_19  and  C_20 
ROOT
HETATM    1  C   UNL     1      39.218 -12.298   3.234  1.00  0.00     0.277 C 
HETATM    2  N   UNL     1      38.674 -12.728   2.038  1.00  0.00    -0.263 N 
HETATM    3  O   UNL     1      38.777 -11.309   3.820  1.00  0.00    -0.265 OA
HETATM    4  H   UNL     1      39.059 -13.518   1.525  1.00  0.00     0.190 HD
ENDROOT
BRANCH   1   5
HETATM    5  C   UNL     1      40.331 -13.093   3.736  1.00  0.00     0.077 A 
HETATM    6  S   UNL     1      40.733 -14.641   3.030  1.00  0.00    -0.064 SA
HETATM    7  C   UNL     1      41.963 -14.858   4.131  1.00  0.00     0.113 A 
HETATM    8  N   UNL     1      42.918 -15.781   4.480  1.00  0.00    -0.226 N 
HETATM    9  C   UNL     1      42.081 -13.828   4.973  1.00  0.00     0.027 A 
HETATM   10  N   UNL     1      43.656 -15.292   5.548  1.00  0.00    -0.171 NA
HETATM   11  C   UNL     1      43.125 -14.089   5.840  1.00  0.00     0.064 A 
HETATM   12  C   UNL     1      43.668 -13.266   6.945  1.00  0.00     0.073 C 
HETATM   13  C   UNL     1      41.175 -12.785   4.805  1.00  0.00     0.041 A 
BRANCH   8  14
HETATM   14  C   UNL     1      43.210 -17.070   3.944  1.00  0.00     0.059 A 
HETATM   15  C   UNL     1      43.947 -17.979   4.723  1.00  0.00     0.031 A 
HETATM   16  C   UNL     1      44.242 -19.257   4.239  1.00  0.00     0.002 A 
HETATM   17  C   UNL     1      43.807 -19.641   2.974  1.00  0.00     0.000 A 
HETATM   18  C   UNL     1      43.082 -18.747   2.192  1.00  0.00     0.002 A 
HETATM   19  C   UNL     1      42.783 -17.467   2.671  1.00  0.00     0.031 A 
ENDBRANCH   8  14
ENDBRANCH   1   5
BRANCH   2  20
HETATM   20  N   UNL     1      37.598 -12.040   1.460  1.00  0.00    -0.273 N 
HETATM   21  H   UNL     1      36.773 -12.617   1.300  1.00  0.00     0.189 HD
BRANCH  20  22
HETATM   22  C   UNL     1      37.823 -10.959   0.652  1.00  0.00     0.191 C 
HETATM   23  N   UNL     1      38.342 -11.170  -0.588  1.00  0.00    -0.331 N 
HETATM   24  H   UNL     1      38.687 -10.315  -1.020  1.00  0.00     0.168 HD
HETATM   25  S   UNL     1      37.544  -9.367   1.113  1.00  0.00    -0.039 SA
BRANCH  23  26
HETATM   26  C   UNL     1      38.497 -12.325  -1.389  1.00  0.00     0.056 A 
HETATM   27  C   UNL     1      39.762 -12.948  -1.413  1.00  0.00     0.060 A 
HETATM   28 CL   UNL     1      41.081 -12.328  -0.476  1.00  0.00    -0.082 Cl
HETATM   29  C   UNL     1      39.990 -14.091  -2.183  1.00  0.00     0.026 A 
HETATM   30  C   UNL     1      38.960 -14.621  -2.956  1.00  0.00     0.002 A 
HETATM   31  C   UNL     1      37.716 -13.995  -2.971  1.00  0.00     0.002 A 
HETATM   32  C   UNL     1      37.487 -12.848  -2.201  1.00  0.00     0.031 A 
ENDBRANCH  23  26
ENDBRANCH  20  22
ENDBRANCH   2  20
TORSDOF 5
ENDMDL
MODEL 2
REMARK VINA RESULT:      -9.0      4.285      8.565
REMARK  5 active torsions:
REMARK  status: ('A' for Active; 'I' for Inactive)
REMARK    1  A    between atoms: N_4  and  C_5 
REMARK    2  A    between atoms: C_14  and  C_15 
REMARK       I    between atoms: C_15  and  N_16 
REMARK    3  A    between atoms: N_16  and  N_17 
REMARK    4  A    between atoms: N_17  and  C_18 
REMARK    5  A    between atoms: N_19  and  C_20 
ROOT
HETATM    1  C   UNL     1      42.333 -12.285   5.792  1.00  0.00     0.277 C 
HETATM    2  N   UNL     1      43.079 -12.547   6.926  1.00  0.00    -0.263 N 
HETATM    3  O   UNL     1      41.856 -11.169   5.582  1.00  0.00    -0.265 OA
HETATM    4  H   UNL     1      43.441 -13.476   7.130  1.00  0.00     0.190 HD
ENDROOT
BRANCH   1   5
HETATM    5  C   UNL     1      42.162 -13.411   4.883  1.00  0.00     0.077 A 
HETATM    6  S   UNL     1      42.912 -14.958   5.201  1.00  0.00    -0.064 SA
HETATM    7  C   UNL     1      42.304 -15.578   3.780  1.00  0.00     0.113 A 
HETATM    8  N   UNL     1      42.320 -16.735   3.040  1.00  0.00    -0.226 N 
HETATM    9  C   UNL     1      41.569 -14.688   3.109  1.00  0.00     0.027 A 
HETATM   10  N   UNL     1      41.554 -16.557   1.898  1.00  0.00    -0.171 NA
HETATM   11  C   UNL     1      41.102 -15.289   1.955  1.00  0.00     0.064 A 
HETATM   12  C   UNL     1      40.240 -14.741   0.884  1.00  0.00     0.073 C 
HETATM   13  C   UNL     1      41.450 -13.426   3.682  1.00  0.00     0.041 A 
BRANCH   8  14
HETATM   14  C   UNL     1      42.979 -17.980   3.268  1.00  0.00     0.059 A 
HETATM   15  C   UNL     1      42.929 -18.968   2.270  1.00  0.00     0.031 A 
HETATM   16  C   UNL     1      43.574 -20.195   2.448  1.00  0.00     0.002 A 
HETATM   17  C   UNL     1      44.272 -20.451   3.625  1.00  0.00     0.000 A 
HETATM   18  C   UNL     1      44.324 -19.482   4.623  1.00  0.00     0.002 A 
HETATM   19  C   UNL     1      43.681 -18.251   4.449  1.00  0.00     0.031 A 
ENDBRANCH   8  14
ENDBRANCH   1   5
BRANCH   2  20
HETATM   20  N   UNL     1      43.310 -11.538   7.872  1.00  0.00    -0.273 N 
HETATM   21  H   UNL     1      42.485 -10.985   8.100  1.00  0.00     0.189 HD
BRANCH  20  22
HETATM   22  C   UNL     1      44.548 -10.967   7.986  1.00  0.00     0.191 C 
HETATM   23  N   UNL     1      44.781 -10.120   9.025  1.00  0.00    -0.331 N 
HETATM   24  H   UNL     1      45.631  -9.573   8.902  1.00  0.00     0.168 HD
HETATM   25  S   UNL     1      45.797 -11.205   6.886  1.00  0.00    -0.039 SA
BRANCH  23  26
HETATM   26  C   UNL     1      44.089  -9.849  10.228  1.00  0.00     0.056 A 
HETATM   27  C   UNL     1      43.625  -8.536  10.442  1.00  0.00     0.060 A 
HETATM   28 CL   UNL     1      43.878  -7.295   9.260  1.00  0.00    -0.082 Cl
HETATM   29  C   UNL     1      42.935  -8.195  11.609  1.00  0.00     0.026 A 
HETATM   30  C   UNL     1      42.714  -9.159  12.588  1.00  0.00     0.002 A 
HETATM   31  C   UNL     1      43.199 -10.452  12.407  1.00  0.00     0.002 A 
HETATM   32  C   UNL     1      43.892 -10.794  11.239  1.00  0.00     0.031 A 
ENDBRANCH  23  26
ENDBRANCH  20  22
ENDBRANCH   2  20
TORSDOF 5
ENDMDL
MODEL 3
REMARK VINA RESULT:      -8.9      4.718      8.347
REMARK  5 active torsions:
REMARK  status: ('A' for Active; 'I' for Inactive)
REMARK    1  A    between atoms: N_4  and  C_5 
REMARK    2  A    between atoms: C_14  and  C_15 
REMARK       I    between atoms: C_15  and  N_16 
REMARK    3  A    between atoms: N_16  and  N_17 
REMARK    4  A    between atoms: N_17  and  C_18 
REMARK    5  A    between atoms: N_19  and  C_20 
ROOT
HETATM    1  C   UNL     1      43.256 -12.546   6.688  1.00  0.00     0.277 C 
HETATM    2  N   UNL     1      42.394 -11.466   6.739  1.00  0.00    -0.263 N 
HETATM    3  O   UNL     1      44.130 -12.708   7.540  1.00  0.00    -0.265 OA
HETATM    4  H   UNL     1      41.696 -11.300   6.016  1.00  0.00     0.190 HD
ENDROOT
BRANCH   1   5
HETATM    5  C   UNL     1      43.049 -13.459   5.572  1.00  0.00     0.077 A 
HETATM    6  S   UNL     1      43.398 -15.166   5.718  1.00  0.00    -0.064 SA
HETATM    7  C   UNL     1      42.974 -15.420   4.128  1.00  0.00     0.113 A 
HETATM    8  N   UNL     1      42.907 -16.431   3.200  1.00  0.00    -0.226 N 
HETATM    9  C   UNL     1      42.579 -14.297   3.521  1.00  0.00     0.027 A 
HETATM   10  N   UNL     1      42.435 -15.919   2.001  1.00  0.00    -0.171 NA
HETATM   11  C   UNL     1      42.241 -14.603   2.216  1.00  0.00     0.064 A 
HETATM   12  C   UNL     1      41.735 -13.723   1.138  1.00  0.00     0.073 C 
HETATM   13  C   UNL     1      42.601 -13.138   4.289  1.00  0.00     0.041 A 
BRANCH   8  14
HETATM   14  C   UNL     1      43.247 -17.812   3.299  1.00  0.00     0.059 A 
HETATM   15  C   UNL     1      42.970 -18.660   2.213  1.00  0.00     0.031 A 
HETATM   16  C   UNL     1      43.300 -20.017   2.265  1.00  0.00     0.002 A 
HETATM   17  C   UNL     1      43.909 -20.543   3.401  1.00  0.00     0.000 A 
HETATM   18  C   UNL     1      44.183 -19.714   4.485  1.00  0.00     0.002 A 
HETATM   19  C   UNL     1      43.855 -18.354   4.438  1.00  0.00     0.031 A 
ENDBRANCH   8  14
ENDBRANCH   1   5
BRANCH   2  20
HETATM   20  N   UNL     1      42.498 -10.522   7.769  1.00  0.00    -0.273 N 
HETATM   21  H   UNL     1      42.760 -10.918   8.671  1.00  0.00     0.189 HD
BRANCH  20  22
HETATM   22  C   UNL     1      41.750  -9.376   7.736  1.00  0.00     0.191 C 
HETATM   23  N   UNL     1      41.440  -8.768   8.913  1.00  0.00    -0.331 N 
HETATM   24  H   UNL     1      40.703  -8.072   8.812  1.00  0.00     0.168 HD
HETATM   25  S   UNL     1      41.140  -8.694   6.327  1.00  0.00    -0.039 SA
BRANCH  23  26
HETATM   26  C   UNL     1      41.930  -8.904  10.233  1.00  0.00     0.056 A 
HETATM   27  C   UNL     1      41.087  -9.501  11.192  1.00  0.00     0.060 A 
HETATM   28 CL   UNL     1      39.507 -10.067  10.764  1.00  0.00    -0.082 Cl
HETATM   29  C   UNL     1      41.503  -9.667  12.515  1.00  0.00     0.026 A 
HETATM   30  C   UNL     1      42.763  -9.222  12.905  1.00  0.00     0.002 A 
HETATM   31  C   UNL     1      43.592  -8.597  11.978  1.00  0.00     0.002 A 
HETATM   32  C   UNL     1      43.176  -8.428  10.651  1.00  0.00     0.031 A 
ENDBRANCH  23  26
ENDBRANCH  20  22
ENDBRANCH   2  20
TORSDOF 5
ENDMDL
MODEL 4
REMARK VINA RESULT:      -8.8      4.158      7.637
REMARK  5 active torsions:
REMARK  status: ('A' for Active; 'I' for Inactive)
REMARK    1  A    between atoms: N_4  and  C_5 
REMARK    2  A    between atoms: C_14  and  C_15 
REMARK       I    between atoms: C_15  and  N_16 
REMARK    3  A    between atoms: N_16  and  N_17 
REMARK    4  A    between atoms: N_17  and  C_18 
REMARK    5  A    between atoms: N_19  and  C_20 
ROOT
HETATM    1  C   UNL     1      39.891 -12.103   6.035  1.00  0.00     0.277 C 
HETATM    2  N   UNL     1      40.932 -11.395   6.607  1.00  0.00    -0.263 N 
HETATM    3  O   UNL     1      38.724 -11.921   6.383  1.00  0.00    -0.265 OA
HETATM    4  H   UNL     1      41.903 -11.570   6.357  1.00  0.00     0.190 HD
ENDROOT
BRANCH   1   5
HETATM    5  C   UNL     1      40.277 -13.060   5.006  1.00  0.00     0.077 A 
HETATM    6  S   UNL     1      41.253 -14.461   5.388  1.00  0.00    -0.064 SA
HETATM    7  C   UNL     1      41.264 -14.926   3.790  1.00  0.00     0.113 A 
HETATM    8  N   UNL     1      41.780 -15.907   2.979  1.00  0.00    -0.226 N 
HETATM    9  C   UNL     1      40.567 -14.094   3.012  1.00  0.00     0.027 A 
HETATM   10  N   UNL     1      41.368 -15.683   1.673  1.00  0.00    -0.171 NA
HETATM   11  C   UNL     1      40.624 -14.560   1.712  1.00  0.00     0.064 A 
HETATM   12  C   UNL     1      40.012 -14.012   0.481  1.00  0.00     0.073 C 
HETATM   13  C   UNL     1      39.979 -13.002   3.644  1.00  0.00     0.041 A 
BRANCH   8  14
HETATM   14  C   UNL     1      42.625 -17.017   3.278  1.00  0.00     0.059 A 
HETATM   15  C   UNL     1      42.746 -18.052   2.334  1.00  0.00     0.031 A 
HETATM   16  C   UNL     1      43.575 -19.150   2.583  1.00  0.00     0.002 A 
HETATM   17  C   UNL     1      44.288 -19.228   3.776  1.00  0.00     0.000 A 
HETATM   18  C   UNL     1      44.171 -18.212   4.720  1.00  0.00     0.002 A 
HETATM   19  C   UNL     1      43.344 -17.110   4.475  1.00  0.00     0.031 A 
ENDBRANCH   8  14
ENDBRANCH   1   5
BRANCH   2  20
HETATM   20  N   UNL     1      40.679 -10.446   7.607  1.00  0.00    -0.273 N 
HETATM   21  H   UNL     1      39.946 -10.717   8.262  1.00  0.00     0.189 HD
BRANCH  20  22
HETATM   22  C   UNL     1      40.905  -9.117   7.372  1.00  0.00     0.191 C 
HETATM   23  N   UNL     1      41.928  -8.505   8.029  1.00  0.00    -0.331 N 
HETATM   24  H   UNL     1      41.878  -7.490   7.973  1.00  0.00     0.168 HD
HETATM   25  S   UNL     1      39.962  -8.169   6.354  1.00  0.00    -0.039 SA
BRANCH  23  26
HETATM   26  C   UNL     1      43.035  -8.990   8.764  1.00  0.00     0.056 A 
HETATM   27  C   UNL     1      42.880  -9.164  10.154  1.00  0.00     0.060 A 
HETATM   28 CL   UNL     1      41.374  -8.813  10.936  1.00  0.00    -0.082 Cl
HETATM   29  C   UNL     1      43.930  -9.637  10.944  1.00  0.00     0.026 A 
HETATM   30  C   UNL     1      45.160  -9.927  10.359  1.00  0.00     0.002 A 
HETATM   31  C   UNL     1      45.339  -9.725   8.993  1.00  0.00     0.002 A 
HETATM   32  C   UNL     1      44.288  -9.249   8.200  1.00  0.00     0.031 A 
ENDBRANCH  23  26
ENDBRANCH  20  22
ENDBRANCH   2  20
TORSDOF 5
ENDMDL
MODEL 5
REMARK VINA RESULT:      -8.5      4.833      8.163
REMARK  5 active torsions:
REMARK  status: ('A' for Active; 'I' for Inactive)
REMARK    1  A    between atoms: N_4  and  C_5 
REMARK    2  A    between atoms: C_14  and  C_15 
REMARK       I    between atoms: C_15  and  N_16 
REMARK    3  A    between atoms: N_16  and  N_17 
REMARK    4  A    between atoms: N_17  and  C_18 
REMARK    5  A    between atoms: N_19  and  C_20 
ROOT
HETATM    1  C   UNL     1      39.643 -11.883   6.222  1.00  0.00     0.277 C 
HETATM    2  N   UNL     1      40.656 -11.205   6.873  1.00  0.00    -0.263 N 
HETATM    3  O   UNL     1      38.460 -11.704   6.514  1.00  0.00    -0.265 OA
HETATM    4  H   UNL     1      41.638 -11.378   6.668  1.00  0.00     0.190 HD
ENDROOT
BRANCH   1   5
HETATM    5  C   UNL     1      40.077 -12.806   5.180  1.00  0.00     0.077 A 
HETATM    6  S   UNL     1      41.100 -14.175   5.548  1.00  0.00    -0.064 SA
HETATM    7  C   UNL     1      41.147 -14.610   3.942  1.00  0.00     0.113 A 
HETATM    8  N   UNL     1      41.709 -15.555   3.119  1.00  0.00    -0.226 N 
HETATM    9  C   UNL     1      40.429 -13.789   3.170  1.00  0.00     0.027 A 
HETATM   10  N   UNL     1      41.304 -15.321   1.813  1.00  0.00    -0.171 NA
HETATM   11  C   UNL     1      40.518 -14.228   1.863  1.00  0.00     0.064 A 
HETATM   12  C   UNL     1      39.900 -13.680   0.635  1.00  0.00     0.073 C 
HETATM   13  C   UNL     1      39.793 -12.733   3.815  1.00  0.00     0.041 A 
BRANCH   8  14
HETATM   14  C   UNL     1      42.591 -16.638   3.407  1.00  0.00     0.059 A 
HETATM   15  C   UNL     1      42.712 -17.683   2.475  1.00  0.00     0.031 A 
HETATM   16  C   UNL     1      43.577 -18.755   2.714  1.00  0.00     0.002 A 
HETATM   17  C   UNL     1      44.327 -18.798   3.886  1.00  0.00     0.000 A 
HETATM   18  C   UNL     1      44.211 -17.771   4.819  1.00  0.00     0.002 A 
HETATM   19  C   UNL     1      43.348 -16.695   4.584  1.00  0.00     0.031 A 
ENDBRANCH   8  14
ENDBRANCH   1   5
BRANCH   2  20
HETATM   20  N   UNL     1      40.357 -10.291   7.893  1.00  0.00    -0.273 N 
HETATM   21  H   UNL     1      39.380 -10.297   8.184  1.00  0.00     0.189 HD
BRANCH  20  22
HETATM   22  C   UNL     1      41.084  -9.139   8.024  1.00  0.00     0.191 C 
HETATM   23  N   UNL     1      41.255  -8.616   9.269  1.00  0.00    -0.331 N 
HETATM   24  H   UNL     1      41.600  -7.658   9.247  1.00  0.00     0.168 HD
HETATM   25  S   UNL     1      41.743  -8.292   6.731  1.00  0.00    -0.039 SA
BRANCH  23  26
HETATM   26  C   UNL     1      41.054  -9.129  10.571  1.00  0.00     0.056 A 
HETATM   27  C   UNL     1      42.193  -9.448  11.339  1.00  0.00     0.060 A 
HETATM   28 CL   UNL     1      43.789  -9.200  10.714  1.00  0.00    -0.082 Cl
HETATM   29  C   UNL     1      42.070  -9.961  12.632  1.00  0.00     0.026 A 
HETATM   30  C   UNL     1      40.807 -10.181  13.173  1.00  0.00     0.002 A 
HETATM   31  C   UNL     1      39.673  -9.906  12.412  1.00  0.00     0.002 A 
HETATM   32  C   UNL     1      39.794  -9.393  11.115  1.00  0.00     0.031 A 
ENDBRANCH  23  26
ENDBRANCH  20  22
ENDBRANCH   2  20
TORSDOF 5
ENDMDL
MODEL 6
REMARK VINA RESULT:      -8.2     16.092     18.109
REMARK  5 active torsions:
REMARK  status: ('A' for Active; 'I' for Inactive)
REMARK    1  A    between atoms: N_4  and  C_5 
REMARK    2  A    between atoms: C_14  and  C_15 
REMARK       I    between atoms: C_15  and  N_16 
REMARK    3  A    between atoms: N_16  and  N_17 
REMARK    4  A    between atoms: N_17  and  C_18 
REMARK    5  A    between atoms: N_19  and  C_20 
ROOT
HETATM    1  C   UNL     1      42.242 -29.962   2.465  1.00  0.00     0.277 C 
HETATM    2  N   UNL     1      43.526 -29.866   2.970  1.00  0.00    -0.263 N 
HETATM    3  O   UNL     1      41.913 -29.376   1.434  1.00  0.00    -0.265 OA
HETATM    4  H   UNL     1      43.796 -30.311   3.844  1.00  0.00     0.190 HD
ENDROOT
BRANCH   1   5
HETATM    5  C   UNL     1      41.330 -30.799   3.234  1.00  0.00     0.077 A 
HETATM    6  S   UNL     1      40.171 -31.843   2.444  1.00  0.00    -0.064 SA
HETATM    7  C   UNL     1      39.567 -32.337   3.916  1.00  0.00     0.113 A 
HETATM    8  N   UNL     1      38.593 -33.151   4.439  1.00  0.00    -0.226 N 
HETATM    9  C   UNL     1      40.203 -31.767   4.944  1.00  0.00     0.027 A 
HETATM   10  N   UNL     1      38.650 -33.098   5.824  1.00  0.00    -0.171 NA
HETATM   11  C   UNL     1      39.646 -32.239   6.117  1.00  0.00     0.064 A 
HETATM   12  C   UNL     1      39.995 -31.931   7.523  1.00  0.00     0.073 C 
HETATM   13  C   UNL     1      41.221 -30.874   4.624  1.00  0.00     0.041 A 
BRANCH   8  14
HETATM   14  C   UNL     1      37.608 -33.958   3.797  1.00  0.00     0.059 A 
HETATM   15  C   UNL     1      37.916 -35.296   3.497  1.00  0.00     0.031 A 
HETATM   16  C   UNL     1      36.973 -36.124   2.881  1.00  0.00     0.002 A 
HETATM   17  C   UNL     1      35.714 -35.626   2.558  1.00  0.00     0.000 A 
HETATM   18  C   UNL     1      35.399 -34.301   2.846  1.00  0.00     0.002 A 
HETATM   19  C   UNL     1      36.340 -33.468   3.463  1.00  0.00     0.031 A 
ENDBRANCH   8  14
ENDBRANCH   1   5
BRANCH   2  20
HETATM   20  N   UNL     1      44.490 -29.088   2.312  1.00  0.00    -0.273 N 
HETATM   21  H   UNL     1      44.102 -28.411   1.657  1.00  0.00     0.189 HD
BRANCH  20  22
HETATM   22  C   UNL     1      45.746 -29.586   2.092  1.00  0.00     0.191 C 
HETATM   23  N   UNL     1      46.127 -29.846   0.812  1.00  0.00    -0.331 N 
HETATM   24  H   UNL     1      46.968 -30.418   0.762  1.00  0.00     0.168 HD
HETATM   25  S   UNL     1      46.840 -29.948   3.315  1.00  0.00    -0.039 SA
BRANCH  23  26
HETATM   26  C   UNL     1      45.598 -29.484  -0.449  1.00  0.00     0.056 A 
HETATM   27  C   UNL     1      46.260 -28.476  -1.179  1.00  0.00     0.060 A 
HETATM   28 CL   UNL     1      47.689 -27.717  -0.559  1.00  0.00    -0.082 Cl
HETATM   29  C   UNL     1      45.793 -28.065  -2.429  1.00  0.00     0.026 A 
HETATM   30  C   UNL     1      44.645 -28.644  -2.964  1.00  0.00     0.002 A 
HETATM   31  C   UNL     1      43.959 -29.615  -2.237  1.00  0.00     0.002 A 
HETATM   32  C   UNL     1      44.425 -30.026  -0.983  1.00  0.00     0.031 A 
ENDBRANCH  23  26
ENDBRANCH  20  22
ENDBRANCH   2  20
TORSDOF 5
ENDMDL
MODEL 7
REMARK VINA RESULT:      -8.2      5.636      9.129
REMARK  5 active torsions:
REMARK  status: ('A' for Active; 'I' for Inactive)
REMARK    1  A    between atoms: N_4  and  C_5 
REMARK    2  A    between atoms: C_14  and  C_15 
REMARK       I    between atoms: C_15  and  N_16 
REMARK    3  A    between atoms: N_16  and  N_17 
REMARK    4  A    between atoms: N_17  and  C_18 
REMARK    5  A    between atoms: N_19  and  C_20 
ROOT
HETATM    1  C   UNL     1      43.047 -10.530   7.097  1.00  0.00     0.277 C 
HETATM    2  N   UNL     1      41.909 -10.315   7.852  1.00  0.00    -0.263 N 
HETATM    3  O   UNL     1      44.131 -10.039   7.416  1.00  0.00    -0.265 OA
HETATM    4  H   UNL     1      41.001 -10.680   7.574  1.00  0.00     0.190 HD
ENDROOT
BRANCH   1   5
HETATM    5  C   UNL     1      42.867 -11.370   5.920  1.00  0.00     0.077 A 
HETATM    6  S   UNL     1      43.179 -13.090   5.975  1.00  0.00    -0.064 SA
HETATM    7  C   UNL     1      42.811 -13.238   4.357  1.00  0.00     0.113 A 
HETATM    8  N   UNL     1      42.761 -14.189   3.368  1.00  0.00    -0.226 N 
HETATM    9  C   UNL     1      42.460 -12.073   3.806  1.00  0.00     0.027 A 
HETATM   10  N   UNL     1      42.344 -13.596   2.186  1.00  0.00    -0.171 NA
HETATM   11  C   UNL     1      42.165 -12.292   2.473  1.00  0.00     0.064 A 
HETATM   12  C   UNL     1      41.717 -11.339   1.433  1.00  0.00     0.073 C 
HETATM   13  C   UNL     1      42.474 -10.963   4.644  1.00  0.00     0.041 A 
BRANCH   8  14
HETATM   14  C   UNL     1      43.072 -15.581   3.395  1.00  0.00     0.059 A 
HETATM   15  C   UNL     1      42.927 -16.333   2.216  1.00  0.00     0.031 A 
HETATM   16  C   UNL     1      43.235 -17.696   2.197  1.00  0.00     0.002 A 
HETATM   17  C   UNL     1      43.687 -18.324   3.354  1.00  0.00     0.000 A 
HETATM   18  C   UNL     1      43.830 -17.591   4.529  1.00  0.00     0.002 A 
HETATM   19  C   UNL     1      43.524 -16.226   4.553  1.00  0.00     0.031 A 
ENDBRANCH   8  14
ENDBRANCH   1   5
BRANCH   2  20
HETATM   20  N   UNL     1      41.964  -9.523   9.008  1.00  0.00    -0.273 N 
HETATM   21  H   UNL     1      42.127 -10.049   9.866  1.00  0.00     0.189 HD
BRANCH  20  22
HETATM   22  C   UNL     1      41.274  -8.342   9.070  1.00  0.00     0.191 C 
HETATM   23  N   UNL     1      41.005  -7.810  10.294  1.00  0.00    -0.331 N 
HETATM   24  H   UNL     1      40.303  -7.073  10.255  1.00  0.00     0.168 HD
HETATM   25  S   UNL     1      40.687  -7.525   7.724  1.00  0.00    -0.039 SA
BRANCH  23  26
HETATM   26  C   UNL     1      41.499  -8.071  11.593  1.00  0.00     0.056 A 
HETATM   27  C   UNL     1      40.887  -9.099  12.338  1.00  0.00     0.060 A 
HETATM   28 CL   UNL     1      39.583 -10.028  11.676  1.00  0.00    -0.082 Cl
HETATM   29  C   UNL     1      41.320  -9.410  13.629  1.00  0.00     0.026 A 
HETATM   30  C   UNL     1      42.361  -8.686  14.203  1.00  0.00     0.002 A 
HETATM   31  C   UNL     1      42.950  -7.643  13.493  1.00  0.00     0.002 A 
HETATM   32  C   UNL     1      42.516  -7.329  12.200  1.00  0.00     0.031 A 
ENDBRANCH  23  26
ENDBRANCH  20  22
ENDBRANCH   2  20
TORSDOF 5
ENDMDL
MODEL 8
REMARK VINA RESULT:      -8.1     11.162     15.317
REMARK  5 active torsions:
REMARK  status: ('A' for Active; 'I' for Inactive)
REMARK    1  A    between atoms: N_4  and  C_5 
REMARK    2  A    between atoms: C_14  and  C_15 
REMARK       I    between atoms: C_15  and  N_16 
REMARK    3  A    between atoms: N_16  and  N_17 
REMARK    4  A    between atoms: N_17  and  C_18 
REMARK    5  A    between atoms: N_19  and  C_20 
ROOT
HETATM    1  C   UNL     1      42.373  -7.676  14.212  1.00  0.00     0.277 C 
HETATM    2  N   UNL     1      42.924  -6.652  14.961  1.00  0.00    -0.263 N 
HETATM    3  O   UNL     1      41.762  -8.603  14.745  1.00  0.00    -0.265 OA
HETATM    4  H   UNL     1      43.467  -5.905  14.534  1.00  0.00     0.190 HD
ENDROOT
BRANCH   1   5
HETATM    5  C   UNL     1      42.566  -7.570  12.772  1.00  0.00     0.077 A 
HETATM    6  S   UNL     1      43.412  -8.810  11.875  1.00  0.00    -0.064 SA
HETATM    7  C   UNL     1      43.239  -7.947  10.461  1.00  0.00     0.113 A 
HETATM    8  N   UNL     1      43.577  -8.019   9.132  1.00  0.00    -0.226 N 
HETATM    9  C   UNL     1      42.575  -6.802  10.641  1.00  0.00     0.027 A 
HETATM   10  N   UNL     1      43.084  -6.900   8.476  1.00  0.00    -0.171 NA
HETATM   11  C   UNL     1      42.472  -6.161   9.421  1.00  0.00     0.064 A 
HETATM   12  C   UNL     1      41.823  -4.875   9.078  1.00  0.00     0.073 C 
HETATM   13  C   UNL     1      42.164  -6.523  11.941  1.00  0.00     0.041 A 
BRANCH   8  14
HETATM   14  C   UNL     1      44.317  -9.000   8.408  1.00  0.00     0.059 A 
HETATM   15  C   UNL     1      45.721  -8.931   8.412  1.00  0.00     0.031 A 
HETATM   16  C   UNL     1      46.484  -9.881   7.727  1.00  0.00     0.002 A 
HETATM   17  C   UNL     1      45.854 -10.909   7.031  1.00  0.00     0.000 A 
HETATM   18  C   UNL     1      44.464 -10.984   7.016  1.00  0.00     0.002 A 
HETATM   19  C   UNL     1      43.696 -10.036   7.700  1.00  0.00     0.031 A 
ENDBRANCH   8  14
ENDBRANCH   1   5
BRANCH   2  20
HETATM   20  N   UNL     1      42.800  -6.649  16.358  1.00  0.00    -0.273 N 
HETATM   21  H   UNL     1      43.141  -7.497  16.808  1.00  0.00     0.189 HD
BRANCH  20  22
HETATM   22  C   UNL     1      41.806  -5.928  16.962  1.00  0.00     0.191 C 
HETATM   23  N   UNL     1      41.394  -6.301  18.204  1.00  0.00    -0.331 N 
HETATM   24  H   UNL     1      40.513  -5.866  18.472  1.00  0.00     0.168 HD
HETATM   25  S   UNL     1      41.016  -4.630  16.242  1.00  0.00    -0.039 SA
BRANCH  23  26
HETATM   26  C   UNL     1      41.937  -7.161  19.186  1.00  0.00     0.056 A 
HETATM   27  C   UNL     1      41.125  -8.207  19.671  1.00  0.00     0.060 A 
HETATM   28 CL   UNL     1      39.518  -8.443  19.068  1.00  0.00    -0.082 Cl
HETATM   29  C   UNL     1      41.594  -9.093  20.643  1.00  0.00     0.026 A 
HETATM   30  C   UNL     1      42.877  -8.938  21.160  1.00  0.00     0.002 A 
HETATM   31  C   UNL     1      43.677  -7.887  20.718  1.00  0.00     0.002 A 
HETATM   32  C   UNL     1      43.208  -6.997  19.745  1.00  0.00     0.031 A 
ENDBRANCH  23  26
ENDBRANCH  20  22
ENDBRANCH   2  20
TORSDOF 5
ENDMDL
MODEL 9
REMARK VINA RESULT:      -8.0      3.103      8.767
REMARK  5 active torsions:
REMARK  status: ('A' for Active; 'I' for Inactive)
REMARK    1  A    between atoms: N_4  and  C_5 
REMARK    2  A    between atoms: C_14  and  C_15 
REMARK       I    between atoms: C_15  and  N_16 
REMARK    3  A    between atoms: N_16  and  N_17 
REMARK    4  A    between atoms: N_17  and  C_18 
REMARK    5  A    between atoms: N_19  and  C_20 
ROOT
HETATM    1  C   UNL     1      41.229 -12.647   2.247  1.00  0.00     0.277 C 
HETATM    2  N   UNL     1      41.851 -13.822   2.625  1.00  0.00    -0.263 N 
HETATM    3  O   UNL     1      41.100 -11.708   3.033  1.00  0.00    -0.265 OA
HETATM    4  H   UNL     1      41.924 -14.620   1.996  1.00  0.00     0.190 HD
ENDROOT
BRANCH   1   5
HETATM    5  C   UNL     1      40.749 -12.608   0.871  1.00  0.00     0.077 A 
HETATM    6  S   UNL     1      40.767 -11.126  -0.055  1.00  0.00    -0.064 SA
HETATM    7  C   UNL     1      40.069 -11.895  -1.357  1.00  0.00     0.113 A 
HETATM    8  N   UNL     1      39.620 -11.627  -2.626  1.00  0.00    -0.226 N 
HETATM    9  C   UNL     1      39.847 -13.192  -1.123  1.00  0.00     0.027 A 
HETATM   10  N   UNL     1      39.133 -12.795  -3.194  1.00  0.00    -0.171 NA
HETATM   11  C   UNL     1      39.278 -13.749  -2.253  1.00  0.00     0.064 A 
HETATM   12  C   UNL     1      38.856 -15.143  -2.512  1.00  0.00     0.073 C 
HETATM   13  C   UNL     1      40.210 -13.665   0.135  1.00  0.00     0.041 A 
BRANCH   8  14
HETATM   14  C   UNL     1      39.579 -10.407  -3.364  1.00  0.00     0.059 A 
HETATM   15  C   UNL     1      40.789  -9.797  -3.737  1.00  0.00     0.031 A 
HETATM   16  C   UNL     1      40.791  -8.608  -4.472  1.00  0.00     0.002 A 
HETATM   17  C   UNL     1      39.587  -8.014  -4.840  1.00  0.00     0.000 A 
HETATM   18  C   UNL     1      38.383  -8.606  -4.471  1.00  0.00     0.002 A 
HETATM   19  C   UNL     1      38.375  -9.797  -3.736  1.00  0.00     0.031 A 
ENDBRANCH   8  14
ENDBRANCH   1   5
BRANCH   2  20
HETATM   20  N   UNL     1      42.353 -13.973   3.925  1.00  0.00    -0.273 N 
HETATM   21  H   UNL     1      43.371 -13.977   3.981  1.00  0.00     0.189 HD
BRANCH  20  22
HETATM   22  C   UNL     1      41.631 -14.649   4.871  1.00  0.00     0.191 C 
HETATM   23  N   UNL     1      41.644 -16.010   4.849  1.00  0.00    -0.331 N 
HETATM   24  H   UNL     1      40.912 -16.418   5.427  1.00  0.00     0.168 HD
HETATM   25  S   UNL     1      40.678 -13.903   6.037  1.00  0.00    -0.039 SA
BRANCH  23  26
HETATM   26  C   UNL     1      42.461 -16.960   4.194  1.00  0.00     0.056 A 
HETATM   27  C   UNL     1      43.555 -17.494   4.906  1.00  0.00     0.060 A 
HETATM   28 CL   UNL     1      43.875 -17.016   6.540  1.00  0.00    -0.082 Cl
HETATM   29  C   UNL     1      44.406 -18.435   4.322  1.00  0.00     0.026 A 
HETATM   30  C   UNL     1      44.189 -18.844   3.010  1.00  0.00     0.002 A 
HETATM   31  C   UNL     1      43.136 -18.297   2.281  1.00  0.00     0.002 A 
HETATM   32  C   UNL     1      42.282 -17.353   2.865  1.00  0.00     0.031 A 
ENDBRANCH  23  26
ENDBRANCH  20  22
ENDBRANCH   2  20
TORSDOF 5
ENDMDL
MODEL 10
REMARK VINA RESULT:      -8.0      2.781      3.081
REMARK  5 active torsions:
REMARK  status: ('A' for Active; 'I' for Inactive)
REMARK    1  A    between atoms: N_4  and  C_5 
REMARK    2  A    between atoms: C_14  and  C_15 
REMARK       I    between atoms: C_15  and  N_16 
REMARK    3  A    between atoms: N_16  and  N_17 
REMARK    4  A    between atoms: N_17  and  C_18 
REMARK    5  A    between atoms: N_19  and  C_20 
ROOT
HETATM    1  C   UNL     1      42.027 -12.442   1.865  1.00  0.00     0.277 C 
HETATM    2  N   UNL     1      42.275 -11.159   2.316  1.00  0.00    -0.263 N 
HETATM    3  O   UNL     1      41.499 -12.647   0.772  1.00  0.00    -0.265 OA
HETATM    4  H   UNL     1      42.671 -10.979   3.236  1.00  0.00     0.190 HD
ENDROOT
BRANCH   1   5
HETATM    5  C   UNL     1      42.434 -13.511   2.768  1.00  0.00     0.077 A 
HETATM    6  S   UNL     1      42.717 -15.135   2.184  1.00  0.00    -0.064 SA
HETATM    7  C   UNL     1      43.053 -15.664   3.727  1.00  0.00     0.113 A 
HETATM    8  N   UNL     1      43.382 -16.814   4.401  1.00  0.00    -0.226 N 
HETATM    9  C   UNL     1      42.975 -14.683   4.630  1.00  0.00     0.027 A 
HETATM   10  N   UNL     1      43.533 -16.524   5.749  1.00  0.00    -0.171 NA
HETATM   11  C   UNL     1      43.276 -15.207   5.873  1.00  0.00     0.064 A 
HETATM   12  C   UNL     1      43.341 -14.540   7.192  1.00  0.00     0.073 C 
HETATM   13  C   UNL     1      42.621 -13.426   4.149  1.00  0.00     0.041 A 
BRANCH   8  14
HETATM   14  C   UNL     1      43.556 -18.151   3.937  1.00  0.00     0.059 A 
HETATM   15  C   UNL     1      43.971 -19.138   4.847  1.00  0.00     0.031 A 
HETATM   16  C   UNL     1      44.139 -20.463   4.435  1.00  0.00     0.002 A 
HETATM   17  C   UNL     1      43.897 -20.817   3.110  1.00  0.00     0.000 A 
HETATM   18  C   UNL     1      43.490 -19.846   2.199  1.00  0.00     0.002 A 
HETATM   19  C   UNL     1      43.320 -18.519   2.607  1.00  0.00     0.031 A 
ENDBRANCH   8  14
ENDBRANCH   1   5
BRANCH   2  20
HETATM   20  N   UNL     1      41.925 -10.051   1.531  1.00  0.00    -0.273 N 
HETATM   21  H   UNL     1      42.712  -9.454   1.280  1.00  0.00     0.189 HD
BRANCH  20  22
HETATM   22  C   UNL     1      40.675  -9.502   1.628  1.00  0.00     0.191 C 
HETATM   23  N   UNL     1      40.042  -9.119   0.486  1.00  0.00    -0.331 N 
HETATM   24  H   UNL     1      39.238  -8.522   0.665  1.00  0.00     0.168 HD
HETATM   25  S   UNL     1      39.885  -9.218   3.083  1.00  0.00    -0.039 SA
BRANCH  23  26
HETATM   26  C   UNL     1      40.274  -9.383  -0.884  1.00  0.00     0.056 A 
HETATM   27  C   UNL     1      41.060  -8.466  -1.610  1.00  0.00     0.060 A 
HETATM   28 CL   UNL     1      41.739  -7.069  -0.844  1.00  0.00    -0.082 Cl
HETATM   29  C   UNL     1      41.328  -8.660  -2.967  1.00  0.00     0.026 A 
HETATM   30  C   UNL     1      40.799  -9.767  -3.626  1.00  0.00     0.002 A 
HETATM   31  C   UNL     1      39.989 -10.661  -2.930  1.00  0.00     0.002 A 
HETATM   32  C   UNL     1      39.718 -10.467  -1.571  1.00  0.00     0.031 A 
ENDBRANCH  23  26
ENDBRANCH  20  22
ENDBRANCH   2  20
TORSDOF 5
ENDMDL
