MODEL 1
REMARK VINA RESULT:      -8.4      0.000      0.000
REMARK  8 active torsions:
REMARK  status: ('A' for Active; 'I' for Inactive)
REMARK    1  A    between atoms: O_2  and  C_3 
REMARK    2  A    between atoms: C_6  and  C_7 
REMARK    3  A    between atoms: C_7  and  O_8 
REMARK    4  A    between atoms: C_7  and  C_9 
REMARK    5  A    between atoms: C_9  and  N_10 
REMARK    6  A    between atoms: C_11  and  N_12 
REMARK    7  A    between atoms: N_13  and  C_14 
REMARK    8  A    between atoms: C_14  and  C_15 
ROOT
HETATM    1  N   UNL     1      41.232 -12.629   3.722  1.00  0.00    -0.178 N 
HETATM    2  C   UNL     1      40.734 -13.843   3.936  1.00  0.00     0.681 A 
HETATM    3  N   UNL     1      41.482 -14.482   4.825  1.00  0.00    -0.177 N 
HETATM    4  C   UNL     1      42.467 -13.617   5.294  1.00  0.00     0.079 A 
HETATM    5  C   UNL     1      42.303 -12.422   4.589  1.00  0.00     0.079 A 
HETATM    6  C   UNL     1      43.466 -13.786   6.250  1.00  0.00     0.032 A 
HETATM    7  C   UNL     1      44.306 -12.685   6.463  1.00  0.00     0.002 A 
HETATM    8  C   UNL     1      44.144 -11.482   5.749  1.00  0.00     0.002 A 
HETATM    9  C   UNL     1      43.132 -11.323   4.791  1.00  0.00     0.032 A 
ENDROOT
BRANCH   1  10
HETATM   10  C   UNL     1      40.787 -11.682   2.689  1.00  0.00     0.184 C 
BRANCH  10  11
HETATM   11  C   UNL     1      41.718 -11.619   1.454  1.00  0.00     0.170 C 
BRANCH  11  12
HETATM   12  C   UNL     1      41.074 -12.206   0.216  1.00  0.00    -0.028 A 
HETATM   13  C   UNL     1      40.979 -11.432  -0.949  1.00  0.00     0.012 A 
HETATM   14  C   UNL     1      40.463 -11.982  -2.123  1.00  0.00     0.037 A 
HETATM   15  C   UNL     1      40.026 -13.306  -2.158  1.00  0.00     0.068 A 
HETATM   16  C   UNL     1      40.096 -14.078  -0.999  1.00  0.00     0.037 A 
HETATM   17  C   UNL     1      40.616 -13.532   0.182  1.00  0.00     0.012 A 
BRANCH  15  18
HETATM   18  O   UNL     1      39.568 -13.718  -3.377  1.00  0.00    -0.356 OA
HETATM   19  C   UNL     1      38.359 -14.467  -3.398  1.00  0.00     0.210 C 
ENDBRANCH  15  18
ENDBRANCH  11  12
BRANCH  11  20
HETATM   20  O   UNL     1      42.090 -10.263   1.212  1.00  0.00    -0.389 OA
HETATM   21  H   UNL     1      41.619  -9.713   1.866  1.00  0.00     0.210 HD
ENDBRANCH  11  20
ENDBRANCH  10  11
ENDBRANCH   1  10
BRANCH   2  22
HETATM   22  N   UNL     1      39.643 -14.345   3.360  1.00  0.00    -0.234 N 
HETATM   23  H   UNL     1      39.042 -14.992   3.845  1.00  0.00     0.174 HD
HETATM   24  H   UNL     1      39.411 -14.118   2.405  1.00  0.00     0.174 HD
ENDBRANCH   2  22
BRANCH   3  25
HETATM   25  C   UNL     1      41.358 -15.887   5.190  1.00  0.00     0.186 C 
BRANCH  25  26
HETATM   26  C   UNL     1      42.276 -16.774   4.385  1.00  0.00    -0.039 A 
HETATM   27  C   UNL     1      42.137 -16.998   3.007  1.00  0.00     0.009 A 
HETATM   28  C   UNL     1      43.007 -17.855   2.328  1.00  0.00     0.001 A 
HETATM   29  C   UNL     1      44.030 -18.501   3.016  1.00  0.00     0.000 A 
HETATM   30  C   UNL     1      44.188 -18.289   4.382  1.00  0.00     0.001 A 
HETATM   31  C   UNL     1      43.320 -17.432   5.062  1.00  0.00     0.009 A 
ENDBRANCH  25  26
ENDBRANCH   3  25
TORSDOF 8
ENDMDL
MODEL 2
REMARK VINA RESULT:      -8.0      1.748      4.422
REMARK  8 active torsions:
REMARK  status: ('A' for Active; 'I' for Inactive)
REMARK    1  A    between atoms: O_2  and  C_3 
REMARK    2  A    between atoms: C_6  and  C_7 
REMARK    3  A    between atoms: C_7  and  O_8 
REMARK    4  A    between atoms: C_7  and  C_9 
REMARK    5  A    between atoms: C_9  and  N_10 
REMARK    6  A    between atoms: C_11  and  N_12 
REMARK    7  A    between atoms: N_13  and  C_14 
REMARK    8  A    between atoms: C_14  and  C_15 
ROOT
HETATM    1  N   UNL     1      40.813 -15.440   2.724  1.00  0.00    -0.178 N 
HETATM    2  C   UNL     1      40.643 -14.592   3.733  1.00  0.00     0.681 A 
HETATM    3  N   UNL     1      41.442 -14.927   4.737  1.00  0.00    -0.177 N 
HETATM    4  C   UNL     1      42.248 -15.990   4.341  1.00  0.00     0.079 A 
HETATM    5  C   UNL     1      41.849 -16.316   3.042  1.00  0.00     0.079 A 
HETATM    6  C   UNL     1      43.265 -16.675   5.002  1.00  0.00     0.032 A 
HETATM    7  C   UNL     1      43.864 -17.722   4.289  1.00  0.00     0.002 A 
HETATM    8  C   UNL     1      43.459 -18.055   2.982  1.00  0.00     0.002 A 
HETATM    9  C   UNL     1      42.437 -17.355   2.325  1.00  0.00     0.032 A 
ENDROOT
BRANCH   1  10
HETATM   10  C   UNL     1      39.999 -15.504   1.502  1.00  0.00     0.184 C 
BRANCH  10  11
HETATM   11  C   UNL     1      40.667 -14.850   0.268  1.00  0.00     0.170 C 
BRANCH  11  12
HETATM   12  C   UNL     1      39.685 -14.048  -0.561  1.00  0.00    -0.028 A 
HETATM   13  C   UNL     1      39.147 -14.605  -1.728  1.00  0.00     0.012 A 
HETATM   14  C   UNL     1      38.181 -13.915  -2.461  1.00  0.00     0.037 A 
HETATM   15  C   UNL     1      37.739 -12.657  -2.050  1.00  0.00     0.068 A 
HETATM   16  C   UNL     1      38.283 -12.084  -0.901  1.00  0.00     0.037 A 
HETATM   17  C   UNL     1      39.251 -12.774  -0.161  1.00  0.00     0.012 A 
BRANCH  15  18
HETATM   18  O   UNL     1      36.774 -12.109  -2.848  1.00  0.00    -0.356 OA
HETATM   19  C   UNL     1      36.395 -10.764  -2.578  1.00  0.00     0.210 C 
ENDBRANCH  15  18
ENDBRANCH  11  12
BRANCH  11  20
HETATM   20  O   UNL     1      41.737 -14.010   0.700  1.00  0.00    -0.389 OA
HETATM   21  H   UNL     1      42.118 -14.417   1.501  1.00  0.00     0.210 HD
ENDBRANCH  11  20
ENDBRANCH  10  11
ENDBRANCH   1  10
BRANCH   2  22
HETATM   22  N   UNL     1      39.810 -13.553   3.739  1.00  0.00    -0.234 N 
HETATM   23  H   UNL     1      40.125 -12.626   3.980  1.00  0.00     0.174 HD
HETATM   24  H   UNL     1      38.829 -13.675   3.539  1.00  0.00     0.174 HD
ENDBRANCH   2  22
BRANCH   3  25
HETATM   25  C   UNL     1      41.421 -14.344   6.073  1.00  0.00     0.186 C 
BRANCH  25  26
HETATM   26  C   UNL     1      42.440 -13.242   6.235  1.00  0.00    -0.039 A 
HETATM   27  C   UNL     1      43.770 -13.458   6.629  1.00  0.00     0.009 A 
HETATM   28  C   UNL     1      44.654 -12.388   6.787  1.00  0.00     0.001 A 
HETATM   29  C   UNL     1      44.223 -11.085   6.553  1.00  0.00     0.000 A 
HETATM   30  C   UNL     1      42.910 -10.849   6.157  1.00  0.00     0.001 A 
HETATM   31  C   UNL     1      42.025 -11.919   5.998  1.00  0.00     0.009 A 
ENDBRANCH  25  26
ENDBRANCH   3  25
TORSDOF 8
ENDMDL
MODEL 3
REMARK VINA RESULT:      -8.0      2.119      6.267
REMARK  8 active torsions:
REMARK  status: ('A' for Active; 'I' for Inactive)
REMARK    1  A    between atoms: O_2  and  C_3 
REMARK    2  A    between atoms: C_6  and  C_7 
REMARK    3  A    between atoms: C_7  and  O_8 
REMARK    4  A    between atoms: C_7  and  C_9 
REMARK    5  A    between atoms: C_9  and  N_10 
REMARK    6  A    between atoms: C_11  and  N_12 
REMARK    7  A    between atoms: N_13  and  C_14 
REMARK    8  A    between atoms: C_14  and  C_15 
ROOT
HETATM    1  N   UNL     1      40.868 -12.615   3.249  1.00  0.00    -0.178 N 
HETATM    2  C   UNL     1      41.016 -13.700   4.003  1.00  0.00     0.681 A 
HETATM    3  N   UNL     1      40.732 -14.782   3.291  1.00  0.00    -0.177 N 
HETATM    4  C   UNL     1      40.476 -14.405   1.976  1.00  0.00     0.079 A 
HETATM    5  C   UNL     1      40.570 -13.011   1.946  1.00  0.00     0.079 A 
HETATM    6  C   UNL     1      40.172 -15.155   0.842  1.00  0.00     0.032 A 
HETATM    7  C   UNL     1      39.958 -14.428  -0.336  1.00  0.00     0.002 A 
HETATM    8  C   UNL     1      40.047 -13.023  -0.366  1.00  0.00     0.002 A 
HETATM    9  C   UNL     1      40.357 -12.279   0.781  1.00  0.00     0.032 A 
ENDROOT
BRANCH   1  10
HETATM   10  C   UNL     1      40.927 -11.223   3.715  1.00  0.00     0.184 C 
BRANCH  10  11
HETATM   11  C   UNL     1      42.358 -10.632   3.743  1.00  0.00     0.170 C 
BRANCH  11  12
HETATM   12  C   UNL     1      43.025 -10.799   5.093  1.00  0.00    -0.028 A 
HETATM   13  C   UNL     1      44.260 -11.455   5.179  1.00  0.00     0.012 A 
HETATM   14  C   UNL     1      44.928 -11.547   6.401  1.00  0.00     0.037 A 
HETATM   15  C   UNL     1      44.377 -10.995   7.557  1.00  0.00     0.068 A 
HETATM   16  C   UNL     1      43.138 -10.359   7.487  1.00  0.00     0.037 A 
HETATM   17  C   UNL     1      42.465 -10.261   6.262  1.00  0.00     0.012 A 
BRANCH  15  18
HETATM   18  O   UNL     1      45.149 -11.138   8.675  1.00  0.00    -0.356 OA
HETATM   19  C   UNL     1      45.334  -9.986   9.489  1.00  0.00     0.210 C 
ENDBRANCH  15  18
ENDBRANCH  11  12
BRANCH  11  20
HETATM   20  O   UNL     1      43.147 -11.257   2.731  1.00  0.00    -0.389 OA
HETATM   21  H   UNL     1      44.080 -11.192   3.012  1.00  0.00     0.210 HD
ENDBRANCH  11  20
ENDBRANCH  10  11
ENDBRANCH   1  10
BRANCH   2  22
HETATM   22  N   UNL     1      41.404 -13.709   5.278  1.00  0.00    -0.234 N 
HETATM   23  H   UNL     1      41.208 -14.491   5.882  1.00  0.00     0.174 HD
HETATM   24  H   UNL     1      41.873 -12.913   5.682  1.00  0.00     0.174 HD
ENDBRANCH   2  22
BRANCH   3  25
HETATM   25  C   UNL     1      40.615 -16.138   3.812  1.00  0.00     0.186 C 
BRANCH  25  26
HETATM   26  C   UNL     1      41.910 -16.907   3.708  1.00  0.00    -0.039 A 
HETATM   27  C   UNL     1      42.339 -17.562   2.544  1.00  0.00     0.009 A 
HETATM   28  C   UNL     1      43.537 -18.281   2.526  1.00  0.00     0.001 A 
HETATM   29  C   UNL     1      44.325 -18.357   3.671  1.00  0.00     0.000 A 
HETATM   30  C   UNL     1      43.919 -17.712   4.835  1.00  0.00     0.001 A 
HETATM   31  C   UNL     1      42.722 -16.991   4.854  1.00  0.00     0.009 A 
ENDBRANCH  25  26
ENDBRANCH   3  25
TORSDOF 8
ENDMDL
MODEL 4
REMARK VINA RESULT:      -7.7      4.338      7.410
REMARK  8 active torsions:
REMARK  status: ('A' for Active; 'I' for Inactive)
REMARK    1  A    between atoms: O_2  and  C_3 
REMARK    2  A    between atoms: C_6  and  C_7 
REMARK    3  A    between atoms: C_7  and  O_8 
REMARK    4  A    between atoms: C_7  and  C_9 
REMARK    5  A    between atoms: C_9  and  N_10 
REMARK    6  A    between atoms: C_11  and  N_12 
REMARK    7  A    between atoms: N_13  and  C_14 
REMARK    8  A    between atoms: C_14  and  C_15 
ROOT
HETATM    1  N   UNL     1      43.064 -11.126   6.929  1.00  0.00    -0.178 N 
HETATM    2  C   UNL     1      42.199 -10.252   7.436  1.00  0.00     0.681 A 
HETATM    3  N   UNL     1      42.853  -9.326   8.125  1.00  0.00    -0.177 N 
HETATM    4  C   UNL     1      44.221  -9.541   7.989  1.00  0.00     0.079 A 
HETATM    5  C   UNL     1      44.358 -10.695   7.214  1.00  0.00     0.079 A 
HETATM    6  C   UNL     1      45.319  -8.836   8.477  1.00  0.00     0.032 A 
HETATM    7  C   UNL     1      46.578  -9.357   8.149  1.00  0.00     0.002 A 
HETATM    8  C   UNL     1      46.717 -10.524   7.372  1.00  0.00     0.002 A 
HETATM    9  C   UNL     1      45.603 -11.222   6.884  1.00  0.00     0.032 A 
ENDROOT
BRANCH   1  10
HETATM   10  C   UNL     1      42.723 -12.383   6.247  1.00  0.00     0.184 C 
BRANCH  10  11
HETATM   11  C   UNL     1      42.673 -12.265   4.704  1.00  0.00     0.170 C 
BRANCH  11  12
HETATM   12  C   UNL     1      42.805 -13.609   4.019  1.00  0.00    -0.028 A 
HETATM   13  C   UNL     1      43.042 -13.664   2.640  1.00  0.00     0.012 A 
HETATM   14  C   UNL     1      43.247 -14.889   2.004  1.00  0.00     0.037 A 
HETATM   15  C   UNL     1      43.213 -16.081   2.729  1.00  0.00     0.068 A 
HETATM   16  C   UNL     1      42.957 -16.040   4.099  1.00  0.00     0.037 A 
HETATM   17  C   UNL     1      42.754 -14.812   4.741  1.00  0.00     0.012 A 
BRANCH  15  18
HETATM   18  O   UNL     1      43.454 -17.202   1.985  1.00  0.00    -0.356 OA
HETATM   19  C   UNL     1      43.436 -18.450   2.666  1.00  0.00     0.210 C 
ENDBRANCH  15  18
ENDBRANCH  11  12
BRANCH  11  20
HETATM   20  O   UNL     1      41.450 -11.641   4.317  1.00  0.00    -0.389 OA
HETATM   21  H   UNL     1      41.649 -10.702   4.138  1.00  0.00     0.210 HD
ENDBRANCH  11  20
ENDBRANCH  10  11
ENDBRANCH   1  10
BRANCH   2  22
HETATM   22  N   UNL     1      40.878 -10.286   7.271  1.00  0.00    -0.234 N 
HETATM   23  H   UNL     1      40.279 -10.776   7.916  1.00  0.00     0.174 HD
HETATM   24  H   UNL     1      40.445  -9.851   6.471  1.00  0.00     0.174 HD
ENDBRANCH   2  22
BRANCH   3  25
HETATM   25  C   UNL     1      42.244  -8.302   8.964  1.00  0.00     0.186 C 
BRANCH  25  26
HETATM   26  C   UNL     1      42.280  -8.663  10.429  1.00  0.00    -0.039 A 
HETATM   27  C   UNL     1      41.458  -9.638  11.015  1.00  0.00     0.009 A 
HETATM   28  C   UNL     1      41.524  -9.902  12.385  1.00  0.00     0.001 A 
HETATM   29  C   UNL     1      42.413  -9.198  13.191  1.00  0.00     0.000 A 
HETATM   30  C   UNL     1      43.240  -8.230  12.630  1.00  0.00     0.001 A 
HETATM   31  C   UNL     1      43.176  -7.965  11.260  1.00  0.00     0.009 A 
ENDBRANCH  25  26
ENDBRANCH   3  25
TORSDOF 8
ENDMDL
MODEL 5
REMARK VINA RESULT:      -7.6      2.660      5.799
REMARK  8 active torsions:
REMARK  status: ('A' for Active; 'I' for Inactive)
REMARK    1  A    between atoms: O_2  and  C_3 
REMARK    2  A    between atoms: C_6  and  C_7 
REMARK    3  A    between atoms: C_7  and  O_8 
REMARK    4  A    between atoms: C_7  and  C_9 
REMARK    5  A    between atoms: C_9  and  N_10 
REMARK    6  A    between atoms: C_11  and  N_12 
REMARK    7  A    between atoms: N_13  and  C_14 
REMARK    8  A    between atoms: C_14  and  C_15 
ROOT
HETATM    1  N   UNL     1      41.597 -12.989   4.407  1.00  0.00    -0.178 N 
HETATM    2  C   UNL     1      42.606 -12.125   4.360  1.00  0.00     0.681 A 
HETATM    3  N   UNL     1      43.451 -12.371   5.351  1.00  0.00    -0.177 N 
HETATM    4  C   UNL     1      43.034 -13.512   6.031  1.00  0.00     0.079 A 
HETATM    5  C   UNL     1      41.844 -13.914   5.420  1.00  0.00     0.079 A 
HETATM    6  C   UNL     1      43.588 -14.200   7.108  1.00  0.00     0.032 A 
HETATM    7  C   UNL     1      42.876 -15.323   7.550  1.00  0.00     0.002 A 
HETATM    8  C   UNL     1      41.674 -15.726   6.938  1.00  0.00     0.002 A 
HETATM    9  C   UNL     1      41.128 -15.027   5.852  1.00  0.00     0.032 A 
ENDROOT
BRANCH   1  10
HETATM   10  C   UNL     1      40.378 -12.941   3.586  1.00  0.00     0.184 C 
BRANCH  10  11
HETATM   11  C   UNL     1      40.579 -13.447   2.137  1.00  0.00     0.170 C 
BRANCH  11  12
HETATM   12  C   UNL     1      41.394 -14.722   2.079  1.00  0.00    -0.028 A 
HETATM   13  C   UNL     1      42.748 -14.664   1.722  1.00  0.00     0.012 A 
HETATM   14  C   UNL     1      43.535 -15.815   1.742  1.00  0.00     0.037 A 
HETATM   15  C   UNL     1      42.988 -17.046   2.110  1.00  0.00     0.068 A 
HETATM   16  C   UNL     1      41.637 -17.119   2.446  1.00  0.00     0.037 A 
HETATM   17  C   UNL     1      40.844 -15.965   2.431  1.00  0.00     0.012 A 
BRANCH  15  18
HETATM   18  O   UNL     1      43.878 -18.083   2.108  1.00  0.00    -0.356 OA
HETATM   19  C   UNL     1      43.386 -19.361   2.492  1.00  0.00     0.210 C 
ENDBRANCH  15  18
ENDBRANCH  11  12
BRANCH  11  20
HETATM   20  O   UNL     1      39.305 -13.657   1.528  1.00  0.00    -0.389 OA
HETATM   21  H   UNL     1      38.815 -14.281   2.095  1.00  0.00     0.210 HD
ENDBRANCH  11  20
ENDBRANCH  10  11
ENDBRANCH   1  10
BRANCH   2  22
HETATM   22  N   UNL     1      42.759 -11.163   3.451  1.00  0.00    -0.234 N 
HETATM   23  H   UNL     1      43.510 -10.494   3.514  1.00  0.00     0.174 HD
HETATM   24  H   UNL     1      42.101 -11.056   2.694  1.00  0.00     0.174 HD
ENDBRANCH   2  22
BRANCH   3  25
HETATM   25  C   UNL     1      44.584 -11.537   5.731  1.00  0.00     0.186 C 
BRANCH  25  26
HETATM   26  C   UNL     1      44.367 -10.838   7.051  1.00  0.00    -0.039 A 
HETATM   27  C   UNL     1      43.168 -10.203   7.412  1.00  0.00     0.009 A 
HETATM   28  C   UNL     1      43.045  -9.549   8.640  1.00  0.00     0.001 A 
HETATM   29  C   UNL     1      44.116  -9.521   9.528  1.00  0.00     0.000 A 
HETATM   30  C   UNL     1      45.312 -10.148   9.192  1.00  0.00     0.001 A 
HETATM   31  C   UNL     1      45.437 -10.802   7.964  1.00  0.00     0.009 A 
ENDBRANCH  25  26
ENDBRANCH   3  25
TORSDOF 8
ENDMDL
MODEL 6
REMARK VINA RESULT:      -7.5      3.552      7.547
REMARK  8 active torsions:
REMARK  status: ('A' for Active; 'I' for Inactive)
REMARK    1  A    between atoms: O_2  and  C_3 
REMARK    2  A    between atoms: C_6  and  C_7 
REMARK    3  A    between atoms: C_7  and  O_8 
REMARK    4  A    between atoms: C_7  and  C_9 
REMARK    5  A    between atoms: C_9  and  N_10 
REMARK    6  A    between atoms: C_11  and  N_12 
REMARK    7  A    between atoms: N_13  and  C_14 
REMARK    8  A    between atoms: C_14  and  C_15 
ROOT
HETATM    1  N   UNL     1      41.951 -12.264   5.406  1.00  0.00    -0.178 N 
HETATM    2  C   UNL     1      41.704 -13.550   5.639  1.00  0.00     0.681 A 
HETATM    3  N   UNL     1      41.380 -14.154   4.503  1.00  0.00    -0.177 N 
HETATM    4  C   UNL     1      41.511 -13.249   3.454  1.00  0.00     0.079 A 
HETATM    5  C   UNL     1      41.885 -12.034   4.033  1.00  0.00     0.079 A 
HETATM    6  C   UNL     1      41.330 -13.395   2.081  1.00  0.00     0.032 A 
HETATM    7  C   UNL     1      41.540 -12.245   1.308  1.00  0.00     0.002 A 
HETATM    8  C   UNL     1      41.912 -11.019   1.891  1.00  0.00     0.002 A 
HETATM    9  C   UNL     1      42.095 -10.886   3.275  1.00  0.00     0.032 A 
ENDROOT
BRANCH   1  10
HETATM   10  C   UNL     1      42.179 -11.230   6.425  1.00  0.00     0.184 C 
BRANCH  10  11
HETATM   11  C   UNL     1      43.671 -11.024   6.786  1.00  0.00     0.170 C 
BRANCH  11  12
HETATM   12  C   UNL     1      43.851 -10.342   8.126  1.00  0.00    -0.028 A 
HETATM   13  C   UNL     1      42.777  -9.653   8.703  1.00  0.00     0.012 A 
HETATM   14  C   UNL     1      42.898  -9.088   9.973  1.00  0.00     0.037 A 
HETATM   15  C   UNL     1      44.093  -9.192  10.687  1.00  0.00     0.068 A 
HETATM   16  C   UNL     1      45.176  -9.857  10.113  1.00  0.00     0.037 A 
HETATM   17  C   UNL     1      45.057 -10.428   8.840  1.00  0.00     0.012 A 
BRANCH  15  18
HETATM   18  O   UNL     1      44.063  -8.614  11.925  1.00  0.00    -0.356 OA
HETATM   19  C   UNL     1      42.905  -7.860  12.263  1.00  0.00     0.210 C 
ENDBRANCH  15  18
ENDBRANCH  11  12
BRANCH  11  20
HETATM   20  O   UNL     1      44.335 -12.287   6.791  1.00  0.00    -0.389 OA
HETATM   21  H   UNL     1      45.291 -12.110   6.709  1.00  0.00     0.210 HD
ENDBRANCH  11  20
ENDBRANCH  10  11
ENDBRANCH   1  10
BRANCH   2  22
HETATM   22  N   UNL     1      41.780 -14.151   6.825  1.00  0.00    -0.234 N 
HETATM   23  H   UNL     1      41.255 -14.987   7.027  1.00  0.00     0.174 HD
HETATM   24  H   UNL     1      42.340 -13.760   7.568  1.00  0.00     0.174 HD
ENDBRANCH   2  22
BRANCH   3  25
HETATM   25  C   UNL     1      40.879 -15.517   4.378  1.00  0.00     0.186 C 
BRANCH  25  26
HETATM   26  C   UNL     1      41.943 -16.480   3.912  1.00  0.00    -0.039 A 
HETATM   27  C   UNL     1      42.012 -17.001   2.611  1.00  0.00     0.009 A 
HETATM   28  C   UNL     1      43.009 -17.913   2.255  1.00  0.00     0.001 A 
HETATM   29  C   UNL     1      43.954 -18.317   3.194  1.00  0.00     0.000 A 
HETATM   30  C   UNL     1      43.906 -17.809   4.488  1.00  0.00     0.001 A 
HETATM   31  C   UNL     1      42.910 -16.897   4.845  1.00  0.00     0.009 A 
ENDBRANCH  25  26
ENDBRANCH   3  25
TORSDOF 8
ENDMDL
MODEL 7
REMARK VINA RESULT:      -7.5      2.695      7.146
REMARK  8 active torsions:
REMARK  status: ('A' for Active; 'I' for Inactive)
REMARK    1  A    between atoms: O_2  and  C_3 
REMARK    2  A    between atoms: C_6  and  C_7 
REMARK    3  A    between atoms: C_7  and  O_8 
REMARK    4  A    between atoms: C_7  and  C_9 
REMARK    5  A    between atoms: C_9  and  N_10 
REMARK    6  A    between atoms: C_11  and  N_12 
REMARK    7  A    between atoms: N_13  and  C_14 
REMARK    8  A    between atoms: C_14  and  C_15 
ROOT
HETATM    1  N   UNL     1      40.680 -13.583   2.560  1.00  0.00    -0.178 N 
HETATM    2  C   UNL     1      41.130 -13.589   1.309  1.00  0.00     0.681 A 
HETATM    3  N   UNL     1      40.724 -12.493   0.683  1.00  0.00    -0.177 N 
HETATM    4  C   UNL     1      40.053 -11.676   1.587  1.00  0.00     0.079 A 
HETATM    5  C   UNL     1      40.030 -12.373   2.798  1.00  0.00     0.079 A 
HETATM    6  C   UNL     1      39.475 -10.416   1.443  1.00  0.00     0.032 A 
HETATM    7  C   UNL     1      38.860  -9.888   2.585  1.00  0.00     0.002 A 
HETATM    8  C   UNL     1      38.831 -10.592   3.804  1.00  0.00     0.002 A 
HETATM    9  C   UNL     1      39.420 -11.858   3.938  1.00  0.00     0.032 A 
ENDROOT
BRANCH   1  10
HETATM   10  C   UNL     1      40.775 -14.693   3.519  1.00  0.00     0.184 C 
BRANCH  10  11
HETATM   11  C   UNL     1      42.080 -14.691   4.351  1.00  0.00     0.170 C 
BRANCH  11  12
HETATM   12  C   UNL     1      42.694 -16.071   4.462  1.00  0.00    -0.028 A 
HETATM   13  C   UNL     1      43.000 -16.790   3.299  1.00  0.00     0.012 A 
HETATM   14  C   UNL     1      43.640 -18.027   3.379  1.00  0.00     0.037 A 
HETATM   15  C   UNL     1      43.981 -18.573   4.616  1.00  0.00     0.068 A 
HETATM   16  C   UNL     1      43.663 -17.876   5.781  1.00  0.00     0.037 A 
HETATM   17  C   UNL     1      43.023 -16.633   5.706  1.00  0.00     0.012 A 
BRANCH  15  18
HETATM   18  O   UNL     1      44.625 -19.777   4.544  1.00  0.00    -0.356 OA
HETATM   19  C   UNL     1      44.126 -20.830   5.361  1.00  0.00     0.210 C 
ENDBRANCH  15  18
ENDBRANCH  11  12
BRANCH  11  20
HETATM   20  O   UNL     1      43.016 -13.789   3.762  1.00  0.00    -0.389 OA
HETATM   21  H   UNL     1      43.636 -13.517   4.464  1.00  0.00     0.210 HD
ENDBRANCH  11  20
ENDBRANCH  10  11
ENDBRANCH   1  10
BRANCH   2  22
HETATM   22  N   UNL     1      41.886 -14.541   0.764  1.00  0.00    -0.234 N 
HETATM   23  H   UNL     1      42.830 -14.356   0.465  1.00  0.00     0.174 HD
HETATM   24  H   UNL     1      41.516 -15.465   0.600  1.00  0.00     0.174 HD
ENDBRANCH   2  22
BRANCH   3  25
HETATM   25  C   UNL     1      40.872 -12.223  -0.741  1.00  0.00     0.186 C 
BRANCH  25  26
HETATM   26  C   UNL     1      39.750 -12.815  -1.559  1.00  0.00    -0.039 A 
HETATM   27  C   UNL     1      38.460 -12.266  -1.630  1.00  0.00     0.009 A 
HETATM   28  C   UNL     1      37.459 -12.884  -2.385  1.00  0.00     0.001 A 
HETATM   29  C   UNL     1      37.731 -14.058  -3.080  1.00  0.00     0.000 A 
HETATM   30  C   UNL     1      39.005 -14.616  -3.026  1.00  0.00     0.001 A 
HETATM   31  C   UNL     1      40.007 -14.000  -2.272  1.00  0.00     0.009 A 
ENDBRANCH  25  26
ENDBRANCH   3  25
TORSDOF 8
ENDMDL
MODEL 8
REMARK VINA RESULT:      -7.4      4.798      7.888
REMARK  8 active torsions:
REMARK  status: ('A' for Active; 'I' for Inactive)
REMARK    1  A    between atoms: O_2  and  C_3 
REMARK    2  A    between atoms: C_6  and  C_7 
REMARK    3  A    between atoms: C_7  and  O_8 
REMARK    4  A    between atoms: C_7  and  C_9 
REMARK    5  A    between atoms: C_9  and  N_10 
REMARK    6  A    between atoms: C_11  and  N_12 
REMARK    7  A    between atoms: N_13  and  C_14 
REMARK    8  A    between atoms: C_14  and  C_15 
ROOT
HETATM    1  N   UNL     1      43.010 -11.224   6.622  1.00  0.00    -0.178 N 
HETATM    2  C   UNL     1      42.033 -10.451   7.084  1.00  0.00     0.681 A 
HETATM    3  N   UNL     1      42.539  -9.520   7.881  1.00  0.00    -0.177 N 
HETATM    4  C   UNL     1      43.927  -9.620   7.872  1.00  0.00     0.079 A 
HETATM    5  C   UNL     1      44.232 -10.713   7.057  1.00  0.00     0.079 A 
HETATM    6  C   UNL     1      44.912  -8.864   8.502  1.00  0.00     0.032 A 
HETATM    7  C   UNL     1      46.235  -9.266   8.276  1.00  0.00     0.002 A 
HETATM    8  C   UNL     1      46.543 -10.370   7.458  1.00  0.00     0.002 A 
HETATM    9  C   UNL     1      45.542 -11.123   6.826  1.00  0.00     0.032 A 
ENDROOT
BRANCH   1  10
HETATM   10  C   UNL     1      42.841 -12.461   5.846  1.00  0.00     0.184 C 
BRANCH  10  11
HETATM   11  C   UNL     1      42.603 -13.719   6.718  1.00  0.00     0.170 C 
BRANCH  11  12
HETATM   12  C   UNL     1      42.987 -14.997   6.002  1.00  0.00    -0.028 A 
HETATM   13  C   UNL     1      44.105 -15.723   6.431  1.00  0.00     0.012 A 
HETATM   14  C   UNL     1      44.427 -16.944   5.837  1.00  0.00     0.037 A 
HETATM   15  C   UNL     1      43.647 -17.461   4.802  1.00  0.00     0.068 A 
HETATM   16  C   UNL     1      42.543 -16.736   4.353  1.00  0.00     0.037 A 
HETATM   17  C   UNL     1      42.214 -15.512   4.948  1.00  0.00     0.012 A 
BRANCH  15  18
HETATM   18  O   UNL     1      44.063 -18.674   4.332  1.00  0.00    -0.356 OA
HETATM   19  C   UNL     1      44.025 -18.873   2.924  1.00  0.00     0.210 C 
ENDBRANCH  15  18
ENDBRANCH  11  12
BRANCH  11  20
HETATM   20  O   UNL     1      43.345 -13.601   7.931  1.00  0.00    -0.389 OA
HETATM   21  H   UNL     1      43.924 -14.384   7.992  1.00  0.00     0.210 HD
ENDBRANCH  11  20
ENDBRANCH  10  11
ENDBRANCH   1  10
BRANCH   2  22
HETATM   22  N   UNL     1      40.740 -10.577   6.787  1.00  0.00    -0.234 N 
HETATM   23  H   UNL     1      40.176  -9.779   6.541  1.00  0.00     0.174 HD
HETATM   24  H   UNL     1      40.282 -11.475   6.838  1.00  0.00     0.174 HD
ENDBRANCH   2  22
BRANCH   3  25
HETATM   25  C   UNL     1      41.771  -8.597   8.707  1.00  0.00     0.186 C 
BRANCH  25  26
HETATM   26  C   UNL     1      41.485  -9.156  10.080  1.00  0.00    -0.039 A 
HETATM   27  C   UNL     1      42.474  -9.402  11.046  1.00  0.00     0.009 A 
HETATM   28  C   UNL     1      42.142  -9.948  12.288  1.00  0.00     0.001 A 
HETATM   29  C   UNL     1      40.817 -10.255  12.586  1.00  0.00     0.000 A 
HETATM   30  C   UNL     1      39.822 -10.015  11.644  1.00  0.00     0.001 A 
HETATM   31  C   UNL     1      40.151  -9.469  10.401  1.00  0.00     0.009 A 
ENDBRANCH  25  26
ENDBRANCH   3  25
TORSDOF 8
ENDMDL
MODEL 9
REMARK VINA RESULT:      -7.4      2.772      6.597
REMARK  8 active torsions:
REMARK  status: ('A' for Active; 'I' for Inactive)
REMARK    1  A    between atoms: O_2  and  C_3 
REMARK    2  A    between atoms: C_6  and  C_7 
REMARK    3  A    between atoms: C_7  and  O_8 
REMARK    4  A    between atoms: C_7  and  C_9 
REMARK    5  A    between atoms: C_9  and  N_10 
REMARK    6  A    between atoms: C_11  and  N_12 
REMARK    7  A    between atoms: N_13  and  C_14 
REMARK    8  A    between atoms: C_14  and  C_15 
ROOT
HETATM    1  N   UNL     1      41.451 -13.232   4.083  1.00  0.00    -0.178 N 
HETATM    2  C   UNL     1      41.635 -12.899   5.357  1.00  0.00     0.681 A 
HETATM    3  N   UNL     1      41.648 -11.578   5.475  1.00  0.00    -0.177 N 
HETATM    4  C   UNL     1      41.365 -11.009   4.238  1.00  0.00     0.079 A 
HETATM    5  C   UNL     1      41.232 -12.072   3.342  1.00  0.00     0.079 A 
HETATM    6  C   UNL     1      41.225  -9.680   3.842  1.00  0.00     0.032 A 
HETATM    7  C   UNL     1      40.948  -9.469   2.485  1.00  0.00     0.002 A 
HETATM    8  C   UNL     1      40.818 -10.541   1.580  1.00  0.00     0.002 A 
HETATM    9  C   UNL     1      40.957 -11.874   1.992  1.00  0.00     0.032 A 
ENDROOT
BRANCH   1  10
HETATM   10  C   UNL     1      41.541 -14.588   3.522  1.00  0.00     0.184 C 
BRANCH  10  11
HETATM   11  C   UNL     1      42.948 -14.952   2.986  1.00  0.00     0.170 C 
BRANCH  11  12
HETATM   12  C   UNL     1      43.275 -16.418   3.175  1.00  0.00    -0.028 A 
HETATM   13  C   UNL     1      43.695 -16.879   4.429  1.00  0.00     0.012 A 
HETATM   14  C   UNL     1      43.922 -18.239   4.644  1.00  0.00     0.037 A 
HETATM   15  C   UNL     1      43.743 -19.163   3.613  1.00  0.00     0.068 A 
HETATM   16  C   UNL     1      43.346 -18.712   2.354  1.00  0.00     0.037 A 
HETATM   17  C   UNL     1      43.114 -17.348   2.135  1.00  0.00     0.012 A 
BRANCH  15  18
HETATM   18  O   UNL     1      43.978 -20.460   3.969  1.00  0.00    -0.356 OA
HETATM   19  C   UNL     1      44.245 -20.719   5.343  1.00  0.00     0.210 C 
ENDBRANCH  15  18
ENDBRANCH  11  12
BRANCH  11  20
HETATM   20  O   UNL     1      43.030 -14.610   1.603  1.00  0.00    -0.389 OA
HETATM   21  H   UNL     1      42.916 -13.642   1.538  1.00  0.00     0.210 HD
ENDBRANCH  11  20
ENDBRANCH  10  11
ENDBRANCH   1  10
BRANCH   2  22
HETATM   22  N   UNL     1      41.772 -13.755   6.369  1.00  0.00    -0.234 N 
HETATM   23  H   UNL     1      42.626 -14.269   6.512  1.00  0.00     0.174 HD
HETATM   24  H   UNL     1      41.005 -13.937   6.999  1.00  0.00     0.174 HD
ENDBRANCH   2  22
BRANCH   3  25
HETATM   25  C   UNL     1      41.992 -10.836   6.681  1.00  0.00     0.186 C 
BRANCH  25  26
HETATM   26  C   UNL     1      43.480 -10.808   6.934  1.00  0.00    -0.039 A 
HETATM   27  C   UNL     1      44.436 -11.307   6.035  1.00  0.00     0.009 A 
HETATM   28  C   UNL     1      45.797 -11.276   6.347  1.00  0.00     0.001 A 
HETATM   29  C   UNL     1      46.226 -10.745   7.560  1.00  0.00     0.000 A 
HETATM   30  C   UNL     1      45.295 -10.242   8.463  1.00  0.00     0.001 A 
HETATM   31  C   UNL     1      43.933 -10.272   8.154  1.00  0.00     0.009 A 
ENDBRANCH  25  26
ENDBRANCH   3  25
TORSDOF 8
ENDMDL
MODEL 10
REMARK VINA RESULT:      -7.4      6.480     10.427
REMARK  8 active torsions:
REMARK  status: ('A' for Active; 'I' for Inactive)
REMARK    1  A    between atoms: O_2  and  C_3 
REMARK    2  A    between atoms: C_6  and  C_7 
REMARK    3  A    between atoms: C_7  and  O_8 
REMARK    4  A    between atoms: C_7  and  C_9 
REMARK    5  A    between atoms: C_9  and  N_10 
REMARK    6  A    between atoms: C_11  and  N_12 
REMARK    7  A    between atoms: N_13  and  C_14 
REMARK    8  A    between atoms: C_14  and  C_15 
ROOT
HETATM    1  N   UNL     1      42.568  -9.637   8.773  1.00  0.00    -0.178 N 
HETATM    2  C   UNL     1      41.694 -10.062   7.865  1.00  0.00     0.681 A 
HETATM    3  N   UNL     1      42.340 -10.608   6.844  1.00  0.00    -0.177 N 
HETATM    4  C   UNL     1      43.702 -10.633   7.129  1.00  0.00     0.079 A 
HETATM    5  C   UNL     1      43.849 -10.015   8.374  1.00  0.00     0.079 A 
HETATM    6  C   UNL     1      44.787 -11.130   6.412  1.00  0.00     0.032 A 
HETATM    7  C   UNL     1      46.045 -10.969   7.009  1.00  0.00     0.002 A 
HETATM    8  C   UNL     1      46.194 -10.341   8.261  1.00  0.00     0.002 A 
HETATM    9  C   UNL     1      45.093  -9.848   8.976  1.00  0.00     0.032 A 
ENDROOT
BRANCH   1  10
HETATM   10  C   UNL     1      42.257  -8.834   9.963  1.00  0.00     0.184 C 
BRANCH  10  11
HETATM   11  C   UNL     1      41.991  -9.675  11.235  1.00  0.00     0.170 C 
BRANCH  11  12
HETATM   12  C   UNL     1      42.116  -8.858  12.504  1.00  0.00    -0.028 A 
HETATM   13  C   UNL     1      41.234  -9.090  13.567  1.00  0.00     0.012 A 
HETATM   14  C   UNL     1      41.385  -8.404  14.774  1.00  0.00     0.037 A 
HETATM   15  C   UNL     1      42.409  -7.472  14.940  1.00  0.00     0.068 A 
HETATM   16  C   UNL     1      43.280  -7.218  13.881  1.00  0.00     0.037 A 
HETATM   17  C   UNL     1      43.135  -7.906  12.669  1.00  0.00     0.012 A 
BRANCH  15  18
HETATM   18  O   UNL     1      42.453  -6.895  16.178  1.00  0.00    -0.356 OA
HETATM   19  C   UNL     1      41.508  -7.349  17.140  1.00  0.00     0.210 C 
ENDBRANCH  15  18
ENDBRANCH  11  12
BRANCH  11  20
HETATM   20  O   UNL     1      40.688 -10.252  11.156  1.00  0.00    -0.389 OA
HETATM   21  H   UNL     1      40.522 -10.706  12.004  1.00  0.00     0.210 HD
ENDBRANCH  11  20
ENDBRANCH  10  11
ENDBRANCH   1  10
BRANCH   2  22
HETATM   22  N   UNL     1      40.369  -9.969   7.964  1.00  0.00    -0.234 N 
HETATM   23  H   UNL     1      39.787  -9.841   7.152  1.00  0.00     0.174 HD
HETATM   24  H   UNL     1      39.915  -9.988   8.865  1.00  0.00     0.174 HD
ENDBRANCH   2  22
BRANCH   3  25
HETATM   25  C   UNL     1      41.740 -11.031   5.585  1.00  0.00     0.186 C 
BRANCH  25  26
HETATM   26  C   UNL     1      41.487 -12.518   5.540  1.00  0.00    -0.039 A 
HETATM   27  C   UNL     1      40.406 -13.147   6.177  1.00  0.00     0.009 A 
HETATM   28  C   UNL     1      40.247 -14.534   6.118  1.00  0.00     0.001 A 
HETATM   29  C   UNL     1      41.166 -15.314   5.421  1.00  0.00     0.000 A 
HETATM   30  C   UNL     1      42.242 -14.710   4.780  1.00  0.00     0.001 A 
HETATM   31  C   UNL     1      42.402 -13.323   4.837  1.00  0.00     0.009 A 
ENDBRANCH  25  26
ENDBRANCH   3  25
TORSDOF 8
ENDMDL
