MODEL 1
REMARK VINA RESULT:     -10.5      0.000      0.000
REMARK  7 active torsions:
REMARK  status: ('A' for Active; 'I' for Inactive)
REMARK    1  A    between atoms: C_6  and  N_7 
REMARK       I    between atoms: N_7  and  C_8 
REMARK    2  A    between atoms: C_8  and  C_9 
REMARK    3  A    between atoms: C_9  and  N_10 
REMARK    4  A    between atoms: N_13  and  C_14 
REMARK    5  A    between atoms: C_14  and  C_15 
REMARK    6  A    between atoms: C_30  and  C_31 
REMARK       I    between atoms: C_31  and  N_32 
REMARK    7  A    between atoms: N_32  and  C_33 
ROOT
HETATM    1  N   UNL     1      42.251 -11.050   4.826  1.00  0.00    -0.290 N 
HETATM    2  C   UNL     1      42.540 -10.944   3.475  1.00  0.00     0.332 C 
HETATM    3  O   UNL     1      43.583 -11.426   3.020  1.00  0.00    -0.246 OA
HETATM    4  N   UNL     1      41.614 -10.289   2.681  1.00  0.00    -0.261 N 
HETATM    5  C   UNL     1      40.519  -9.590   3.165  1.00  0.00     0.264 C 
HETATM    6  O   UNL     1      39.696  -9.018   2.454  1.00  0.00    -0.267 OA
HETATM    7  C   UNL     1      40.348  -9.556   4.628  1.00  0.00     0.059 A 
HETATM    8  C   UNL     1      41.209 -10.303   5.433  1.00  0.00     0.056 A 
HETATM    9  C   UNL     1      39.298  -8.809   5.184  1.00  0.00     0.020 A 
HETATM   10  C   UNL     1      39.093  -8.806   6.563  1.00  0.00     0.018 A 
HETATM   11  C   UNL     1      39.942  -9.553   7.383  1.00  0.00     0.034 A 
HETATM   12  C   UNL     1      41.006 -10.280   6.819  1.00  0.00     0.048 A 
ENDROOT
BRANCH   1  13
HETATM   13  C   UNL     1      42.986 -12.065   5.585  1.00  0.00     0.237 C 
BRANCH  13  14
HETATM   14  C   UNL     1      42.531 -13.508   5.363  1.00  0.00     0.240 C 
HETATM   15  N   UNL     1      43.494 -14.297   4.760  1.00  0.00    -0.325 N 
HETATM   16  H   UNL     1      44.431 -13.897   4.716  1.00  0.00     0.169 HD
HETATM   17  O   UNL     1      41.387 -13.844   5.653  1.00  0.00    -0.271 OA
BRANCH  15  18
HETATM   18  C   UNL     1      43.313 -15.549   4.129  1.00  0.00     0.040 A 
HETATM   19  C   UNL     1      43.732 -16.719   4.796  1.00  0.00    -0.035 A 
HETATM   20  C   UNL     1      43.669 -17.956   4.128  1.00  0.00     0.015 A 
HETATM   21  C   UNL     1      44.260 -16.695   6.206  1.00  0.00     0.050 C 
HETATM   22  C   UNL     1      43.181 -18.051   2.820  1.00  0.00    -0.061 A 
HETATM   23  C   UNL     1      43.157 -19.363   2.093  1.00  0.00     0.048 C 
HETATM   24  C   UNL     1      42.739 -16.893   2.182  1.00  0.00     0.009 A 
HETATM   25  C   UNL     1      42.801 -15.657   2.832  1.00  0.00     0.030 A 
ENDBRANCH  15  18
ENDBRANCH  13  14
ENDBRANCH   1  13
BRANCH   4  26
HETATM   26  C   UNL     1      41.761 -10.418   1.236  1.00  0.00     0.175 C 
BRANCH  26  27
HETATM   27  C   UNL     1      41.169 -11.730   0.749  1.00  0.00    -0.037 A 
HETATM   28  C   UNL     1      40.988 -11.961  -0.626  1.00  0.00     0.048 A 
HETATM   29  C   UNL     1      40.346 -13.120  -1.010  1.00  0.00     0.105 A 
HETATM   30  C   UNL     1      39.897 -14.040  -0.092  1.00  0.00     0.105 A 
HETATM   31  O   UNL     1      40.057 -13.481  -2.289  1.00  0.00    -0.323 OA
HETATM   32  O   UNL     1      39.272 -15.096  -0.678  1.00  0.00    -0.323 OA
HETATM   33  C   UNL     1      40.072 -13.860   1.261  1.00  0.00     0.040 A 
HETATM   34  C   UNL     1      39.359 -14.725  -2.069  1.00  0.00     0.352 A 
HETATM   35  C   UNL     1      40.712 -12.691   1.683  1.00  0.00     0.012 A 
ENDBRANCH  26  27
ENDBRANCH   4  26
BRANCH  11  36
HETATM   36  C   UNL     1      39.773  -9.599   8.861  1.00  0.00     0.252 C 
HETATM   37  N   UNL     1      40.933  -9.573   9.600  1.00  0.00    -0.352 N 
HETATM   38  H   UNL     1      41.793  -9.391   9.102  1.00  0.00     0.163 HD
HETATM   39  O   UNL     1      38.642  -9.610   9.320  1.00  0.00    -0.268 OA
BRANCH  37  40
HETATM   40  C   UNL     1      41.025  -9.447  11.057  1.00  0.00     0.084 C 
HETATM   41  C   UNL     1      42.300 -10.078  11.631  1.00  0.00     0.025 C 
HETATM   42  C   UNL     1      43.479  -9.120  11.758  1.00  0.00     0.002 C 
HETATM   43  C   UNL     1      43.087  -7.849  12.499  1.00  0.00     0.000 C 
HETATM   44  C   UNL     1      41.921  -7.135  11.830  1.00  0.00     0.002 C 
HETATM   45  C   UNL     1      40.716  -8.047  11.608  1.00  0.00     0.025 C 
ENDBRANCH  37  40
ENDBRANCH  11  36
TORSDOF 7
ENDMDL
MODEL 2
REMARK VINA RESULT:     -10.1      2.042      2.715
REMARK  7 active torsions:
REMARK  status: ('A' for Active; 'I' for Inactive)
REMARK    1  A    between atoms: C_6  and  N_7 
REMARK       I    between atoms: N_7  and  C_8 
REMARK    2  A    between atoms: C_8  and  C_9 
REMARK    3  A    between atoms: C_9  and  N_10 
REMARK    4  A    between atoms: N_13  and  C_14 
REMARK    5  A    between atoms: C_14  and  C_15 
REMARK    6  A    between atoms: C_30  and  C_31 
REMARK       I    between atoms: C_31  and  N_32 
REMARK    7  A    between atoms: N_32  and  C_33 
ROOT
HETATM    1  N   UNL     1      41.419 -12.124   3.707  1.00  0.00    -0.290 N 
HETATM    2  C   UNL     1      41.117 -12.523   2.415  1.00  0.00     0.332 C 
HETATM    3  O   UNL     1      41.949 -13.139   1.741  1.00  0.00    -0.246 OA
HETATM    4  N   UNL     1      39.857 -12.206   1.935  1.00  0.00    -0.261 N 
HETATM    5  C   UNL     1      38.956 -11.377   2.583  1.00  0.00     0.264 C 
HETATM    6  O   UNL     1      37.835 -11.107   2.155  1.00  0.00    -0.267 OA
HETATM    7  C   UNL     1      39.387 -10.807   3.872  1.00  0.00     0.059 A 
HETATM    8  C   UNL     1      40.605 -11.206   4.420  1.00  0.00     0.056 A 
HETATM    9  C   UNL     1      38.546  -9.907   4.546  1.00  0.00     0.020 A 
HETATM   10  C   UNL     1      38.917  -9.397   5.789  1.00  0.00     0.018 A 
HETATM   11  C   UNL     1      40.133  -9.790   6.354  1.00  0.00     0.034 A 
HETATM   12  C   UNL     1      40.979 -10.673   5.661  1.00  0.00     0.048 A 
ENDROOT
BRANCH   1  13
HETATM   13  C   UNL     1      42.549 -12.789   4.360  1.00  0.00     0.237 C 
BRANCH  13  14
HETATM   14  C   UNL     1      42.395 -14.296   4.566  1.00  0.00     0.240 C 
HETATM   15  N   UNL     1      43.376 -15.036   3.932  1.00  0.00    -0.325 N 
HETATM   16  H   UNL     1      44.174 -14.507   3.581  1.00  0.00     0.169 HD
HETATM   17  O   UNL     1      41.431 -14.737   5.187  1.00  0.00    -0.271 OA
BRANCH  15  18
HETATM   18  C   UNL     1      43.362 -16.420   3.645  1.00  0.00     0.040 A 
HETATM   19  C   UNL     1      43.967 -17.314   4.552  1.00  0.00    -0.035 A 
HETATM   20  C   UNL     1      44.067 -18.679   4.217  1.00  0.00     0.015 A 
HETATM   21  C   UNL     1      44.527 -16.862   5.875  1.00  0.00     0.050 C 
HETATM   22  C   UNL     1      43.561 -19.168   3.008  1.00  0.00    -0.061 A 
HETATM   23  C   UNL     1      43.707 -20.612   2.632  1.00  0.00     0.048 C 
HETATM   24  C   UNL     1      42.935 -18.280   2.133  1.00  0.00     0.009 A 
HETATM   25  C   UNL     1      42.834 -16.923   2.451  1.00  0.00     0.030 A 
ENDBRANCH  15  18
ENDBRANCH  13  14
ENDBRANCH   1  13
BRANCH   4  26
HETATM   26  C   UNL     1      39.427 -12.858   0.703  1.00  0.00     0.175 C 
BRANCH  26  27
HETATM   27  C   UNL     1      39.947 -12.108  -0.513  1.00  0.00    -0.037 A 
HETATM   28  C   UNL     1      39.710 -10.730  -0.652  1.00  0.00     0.048 A 
HETATM   29  C   UNL     1      40.106 -10.119  -1.824  1.00  0.00     0.105 A 
HETATM   30  C   UNL     1      40.726 -10.817  -2.834  1.00  0.00     0.105 A 
HETATM   31  O   UNL     1      39.922  -8.808  -2.137  1.00  0.00    -0.323 OA
HETATM   32  O   UNL     1      41.010 -10.034  -3.908  1.00  0.00    -0.323 OA
HETATM   33  C   UNL     1      40.993 -12.163  -2.728  1.00  0.00     0.040 A 
HETATM   34  C   UNL     1      40.479  -8.767  -3.468  1.00  0.00     0.352 A 
HETATM   35  C   UNL     1      40.595 -12.813  -1.555  1.00  0.00     0.012 A 
ENDBRANCH  26  27
ENDBRANCH   4  26
BRANCH  11  36
HETATM   36  C   UNL     1      40.584  -9.288   7.681  1.00  0.00     0.252 C 
HETATM   37  N   UNL     1      41.944  -9.261   7.882  1.00  0.00    -0.352 N 
HETATM   38  H   UNL     1      42.533  -9.449   7.082  1.00  0.00     0.163 HD
HETATM   39  O   UNL     1      39.743  -8.898   8.475  1.00  0.00    -0.268 OA
BRANCH  37  40
HETATM   40  C   UNL     1      42.635  -8.665   9.028  1.00  0.00     0.084 C 
HETATM   41  C   UNL     1      42.681  -9.595  10.247  1.00  0.00     0.025 C 
HETATM   42  C   UNL     1      43.921 -10.480  10.322  1.00  0.00     0.002 C 
HETATM   43  C   UNL     1      45.198  -9.663  10.179  1.00  0.00     0.000 C 
HETATM   44  C   UNL     1      45.221  -8.863   8.884  1.00  0.00     0.002 C 
HETATM   45  C   UNL     1      43.978  -7.994   8.701  1.00  0.00     0.025 C 
ENDBRANCH  37  40
ENDBRANCH  11  36
TORSDOF 7
ENDMDL
MODEL 3
REMARK VINA RESULT:     -10.0      2.733      8.340
REMARK  7 active torsions:
REMARK  status: ('A' for Active; 'I' for Inactive)
REMARK    1  A    between atoms: C_6  and  N_7 
REMARK       I    between atoms: N_7  and  C_8 
REMARK    2  A    between atoms: C_8  and  C_9 
REMARK    3  A    between atoms: C_9  and  N_10 
REMARK    4  A    between atoms: N_13  and  C_14 
REMARK    5  A    between atoms: C_14  and  C_15 
REMARK    6  A    between atoms: C_30  and  C_31 
REMARK       I    between atoms: C_31  and  N_32 
REMARK    7  A    between atoms: N_32  and  C_33 
ROOT
HETATM    1  N   UNL     1      39.541 -11.508   3.917  1.00  0.00    -0.290 N 
HETATM    2  C   UNL     1      39.674 -11.311   5.282  1.00  0.00     0.332 C 
HETATM    3  O   UNL     1      39.268 -12.164   6.078  1.00  0.00    -0.246 OA
HETATM    4  N   UNL     1      40.279 -10.135   5.694  1.00  0.00    -0.261 N 
HETATM    5  C   UNL     1      40.598  -9.080   4.854  1.00  0.00     0.264 C 
HETATM    6  O   UNL     1      41.144  -8.043   5.225  1.00  0.00    -0.267 OA
HETATM    7  C   UNL     1      40.262  -9.242   3.428  1.00  0.00     0.059 A 
HETATM    8  C   UNL     1      39.755 -10.463   2.982  1.00  0.00     0.056 A 
HETATM    9  C   UNL     1      40.498  -8.183   2.538  1.00  0.00     0.020 A 
HETATM   10  C   UNL     1      40.231  -8.338   1.178  1.00  0.00     0.018 A 
HETATM   11  C   UNL     1      39.728  -9.555   0.713  1.00  0.00     0.034 A 
HETATM   12  C   UNL     1      39.472 -10.603   1.617  1.00  0.00     0.048 A 
ENDROOT
BRANCH   1  13
HETATM   13  C   UNL     1      39.292 -12.879   3.465  1.00  0.00     0.237 C 
BRANCH  13  14
HETATM   14  C   UNL     1      40.541 -13.727   3.223  1.00  0.00     0.240 C 
HETATM   15  N   UNL     1      40.342 -15.073   3.471  1.00  0.00    -0.325 N 
HETATM   16  H   UNL     1      39.372 -15.365   3.588  1.00  0.00     0.169 HD
HETATM   17  O   UNL     1      41.599 -13.189   2.908  1.00  0.00    -0.271 OA
BRANCH  15  18
HETATM   18  C   UNL     1      41.327 -16.070   3.661  1.00  0.00     0.040 A 
HETATM   19  C   UNL     1      41.810 -16.315   4.963  1.00  0.00    -0.035 A 
HETATM   20  C   UNL     1      42.876 -17.217   5.147  1.00  0.00     0.015 A 
HETATM   21  C   UNL     1      41.233 -15.636   6.177  1.00  0.00     0.050 C 
HETATM   22  C   UNL     1      43.454 -17.889   4.065  1.00  0.00    -0.061 A 
HETATM   23  C   UNL     1      44.618 -18.814   4.256  1.00  0.00     0.048 C 
HETATM   24  C   UNL     1      42.946 -17.663   2.785  1.00  0.00     0.009 A 
HETATM   25  C   UNL     1      41.891 -16.767   2.588  1.00  0.00     0.030 A 
ENDBRANCH  15  18
ENDBRANCH  13  14
ENDBRANCH   1  13
BRANCH   4  26
HETATM   26  C   UNL     1      40.680 -10.044   7.093  1.00  0.00     0.175 C 
BRANCH  26  27
HETATM   27  C   UNL     1      42.176 -10.268   7.241  1.00  0.00    -0.037 A 
HETATM   28  C   UNL     1      42.984  -9.292   7.849  1.00  0.00     0.048 A 
HETATM   29  C   UNL     1      44.348  -9.493   7.859  1.00  0.00     0.105 A 
HETATM   30  C   UNL     1      44.921 -10.615   7.307  1.00  0.00     0.105 A 
HETATM   31  O   UNL     1      45.273  -8.637   8.370  1.00  0.00    -0.323 OA
HETATM   32  O   UNL     1      46.277 -10.606   7.402  1.00  0.00    -0.323 OA
HETATM   33  C   UNL     1      44.164 -11.603   6.720  1.00  0.00     0.040 A 
HETATM   34  C   UNL     1      46.495  -9.340   8.058  1.00  0.00     0.352 A 
HETATM   35  C   UNL     1      42.777 -11.423   6.686  1.00  0.00     0.012 A 
ENDBRANCH  26  27
ENDBRANCH   4  26
BRANCH  11  36
HETATM   36  C   UNL     1      39.429  -9.788  -0.726  1.00  0.00     0.252 C 
HETATM   37  N   UNL     1      39.736 -11.038  -1.209  1.00  0.00    -0.352 N 
HETATM   38  H   UNL     1      40.008 -11.739  -0.534  1.00  0.00     0.163 HD
HETATM   39  O   UNL     1      38.901  -8.892  -1.365  1.00  0.00    -0.268 OA
BRANCH  37  40
HETATM   40  C   UNL     1      39.391 -11.559  -2.534  1.00  0.00     0.084 C 
HETATM   41  C   UNL     1      40.420 -12.567  -3.066  1.00  0.00     0.025 C 
HETATM   42  C   UNL     1      40.113 -14.021  -2.727  1.00  0.00     0.002 C 
HETATM   43  C   UNL     1      38.691 -14.398  -3.118  1.00  0.00     0.000 C 
HETATM   44  C   UNL     1      37.659 -13.494  -2.457  1.00  0.00     0.002 C 
HETATM   45  C   UNL     1      37.932 -12.010  -2.696  1.00  0.00     0.025 C 
ENDBRANCH  37  40
ENDBRANCH  11  36
TORSDOF 7
ENDMDL
MODEL 4
REMARK VINA RESULT:      -9.9      3.297     10.675
REMARK  7 active torsions:
REMARK  status: ('A' for Active; 'I' for Inactive)
REMARK    1  A    between atoms: C_6  and  N_7 
REMARK       I    between atoms: N_7  and  C_8 
REMARK    2  A    between atoms: C_8  and  C_9 
REMARK    3  A    between atoms: C_9  and  N_10 
REMARK    4  A    between atoms: N_13  and  C_14 
REMARK    5  A    between atoms: C_14  and  C_15 
REMARK    6  A    between atoms: C_30  and  C_31 
REMARK       I    between atoms: C_31  and  N_32 
REMARK    7  A    between atoms: N_32  and  C_33 
ROOT
HETATM    1  N   UNL     1      41.771  -9.739   6.825  1.00  0.00    -0.290 N 
HETATM    2  C   UNL     1      42.382  -8.586   7.292  1.00  0.00     0.332 C 
HETATM    3  O   UNL     1      41.824  -7.491   7.170  1.00  0.00    -0.246 OA
HETATM    4  N   UNL     1      43.621  -8.729   7.894  1.00  0.00    -0.261 N 
HETATM    5  C   UNL     1      44.359  -9.902   7.904  1.00  0.00     0.264 C 
HETATM    6  O   UNL     1      45.454 -10.023   8.449  1.00  0.00    -0.267 OA
HETATM    7  C   UNL     1      43.764 -11.066   7.224  1.00  0.00     0.059 A 
HETATM    8  C   UNL     1      42.471 -10.968   6.712  1.00  0.00     0.056 A 
HETATM    9  C   UNL     1      44.490 -12.264   7.142  1.00  0.00     0.020 A 
HETATM   10  C   UNL     1      43.922 -13.389   6.545  1.00  0.00     0.018 A 
HETATM   11  C   UNL     1      42.626 -13.310   6.031  1.00  0.00     0.034 A 
HETATM   12  C   UNL     1      41.915 -12.098   6.096  1.00  0.00     0.048 A 
ENDROOT
BRANCH   1  13
HETATM   13  C   UNL     1      40.330  -9.670   6.571  1.00  0.00     0.237 C 
BRANCH  13  14
HETATM   14  C   UNL     1      39.449  -9.550   7.814  1.00  0.00     0.240 C 
HETATM   15  N   UNL     1      39.512  -8.302   8.409  1.00  0.00    -0.325 N 
HETATM   16  H   UNL     1      39.964  -7.572   7.860  1.00  0.00     0.169 HD
HETATM   17  O   UNL     1      38.828 -10.525   8.226  1.00  0.00    -0.271 OA
BRANCH  15  18
HETATM   18  C   UNL     1      39.100  -7.946   9.713  1.00  0.00     0.040 A 
HETATM   19  C   UNL     1      38.709  -6.616   9.969  1.00  0.00    -0.035 A 
HETATM   20  C   UNL     1      38.415  -6.222  11.288  1.00  0.00     0.015 A 
HETATM   21  C   UNL     1      38.602  -5.585   8.876  1.00  0.00     0.050 C 
HETATM   22  C   UNL     1      38.485  -7.130  12.350  1.00  0.00    -0.061 A 
HETATM   23  C   UNL     1      38.215  -6.699  13.761  1.00  0.00     0.048 C 
HETATM   24  C   UNL     1      38.841  -8.451  12.081  1.00  0.00     0.009 A 
HETATM   25  C   UNL     1      39.141  -8.854  10.776  1.00  0.00     0.030 A 
ENDBRANCH  15  18
ENDBRANCH  13  14
ENDBRANCH   1  13
BRANCH   4  26
HETATM   26  C   UNL     1      44.140  -7.584   8.635  1.00  0.00     0.175 C 
BRANCH  26  27
HETATM   27  C   UNL     1      43.534  -7.526  10.028  1.00  0.00    -0.037 A 
HETATM   28  C   UNL     1      43.621  -8.635  10.887  1.00  0.00     0.048 A 
HETATM   29  C   UNL     1      42.960  -8.571  12.096  1.00  0.00     0.105 A 
HETATM   30  C   UNL     1      42.243  -7.461  12.475  1.00  0.00     0.105 A 
HETATM   31  O   UNL     1      42.909  -9.563  13.026  1.00  0.00    -0.323 OA
HETATM   32  O   UNL     1      41.652  -7.613  13.690  1.00  0.00    -0.323 OA
HETATM   33  C   UNL     1      42.151  -6.348  11.671  1.00  0.00     0.040 A 
HETATM   34  C   UNL     1      42.061  -8.956  14.024  1.00  0.00     0.352 A 
HETATM   35  C   UNL     1      42.802  -6.385  10.434  1.00  0.00     0.012 A 
ENDBRANCH  26  27
ENDBRANCH   4  26
BRANCH  11  36
HETATM   36  C   UNL     1      41.959 -14.475   5.388  1.00  0.00     0.252 C 
HETATM   37  N   UNL     1      42.777 -15.532   5.065  1.00  0.00    -0.352 N 
HETATM   38  H   UNL     1      43.728 -15.500   5.404  1.00  0.00     0.163 HD
HETATM   39  O   UNL     1      40.749 -14.443   5.232  1.00  0.00    -0.268 OA
BRANCH  37  40
HETATM   40  C   UNL     1      42.341 -16.843   4.579  1.00  0.00     0.084 C 
HETATM   41  C   UNL     1      42.047 -16.854   3.073  1.00  0.00     0.025 C 
HETATM   42  C   UNL     1      43.235 -17.242   2.200  1.00  0.00     0.002 C 
HETATM   43  C   UNL     1      43.869 -18.545   2.667  1.00  0.00     0.000 C 
HETATM   44  C   UNL     1      44.309 -18.475   4.122  1.00  0.00     0.002 C 
HETATM   45  C   UNL     1      43.188 -18.030   5.060  1.00  0.00     0.025 C 
ENDBRANCH  37  40
ENDBRANCH  11  36
TORSDOF 7
ENDMDL
MODEL 5
REMARK VINA RESULT:      -9.9      3.421      7.779
REMARK  7 active torsions:
REMARK  status: ('A' for Active; 'I' for Inactive)
REMARK    1  A    between atoms: C_6  and  N_7 
REMARK       I    between atoms: N_7  and  C_8 
REMARK    2  A    between atoms: C_8  and  C_9 
REMARK    3  A    between atoms: C_9  and  N_10 
REMARK    4  A    between atoms: N_13  and  C_14 
REMARK    5  A    between atoms: C_14  and  C_15 
REMARK    6  A    between atoms: C_30  and  C_31 
REMARK       I    between atoms: C_31  and  N_32 
REMARK    7  A    between atoms: N_32  and  C_33 
ROOT
HETATM    1  N   UNL     1      42.979 -12.143   6.369  1.00  0.00    -0.290 N 
HETATM    2  C   UNL     1      43.388 -13.420   6.719  1.00  0.00     0.332 C 
HETATM    3  O   UNL     1      44.578 -13.652   6.951  1.00  0.00    -0.246 OA
HETATM    4  N   UNL     1      42.409 -14.396   6.798  1.00  0.00    -0.261 N 
HETATM    5  C   UNL     1      41.096 -14.227   6.387  1.00  0.00     0.264 C 
HETATM    6  O   UNL     1      40.230 -15.096   6.468  1.00  0.00    -0.267 OA
HETATM    7  C   UNL     1      40.739 -12.909   5.833  1.00  0.00     0.059 A 
HETATM    8  C   UNL     1      41.684 -11.883   5.851  1.00  0.00     0.056 A 
HETATM    9  C   UNL     1      39.443 -12.696   5.338  1.00  0.00     0.020 A 
HETATM   10  C   UNL     1      39.074 -11.440   4.856  1.00  0.00     0.018 A 
HETATM   11  C   UNL     1      40.007 -10.400   4.872  1.00  0.00     0.034 A 
HETATM   12  C   UNL     1      41.310 -10.630   5.348  1.00  0.00     0.048 A 
ENDROOT
BRANCH   1  13
HETATM   13  C   UNL     1      43.897 -11.044   6.676  1.00  0.00     0.237 C 
BRANCH  13  14
HETATM   14  C   UNL     1      44.108 -10.760   8.164  1.00  0.00     0.240 C 
HETATM   15  N   UNL     1      42.994 -10.215   8.778  1.00  0.00    -0.325 N 
HETATM   16  H   UNL     1      42.129 -10.249   8.240  1.00  0.00     0.169 HD
HETATM   17  O   UNL     1      45.205 -10.956   8.679  1.00  0.00    -0.271 OA
BRANCH  15  18
HETATM   18  C   UNL     1      42.936  -9.547  10.022  1.00  0.00     0.040 A 
HETATM   19  C   UNL     1      42.929  -8.137  10.043  1.00  0.00    -0.035 A 
HETATM   20  C   UNL     1      42.995  -7.462  11.277  1.00  0.00     0.015 A 
HETATM   21  C   UNL     1      42.864  -7.314   8.783  1.00  0.00     0.050 C 
HETATM   22  C   UNL     1      43.049  -8.164  12.486  1.00  0.00    -0.061 A 
HETATM   23  C   UNL     1      43.165  -7.446  13.798  1.00  0.00     0.048 C 
HETATM   24  C   UNL     1      43.022  -9.558  12.455  1.00  0.00     0.009 A 
HETATM   25  C   UNL     1      42.962 -10.240  11.237  1.00  0.00     0.030 A 
ENDBRANCH  15  18
ENDBRANCH  13  14
ENDBRANCH   1  13
BRANCH   4  26
HETATM   26  C   UNL     1      42.773 -15.658   7.433  1.00  0.00     0.175 C 
BRANCH  26  27
HETATM   27  C   UNL     1      43.079 -16.718   6.389  1.00  0.00    -0.037 A 
HETATM   28  C   UNL     1      43.183 -18.070   6.758  1.00  0.00     0.048 A 
HETATM   29  C   UNL     1      43.571 -18.978   5.795  1.00  0.00     0.105 A 
HETATM   30  C   UNL     1      43.841 -18.595   4.502  1.00  0.00     0.105 A 
HETATM   31  O   UNL     1      43.757 -20.311   5.990  1.00  0.00    -0.323 OA
HETATM   32  O   UNL     1      44.228 -19.638   3.721  1.00  0.00    -0.323 OA
HETATM   33  C   UNL     1      43.731 -17.284   4.096  1.00  0.00     0.040 A 
HETATM   34  C   UNL     1      44.193 -20.719   4.676  1.00  0.00     0.352 A 
HETATM   35  C   UNL     1      43.349 -16.338   5.052  1.00  0.00     0.012 A 
ENDBRANCH  26  27
ENDBRANCH   4  26
BRANCH  11  36
HETATM   36  C   UNL     1      39.675  -9.035   4.379  1.00  0.00     0.252 C 
HETATM   37  N   UNL     1      40.324  -7.997   5.003  1.00  0.00    -0.352 N 
HETATM   38  H   UNL     1      41.068  -8.236   5.645  1.00  0.00     0.163 HD
HETATM   39  O   UNL     1      38.900  -8.925   3.442  1.00  0.00    -0.268 OA
BRANCH  37  40
HETATM   40  C   UNL     1      40.292  -6.590   4.597  1.00  0.00     0.084 C 
HETATM   41  C   UNL     1      39.077  -5.835   5.153  1.00  0.00     0.025 C 
HETATM   42  C   UNL     1      39.319  -5.148   6.492  1.00  0.00     0.002 C 
HETATM   43  C   UNL     1      40.565  -4.273   6.453  1.00  0.00     0.000 C 
HETATM   44  C   UNL     1      41.804  -5.064   6.057  1.00  0.00     0.002 C 
HETATM   45  C   UNL     1      41.621  -5.837   4.752  1.00  0.00     0.025 C 
ENDBRANCH  37  40
ENDBRANCH  11  36
TORSDOF 7
ENDMDL
MODEL 6
REMARK VINA RESULT:      -9.7      2.437      6.419
REMARK  7 active torsions:
REMARK  status: ('A' for Active; 'I' for Inactive)
REMARK    1  A    between atoms: C_6  and  N_7 
REMARK       I    between atoms: N_7  and  C_8 
REMARK    2  A    between atoms: C_8  and  C_9 
REMARK    3  A    between atoms: C_9  and  N_10 
REMARK    4  A    between atoms: N_13  and  C_14 
REMARK    5  A    between atoms: C_14  and  C_15 
REMARK    6  A    between atoms: C_30  and  C_31 
REMARK       I    between atoms: C_31  and  N_32 
REMARK    7  A    between atoms: N_32  and  C_33 
ROOT
HETATM    1  N   UNL     1      40.567 -11.317   4.877  1.00  0.00    -0.290 N 
HETATM    2  C   UNL     1      39.713 -11.994   4.022  1.00  0.00     0.332 C 
HETATM    3  O   UNL     1      38.627 -11.499   3.704  1.00  0.00    -0.246 OA
HETATM    4  N   UNL     1      40.138 -13.224   3.549  1.00  0.00    -0.261 N 
HETATM    5  C   UNL     1      41.263 -13.894   4.003  1.00  0.00     0.264 C 
HETATM    6  O   UNL     1      41.639 -14.982   3.573  1.00  0.00    -0.267 OA
HETATM    7  C   UNL     1      42.047 -13.232   5.061  1.00  0.00     0.059 A 
HETATM    8  C   UNL     1      41.695 -11.945   5.466  1.00  0.00     0.056 A 
HETATM    9  C   UNL     1      43.160 -13.889   5.610  1.00  0.00     0.020 A 
HETATM   10  C   UNL     1      43.941 -13.256   6.576  1.00  0.00     0.018 A 
HETATM   11  C   UNL     1      43.605 -11.965   6.990  1.00  0.00     0.034 A 
HETATM   12  C   UNL     1      42.475 -11.324   6.451  1.00  0.00     0.048 A 
ENDROOT
BRANCH   1  13
HETATM   13  C   UNL     1      40.333  -9.881   5.051  1.00  0.00     0.237 C 
BRANCH  13  14
HETATM   14  C   UNL     1      39.492  -9.496   6.269  1.00  0.00     0.240 C 
HETATM   15  N   UNL     1      40.221  -8.854   7.254  1.00  0.00    -0.325 N 
HETATM   16  H   UNL     1      41.153  -8.542   6.984  1.00  0.00     0.169 HD
HETATM   17  O   UNL     1      38.309  -9.819   6.328  1.00  0.00    -0.271 OA
BRANCH  15  18
HETATM   18  C   UNL     1      39.857  -8.654   8.605  1.00  0.00     0.040 A 
HETATM   19  C   UNL     1      39.702  -7.337   9.085  1.00  0.00    -0.035 A 
HETATM   20  C   UNL     1      39.461  -7.123  10.455  1.00  0.00     0.015 A 
HETATM   21  C   UNL     1      39.796  -6.135   8.181  1.00  0.00     0.050 C 
HETATM   22  C   UNL     1      39.353  -8.194  11.349  1.00  0.00    -0.061 A 
HETATM   23  C   UNL     1      39.141  -7.964  12.816  1.00  0.00     0.048 C 
HETATM   24  C   UNL     1      39.475  -9.493  10.858  1.00  0.00     0.009 A 
HETATM   25  C   UNL     1      39.720  -9.719   9.500  1.00  0.00     0.030 A 
ENDBRANCH  15  18
ENDBRANCH  13  14
ENDBRANCH   1  13
BRANCH   4  26
HETATM   26  C   UNL     1      39.391 -13.809   2.441  1.00  0.00     0.175 C 
BRANCH  26  27
HETATM   27  C   UNL     1      39.951 -13.341   1.108  1.00  0.00    -0.037 A 
HETATM   28  C   UNL     1      40.436 -12.030   0.962  1.00  0.00     0.048 A 
HETATM   29  C   UNL     1      40.830 -11.620  -0.295  1.00  0.00     0.105 A 
HETATM   30  C   UNL     1      40.771 -12.457  -1.384  1.00  0.00     0.105 A 
HETATM   31  O   UNL     1      41.287 -10.380  -0.618  1.00  0.00    -0.323 OA
HETATM   32  O   UNL     1      41.183 -11.850  -2.528  1.00  0.00    -0.323 OA
HETATM   33  C   UNL     1      40.320 -13.753  -1.279  1.00  0.00     0.040 A 
HETATM   34  C   UNL     1      41.489 -10.528  -2.040  1.00  0.00     0.352 A 
HETATM   35  C   UNL     1      39.904 -14.196  -0.019  1.00  0.00     0.012 A 
ENDBRANCH  26  27
ENDBRANCH   4  26
BRANCH  11  36
HETATM   36  C   UNL     1      44.401 -11.231   8.012  1.00  0.00     0.252 C 
HETATM   37  N   UNL     1      43.726 -10.870   9.154  1.00  0.00    -0.352 N 
HETATM   38  H   UNL     1      42.794 -11.240   9.275  1.00  0.00     0.163 HD
HETATM   39  O   UNL     1      45.588 -11.040   7.800  1.00  0.00    -0.268 OA
BRANCH  37  40
HETATM   40  C   UNL     1      44.322 -10.290  10.361  1.00  0.00     0.084 C 
HETATM   41  C   UNL     1      44.326  -8.756  10.347  1.00  0.00     0.025 C 
HETATM   42  C   UNL     1      43.101  -8.114  10.987  1.00  0.00     0.002 C 
HETATM   43  C   UNL     1      42.843  -8.671  12.380  1.00  0.00     0.000 C 
HETATM   44  C   UNL     1      42.675 -10.184  12.367  1.00  0.00     0.002 C 
HETATM   45  C   UNL     1      43.837 -10.903  11.683  1.00  0.00     0.025 C 
ENDBRANCH  37  40
ENDBRANCH  11  36
TORSDOF 7
ENDMDL
MODEL 7
REMARK VINA RESULT:      -9.6      2.696      9.217
REMARK  7 active torsions:
REMARK  status: ('A' for Active; 'I' for Inactive)
REMARK    1  A    between atoms: C_6  and  N_7 
REMARK       I    between atoms: N_7  and  C_8 
REMARK    2  A    between atoms: C_8  and  C_9 
REMARK    3  A    between atoms: C_9  and  N_10 
REMARK    4  A    between atoms: N_13  and  C_14 
REMARK    5  A    between atoms: C_14  and  C_15 
REMARK    6  A    between atoms: C_30  and  C_31 
REMARK       I    between atoms: C_31  and  N_32 
REMARK    7  A    between atoms: N_32  and  C_33 
ROOT
HETATM    1  N   UNL     1      41.506  -9.949   6.768  1.00  0.00    -0.290 N 
HETATM    2  C   UNL     1      41.755  -8.674   7.247  1.00  0.00     0.332 C 
HETATM    3  O   UNL     1      40.920  -7.776   7.096  1.00  0.00    -0.246 OA
HETATM    4  N   UNL     1      42.962  -8.468   7.896  1.00  0.00    -0.261 N 
HETATM    5  C   UNL     1      43.995  -9.391   7.943  1.00  0.00     0.264 C 
HETATM    6  O   UNL     1      45.060  -9.205   8.528  1.00  0.00    -0.267 OA
HETATM    7  C   UNL     1      43.772 -10.672   7.250  1.00  0.00     0.059 A 
HETATM    8  C   UNL     1      42.522 -10.936   6.690  1.00  0.00     0.056 A 
HETATM    9  C   UNL     1      44.805 -11.622   7.205  1.00  0.00     0.020 A 
HETATM   10  C   UNL     1      44.594 -12.859   6.596  1.00  0.00     0.018 A 
HETATM   11  C   UNL     1      43.346 -13.141   6.034  1.00  0.00     0.034 A 
HETATM   12  C   UNL     1      42.325 -12.174   6.064  1.00  0.00     0.048 A 
ENDROOT
BRANCH   1  13
HETATM   13  C   UNL     1      40.113 -10.282   6.460  1.00  0.00     0.237 C 
BRANCH  13  14
HETATM   14  C   UNL     1      39.712 -10.140   4.992  1.00  0.00     0.240 C 
HETATM   15  N   UNL     1      39.807 -11.324   4.283  1.00  0.00    -0.325 N 
HETATM   16  H   UNL     1      39.935 -12.167   4.842  1.00  0.00     0.169 HD
HETATM   17  O   UNL     1      39.413  -9.039   4.539  1.00  0.00    -0.271 OA
BRANCH  15  18
HETATM   18  C   UNL     1      39.831 -11.490   2.879  1.00  0.00     0.040 A 
HETATM   19  C   UNL     1      41.028 -11.233   2.179  1.00  0.00    -0.035 A 
HETATM   20  C   UNL     1      41.029 -11.275   0.772  1.00  0.00     0.015 A 
HETATM   21  C   UNL     1      42.316 -10.901   2.884  1.00  0.00     0.050 C 
HETATM   22  C   UNL     1      39.870 -11.586   0.054  1.00  0.00    -0.061 A 
HETATM   23  C   UNL     1      39.860 -11.587  -1.446  1.00  0.00     0.048 C 
HETATM   24  C   UNL     1      38.700 -11.871   0.757  1.00  0.00     0.009 A 
HETATM   25  C   UNL     1      38.683 -11.827   2.155  1.00  0.00     0.030 A 
ENDBRANCH  15  18
ENDBRANCH  13  14
ENDBRANCH   1  13
BRANCH   4  26
HETATM   26  C   UNL     1      43.114  -7.227   8.646  1.00  0.00     0.175 C 
BRANCH  26  27
HETATM   27  C   UNL     1      42.608  -7.392  10.069  1.00  0.00    -0.037 A 
HETATM   28  C   UNL     1      42.240  -8.661  10.549  1.00  0.00     0.048 A 
HETATM   29  C   UNL     1      41.683  -8.742  11.809  1.00  0.00     0.105 A 
HETATM   30  C   UNL     1      41.495  -7.628  12.593  1.00  0.00     0.105 A 
HETATM   31  O   UNL     1      41.239  -9.879  12.409  1.00  0.00    -0.323 OA
HETATM   32  O   UNL     1      40.912  -7.924  13.785  1.00  0.00    -0.323 OA
HETATM   33  C   UNL     1      41.860  -6.371  12.167  1.00  0.00     0.040 A 
HETATM   34  C   UNL     1      40.733  -9.349  13.653  1.00  0.00     0.352 A 
HETATM   35  C   UNL     1      42.420  -6.255  10.891  1.00  0.00     0.012 A 
ENDBRANCH  26  27
ENDBRANCH   4  26
BRANCH  11  36
HETATM   36  C   UNL     1      43.053 -14.444   5.377  1.00  0.00     0.252 C 
HETATM   37  N   UNL     1      42.424 -14.373   4.156  1.00  0.00    -0.352 N 
HETATM   38  H   UNL     1      42.331 -13.458   3.738  1.00  0.00     0.163 HD
HETATM   39  O   UNL     1      43.422 -15.471   5.925  1.00  0.00    -0.268 OA
BRANCH  37  40
HETATM   40  C   UNL     1      42.178 -15.495   3.247  1.00  0.00     0.084 C 
HETATM   41  C   UNL     1      40.777 -16.101   3.412  1.00  0.00     0.025 C 
HETATM   42  C   UNL     1      39.716 -15.497   2.500  1.00  0.00     0.002 C 
HETATM   43  C   UNL     1      40.167 -15.492   1.046  1.00  0.00     0.000 C 
HETATM   44  C   UNL     1      41.481 -14.746   0.859  1.00  0.00     0.002 C 
HETATM   45  C   UNL     1      42.586 -15.250   1.787  1.00  0.00     0.025 C 
ENDBRANCH  37  40
ENDBRANCH  11  36
TORSDOF 7
ENDMDL
MODEL 8
REMARK VINA RESULT:      -9.5      3.371      9.065
REMARK  7 active torsions:
REMARK  status: ('A' for Active; 'I' for Inactive)
REMARK    1  A    between atoms: C_6  and  N_7 
REMARK       I    between atoms: N_7  and  C_8 
REMARK    2  A    between atoms: C_8  and  C_9 
REMARK    3  A    between atoms: C_9  and  N_10 
REMARK    4  A    between atoms: N_13  and  C_14 
REMARK    5  A    between atoms: C_14  and  C_15 
REMARK    6  A    between atoms: C_30  and  C_31 
REMARK       I    between atoms: C_31  and  N_32 
REMARK    7  A    between atoms: N_32  and  C_33 
ROOT
HETATM    1  N   UNL     1      41.118 -11.809   2.357  1.00  0.00    -0.290 N 
HETATM    2  C   UNL     1      40.875 -13.087   2.835  1.00  0.00     0.332 C 
HETATM    3  O   UNL     1      41.039 -13.347   4.032  1.00  0.00    -0.246 OA
HETATM    4  N   UNL     1      40.444 -14.032   1.920  1.00  0.00    -0.261 N 
HETATM    5  C   UNL     1      40.406 -13.837   0.548  1.00  0.00     0.264 C 
HETATM    6  O   UNL     1      40.013 -14.678  -0.258  1.00  0.00    -0.267 OA
HETATM    7  C   UNL     1      40.859 -12.526   0.052  1.00  0.00     0.059 A 
HETATM    8  C   UNL     1      41.190 -11.528   0.968  1.00  0.00     0.056 A 
HETATM    9  C   UNL     1      40.908 -12.289  -1.331  1.00  0.00     0.020 A 
HETATM   10  C   UNL     1      41.288 -11.038  -1.815  1.00  0.00     0.018 A 
HETATM   11  C   UNL     1      41.618 -10.026  -0.911  1.00  0.00     0.034 A 
HETATM   12  C   UNL     1      41.589 -10.279   0.472  1.00  0.00     0.048 A 
ENDROOT
BRANCH   1  13
HETATM   13  C   UNL     1      41.170 -10.729   3.345  1.00  0.00     0.237 C 
BRANCH  13  14
HETATM   14  C   UNL     1      42.392 -10.738   4.263  1.00  0.00     0.240 C 
HETATM   15  N   UNL     1      42.065 -10.727   5.607  1.00  0.00    -0.325 N 
HETATM   16  H   UNL     1      41.087 -10.910   5.827  1.00  0.00     0.169 HD
HETATM   17  O   UNL     1      43.522 -10.689   3.785  1.00  0.00    -0.271 OA
BRANCH  15  18
HETATM   18  C   UNL     1      42.908 -10.412   6.697  1.00  0.00     0.040 A 
HETATM   19  C   UNL     1      43.738 -11.418   7.234  1.00  0.00    -0.035 A 
HETATM   20  C   UNL     1      44.488 -11.150   8.395  1.00  0.00     0.015 A 
HETATM   21  C   UNL     1      43.847 -12.786   6.615  1.00  0.00     0.050 C 
HETATM   22  C   UNL     1      44.440  -9.898   9.017  1.00  0.00    -0.061 A 
HETATM   23  C   UNL     1      45.204  -9.627  10.279  1.00  0.00     0.048 C 
HETATM   24  C   UNL     1      43.641  -8.901   8.459  1.00  0.00     0.009 A 
HETATM   25  C   UNL     1      42.887  -9.155   7.310  1.00  0.00     0.030 A 
ENDBRANCH  15  18
ENDBRANCH  13  14
ENDBRANCH   1  13
BRANCH   4  26
HETATM   26  C   UNL     1      39.917 -15.285   2.450  1.00  0.00     0.175 C 
BRANCH  26  27
HETATM   27  C   UNL     1      41.041 -16.161   2.976  1.00  0.00    -0.037 A 
HETATM   28  C   UNL     1      41.190 -16.373   4.358  1.00  0.00     0.048 A 
HETATM   29  C   UNL     1      42.290 -17.084   4.791  1.00  0.00     0.105 A 
HETATM   30  C   UNL     1      43.219 -17.591   3.913  1.00  0.00     0.105 A 
HETATM   31  O   UNL     1      42.605 -17.347   6.088  1.00  0.00    -0.323 OA
HETATM   32  O   UNL     1      44.234 -18.237   4.546  1.00  0.00    -0.323 OA
HETATM   33  C   UNL     1      43.099 -17.422   2.552  1.00  0.00     0.040 A 
HETATM   34  C   UNL     1      43.849 -18.061   5.925  1.00  0.00     0.352 A 
HETATM   35  C   UNL     1      41.999 -16.697   2.082  1.00  0.00     0.012 A 
ENDBRANCH  26  27
ENDBRANCH   4  26
BRANCH  11  36
HETATM   36  C   UNL     1      42.024  -8.666  -1.362  1.00  0.00     0.252 C 
HETATM   37  N   UNL     1      41.389  -8.192  -2.485  1.00  0.00    -0.352 N 
HETATM   38  H   UNL     1      40.610  -8.731  -2.837  1.00  0.00     0.163 HD
HETATM   39  O   UNL     1      42.843  -8.051  -0.699  1.00  0.00    -0.268 OA
BRANCH  37  40
HETATM   40  C   UNL     1      41.494  -6.834  -3.027  1.00  0.00     0.084 C 
HETATM   41  C   UNL     1      42.887  -6.523  -3.591  1.00  0.00     0.025 C 
HETATM   42  C   UNL     1      43.049  -6.823  -5.077  1.00  0.00     0.002 C 
HETATM   43  C   UNL     1      41.943  -6.178  -5.900  1.00  0.00     0.000 C 
HETATM   44  C   UNL     1      40.560  -6.619  -5.441  1.00  0.00     0.002 C 
HETATM   45  C   UNL     1      40.337  -6.409  -3.944  1.00  0.00     0.025 C 
ENDBRANCH  37  40
ENDBRANCH  11  36
TORSDOF 7
ENDMDL
MODEL 9
REMARK VINA RESULT:      -9.5      3.472      8.404
REMARK  7 active torsions:
REMARK  status: ('A' for Active; 'I' for Inactive)
REMARK    1  A    between atoms: C_6  and  N_7 
REMARK       I    between atoms: N_7  and  C_8 
REMARK    2  A    between atoms: C_8  and  C_9 
REMARK    3  A    between atoms: C_9  and  N_10 
REMARK    4  A    between atoms: N_13  and  C_14 
REMARK    5  A    between atoms: C_14  and  C_15 
REMARK    6  A    between atoms: C_30  and  C_31 
REMARK       I    between atoms: C_31  and  N_32 
REMARK    7  A    between atoms: N_32  and  C_33 
ROOT
HETATM    1  N   UNL     1      43.024 -12.121   6.408  1.00  0.00    -0.290 N 
HETATM    2  C   UNL     1      43.375 -13.419   6.743  1.00  0.00     0.332 C 
HETATM    3  O   UNL     1      44.553 -13.705   6.984  1.00  0.00    -0.246 OA
HETATM    4  N   UNL     1      42.355 -14.355   6.798  1.00  0.00    -0.261 N 
HETATM    5  C   UNL     1      41.055 -14.125   6.377  1.00  0.00     0.264 C 
HETATM    6  O   UNL     1      40.153 -14.957   6.437  1.00  0.00    -0.267 OA
HETATM    7  C   UNL     1      40.760 -12.785   5.839  1.00  0.00     0.059 A 
HETATM    8  C   UNL     1      41.746 -11.801   5.881  1.00  0.00     0.056 A 
HETATM    9  C   UNL     1      39.479 -12.511   5.334  1.00  0.00     0.020 A 
HETATM   10  C   UNL     1      39.168 -11.234   4.866  1.00  0.00     0.018 A 
HETATM   11  C   UNL     1      40.144 -10.235   4.906  1.00  0.00     0.034 A 
HETATM   12  C   UNL     1      41.431 -10.526   5.391  1.00  0.00     0.048 A 
ENDROOT
BRANCH   1  13
HETATM   13  C   UNL     1      43.985 -11.067   6.739  1.00  0.00     0.237 C 
BRANCH  13  14
HETATM   14  C   UNL     1      44.159 -10.782   8.232  1.00  0.00     0.240 C 
HETATM   15  N   UNL     1      43.040 -10.214   8.813  1.00  0.00    -0.325 N 
HETATM   16  H   UNL     1      42.189 -10.234   8.250  1.00  0.00     0.169 HD
HETATM   17  O   UNL     1      45.237 -10.998   8.778  1.00  0.00    -0.271 OA
BRANCH  15  18
HETATM   18  C   UNL     1      42.959  -9.542  10.053  1.00  0.00     0.040 A 
HETATM   19  C   UNL     1      42.954  -8.131  10.069  1.00  0.00    -0.035 A 
HETATM   20  C   UNL     1      42.999  -7.452  11.301  1.00  0.00     0.015 A 
HETATM   21  C   UNL     1      42.913  -7.313   8.805  1.00  0.00     0.050 C 
HETATM   22  C   UNL     1      43.029  -8.150  12.513  1.00  0.00    -0.061 A 
HETATM   23  C   UNL     1      43.122  -7.427  13.824  1.00  0.00     0.048 C 
HETATM   24  C   UNL     1      43.001  -9.544  12.487  1.00  0.00     0.009 A 
HETATM   25  C   UNL     1      42.962 -10.231  11.270  1.00  0.00     0.030 A 
ENDBRANCH  15  18
ENDBRANCH  13  14
ENDBRANCH   1  13
BRANCH   4  26
HETATM   26  C   UNL     1      42.659 -15.639   7.419  1.00  0.00     0.175 C 
BRANCH  26  27
HETATM   27  C   UNL     1      42.996 -16.680   6.365  1.00  0.00    -0.037 A 
HETATM   28  C   UNL     1      43.171 -18.027   6.727  1.00  0.00     0.048 A 
HETATM   29  C   UNL     1      43.584 -18.913   5.754  1.00  0.00     0.105 A 
HETATM   30  C   UNL     1      43.813 -18.513   4.458  1.00  0.00     0.105 A 
HETATM   31  O   UNL     1      43.835 -20.236   5.939  1.00  0.00    -0.323 OA
HETATM   32  O   UNL     1      44.235 -19.534   3.666  1.00  0.00    -0.323 OA
HETATM   33  C   UNL     1      43.635 -17.208   4.059  1.00  0.00     0.040 A 
HETATM   34  C   UNL     1      44.267 -20.619   4.616  1.00  0.00     0.352 A 
HETATM   35  C   UNL     1      43.225 -16.284   5.026  1.00  0.00     0.012 A 
ENDBRANCH  26  27
ENDBRANCH   4  26
BRANCH  11  36
HETATM   36  C   UNL     1      39.875  -8.850   4.429  1.00  0.00     0.252 C 
HETATM   37  N   UNL     1      38.860  -8.717   3.512  1.00  0.00    -0.352 N 
HETATM   38  H   UNL     1      38.290  -9.533   3.333  1.00  0.00     0.163 HD
HETATM   39  O   UNL     1      40.524  -7.932   4.905  1.00  0.00    -0.268 OA
BRANCH  37  40
HETATM   40  C   UNL     1      38.302  -7.455   3.019  1.00  0.00     0.084 C 
HETATM   41  C   UNL     1      39.019  -6.934   1.766  1.00  0.00     0.025 C 
HETATM   42  C   UNL     1      38.404  -7.392   0.449  1.00  0.00     0.002 C 
HETATM   43  C   UNL     1      36.907  -7.115   0.407  1.00  0.00     0.000 C 
HETATM   44  C   UNL     1      36.172  -7.773   1.566  1.00  0.00     0.002 C 
HETATM   45  C   UNL     1      36.770  -7.415   2.926  1.00  0.00     0.025 C 
ENDBRANCH  37  40
ENDBRANCH  11  36
TORSDOF 7
ENDMDL
MODEL 10
REMARK VINA RESULT:      -9.3      2.540      7.035
REMARK  7 active torsions:
REMARK  status: ('A' for Active; 'I' for Inactive)
REMARK    1  A    between atoms: C_6  and  N_7 
REMARK       I    between atoms: N_7  and  C_8 
REMARK    2  A    between atoms: C_8  and  C_9 
REMARK    3  A    between atoms: C_9  and  N_10 
REMARK    4  A    between atoms: N_13  and  C_14 
REMARK    5  A    between atoms: C_14  and  C_15 
REMARK    6  A    between atoms: C_30  and  C_31 
REMARK       I    between atoms: C_31  and  N_32 
REMARK    7  A    between atoms: N_32  and  C_33 
ROOT
HETATM    1  N   UNL     1      41.748 -11.074   6.258  1.00  0.00    -0.290 N 
HETATM    2  C   UNL     1      41.653 -11.607   4.982  1.00  0.00     0.332 C 
HETATM    3  O   UNL     1      40.560 -11.980   4.541  1.00  0.00    -0.246 OA
HETATM    4  N   UNL     1      42.821 -11.690   4.244  1.00  0.00    -0.261 N 
HETATM    5  C   UNL     1      44.088 -11.445   4.750  1.00  0.00     0.264 C 
HETATM    6  O   UNL     1      45.121 -11.512   4.086  1.00  0.00    -0.267 OA
HETATM    7  C   UNL     1      44.174 -11.067   6.172  1.00  0.00     0.059 A 
HETATM    8  C   UNL     1      42.998 -10.871   6.896  1.00  0.00     0.056 A 
HETATM    9  C   UNL     1      45.433 -10.870   6.760  1.00  0.00     0.020 A 
HETATM   10  C   UNL     1      45.529 -10.465   8.091  1.00  0.00     0.018 A 
HETATM   11  C   UNL     1      44.361 -10.259   8.830  1.00  0.00     0.034 A 
HETATM   12  C   UNL     1      43.105 -10.482   8.239  1.00  0.00     0.048 A 
ENDROOT
BRANCH   1  13
HETATM   13  C   UNL     1      40.505 -10.606   6.876  1.00  0.00     0.237 C 
BRANCH  13  14
HETATM   14  C   UNL     1      40.422  -9.100   7.126  1.00  0.00     0.240 C 
HETATM   15  N   UNL     1      40.560  -8.760   8.459  1.00  0.00    -0.325 N 
HETATM   16  H   UNL     1      40.889  -9.503   9.075  1.00  0.00     0.169 HD
HETATM   17  O   UNL     1      40.185  -8.334   6.196  1.00  0.00    -0.271 OA
BRANCH  15  18
HETATM   18  C   UNL     1      40.222  -7.534   9.076  1.00  0.00     0.040 A 
HETATM   19  C   UNL     1      41.221  -6.553   9.245  1.00  0.00    -0.035 A 
HETATM   20  C   UNL     1      40.926  -5.380   9.966  1.00  0.00     0.015 A 
HETATM   21  C   UNL     1      42.610  -6.716   8.686  1.00  0.00     0.050 C 
HETATM   22  C   UNL     1      39.654  -5.161  10.505  1.00  0.00    -0.061 A 
HETATM   23  C   UNL     1      39.353  -3.933  11.312  1.00  0.00     0.048 C 
HETATM   24  C   UNL     1      38.664  -6.122  10.305  1.00  0.00     0.009 A 
HETATM   25  C   UNL     1      38.945  -7.293   9.594  1.00  0.00     0.030 A 
ENDBRANCH  15  18
ENDBRANCH  13  14
ENDBRANCH   1  13
BRANCH   4  26
HETATM   26  C   UNL     1      42.694 -11.977   2.820  1.00  0.00     0.175 C 
BRANCH  26  27
HETATM   27  C   UNL     1      42.526 -13.469   2.584  1.00  0.00    -0.037 A 
HETATM   28  C   UNL     1      43.148 -14.397   3.436  1.00  0.00     0.048 A 
HETATM   29  C   UNL     1      43.057 -15.736   3.116  1.00  0.00     0.105 A 
HETATM   30  C   UNL     1      42.372 -16.171   2.005  1.00  0.00     0.105 A 
HETATM   31  O   UNL     1      43.627 -16.759   3.807  1.00  0.00    -0.323 OA
HETATM   32  O   UNL     1      42.425 -17.522   1.859  1.00  0.00    -0.323 OA
HETATM   33  C   UNL     1      41.734 -15.296   1.156  1.00  0.00     0.040 A 
HETATM   34  C   UNL     1      43.239 -17.886   2.993  1.00  0.00     0.352 A 
HETATM   35  C   UNL     1      41.816 -13.931   1.450  1.00  0.00     0.012 A 
ENDBRANCH  26  27
ENDBRANCH   4  26
BRANCH  11  36
HETATM   36  C   UNL     1      44.394  -9.820  10.252  1.00  0.00     0.252 C 
HETATM   37  N   UNL     1      43.172  -9.665  10.861  1.00  0.00    -0.352 N 
HETATM   38  H   UNL     1      42.359  -9.985  10.353  1.00  0.00     0.163 HD
HETATM   39  O   UNL     1      45.479  -9.673  10.792  1.00  0.00    -0.268 OA
BRANCH  37  40
HETATM   40  C   UNL     1      42.945  -9.401  12.285  1.00  0.00     0.084 C 
HETATM   41  C   UNL     1      43.454  -8.022  12.725  1.00  0.00     0.025 C 
HETATM   42  C   UNL     1      42.416  -6.909  12.645  1.00  0.00     0.002 C 
HETATM   43  C   UNL     1      41.127  -7.296  13.358  1.00  0.00     0.000 C 
HETATM   44  C   UNL     1      40.535  -8.585  12.805  1.00  0.00     0.002 C 
HETATM   45  C   UNL     1      41.535  -9.739  12.791  1.00  0.00     0.025 C 
ENDBRANCH  37  40
ENDBRANCH  11  36
TORSDOF 7
ENDMDL
