MODEL 1
REMARK VINA RESULT:      -8.9      0.000      0.000
REMARK  9 active torsions:
REMARK  status: ('A' for Active; 'I' for Inactive)
REMARK    1  A    between atoms: O_2  and  C_3 
REMARK    2  A    between atoms: C_6  and  C_7 
REMARK    3  A    between atoms: C_13  and  C_14 
REMARK       I    between atoms: C_14  and  N_15 
REMARK    4  A    between atoms: N_15  and  N_16 
REMARK    5  A    between atoms: N_16  and  C_17 
REMARK    6  A    between atoms: C_17  and  N_18 
REMARK    7  A    between atoms: N_18  and  C_19 
REMARK    8  A    between atoms: C_19  and  C_20 
REMARK    9  A    between atoms: C_27  and  C_28 
ROOT
HETATM    1  C   UNL     1      40.911 -14.575   1.828  1.00  0.00     0.118 C 
HETATM    2  N   UNL     1      40.471 -14.035   3.105  1.00  0.00    -0.365 N 
HETATM    3  C   UNL     1      40.734 -14.667   4.274  1.00  0.00     0.138 A 
HETATM    4  N   UNL     1      41.241 -15.939   4.280  1.00  0.00    -0.240 N 
HETATM    5  N   UNL     1      41.339 -16.478   5.506  1.00  0.00    -0.181 NA
HETATM    6  C   UNL     1      40.919 -15.487   6.302  1.00  0.00     0.160 A 
HETATM    7  C   UNL     1      40.584 -14.301   5.598  1.00  0.00     0.098 A 
HETATM    8  C   UNL     1      41.597 -16.680   3.083  1.00  0.00     0.221 C 
HETATM    9  C   UNL     1      40.831 -16.116   1.871  1.00  0.00     0.066 C 
HETATM   10  H   UNL     1      40.120 -13.073   3.105  1.00  0.00     0.161 HD
ENDROOT
BRANCH   7  11
HETATM   11  C   UNL     1      40.125 -13.009   6.077  1.00  0.00     0.275 C 
HETATM   12  N   UNL     1      41.041 -12.135   6.631  1.00  0.00    -0.263 N 
HETATM   13  H   UNL     1      40.670 -11.227   6.907  1.00  0.00     0.190 HD
HETATM   14  O   UNL     1      38.949 -12.655   5.984  1.00  0.00    -0.266 OA
BRANCH  12  15
HETATM   15  N   UNL     1      42.436 -12.198   6.440  1.00  0.00    -0.274 N 
HETATM   16  H   UNL     1      42.860 -13.111   6.574  1.00  0.00     0.189 HD
BRANCH  15  17
HETATM   17  C   UNL     1      43.019 -11.413   5.470  1.00  0.00     0.186 C 
HETATM   18  S   UNL     1      42.206 -10.388   4.431  1.00  0.00    -0.040 SA
BRANCH  17  19
HETATM   19  N   UNL     1      44.379 -11.471   5.396  1.00  0.00    -0.364 N 
HETATM   20  H   UNL     1      44.746 -11.003   4.568  1.00  0.00     0.162 HD
BRANCH  19  21
HETATM   21  C   UNL     1      45.307 -11.485   6.523  1.00  0.00     0.154 C 
BRANCH  21  22
HETATM   22  C   UNL     1      44.942 -10.405   7.543  1.00  0.00     0.139 C 
HETATM   23  O   UNL     1      44.401 -11.020   8.732  1.00  0.00    -0.384 OA
HETATM   24  C   UNL     1      44.973 -10.379   9.881  1.00  0.00     0.168 C 
HETATM   25  C   UNL     1      45.692  -9.145   9.379  1.00  0.00     0.029 C 
HETATM   26  C   UNL     1      46.130  -9.575   8.000  1.00  0.00     0.035 C 
ENDBRANCH  21  22
ENDBRANCH  19  21
ENDBRANCH  17  19
ENDBRANCH  15  17
ENDBRANCH  12  15
ENDBRANCH   7  11
BRANCH   1  27
HETATM   27  C   UNL     1      40.108 -13.947   0.704  1.00  0.00    -0.035 A 
HETATM   28  C   UNL     1      39.862 -14.687  -0.465  1.00  0.00     0.012 A 
HETATM   29  C   UNL     1      39.108 -14.153  -1.517  1.00  0.00     0.037 A 
HETATM   30  C   UNL     1      38.588 -12.864  -1.422  1.00  0.00     0.068 A 
HETATM   31  C   UNL     1      38.862 -12.105  -0.285  1.00  0.00     0.037 A 
HETATM   32  C   UNL     1      39.620 -12.634   0.765  1.00  0.00     0.012 A 
BRANCH  30  33
HETATM   33  O   UNL     1      37.820 -12.236  -2.363  1.00  0.00    -0.356 OA
HETATM   34  C   UNL     1      38.322 -11.009  -2.881  1.00  0.00     0.210 C 
ENDBRANCH  30  33
ENDBRANCH   1  27
BRANCH   8  35
HETATM   35  C   UNL     1      43.096 -16.641   2.888  1.00  0.00     0.409 C 
HETATM   36  F   UNL     1      43.464 -16.625   1.588  1.00  0.00    -0.169 F 
HETATM   37  F   UNL     1      43.675 -15.578   3.488  1.00  0.00    -0.169 F 
HETATM   38  F   UNL     1      43.664 -17.747   3.436  1.00  0.00    -0.169 F 
ENDBRANCH   8  35
TORSDOF 9
ENDMDL
MODEL 2
REMARK VINA RESULT:      -8.7      2.845      5.339
REMARK  9 active torsions:
REMARK  status: ('A' for Active; 'I' for Inactive)
REMARK    1  A    between atoms: O_2  and  C_3 
REMARK    2  A    between atoms: C_6  and  C_7 
REMARK    3  A    between atoms: C_13  and  C_14 
REMARK       I    between atoms: C_14  and  N_15 
REMARK    4  A    between atoms: N_15  and  N_16 
REMARK    5  A    between atoms: N_16  and  C_17 
REMARK    6  A    between atoms: C_17  and  N_18 
REMARK    7  A    between atoms: N_18  and  C_19 
REMARK    8  A    between atoms: C_19  and  C_20 
REMARK    9  A    between atoms: C_27  and  C_28 
ROOT
HETATM    1  C   UNL     1      41.738 -15.338   2.623  1.00  0.00     0.118 C 
HETATM    2  N   UNL     1      41.368 -14.449   3.714  1.00  0.00    -0.365 N 
HETATM    3  C   UNL     1      40.995 -13.166   3.492  1.00  0.00     0.138 A 
HETATM    4  N   UNL     1      41.153 -12.598   2.255  1.00  0.00    -0.240 N 
HETATM    5  N   UNL     1      40.850 -11.290   2.217  1.00  0.00    -0.181 NA
HETATM    6  C   UNL     1      40.445 -11.041   3.468  1.00  0.00     0.160 A 
HETATM    7  C   UNL     1      40.451 -12.188   4.303  1.00  0.00     0.098 A 
HETATM    8  C   UNL     1      41.650 -13.307   1.091  1.00  0.00     0.221 C 
HETATM    9  C   UNL     1      42.477 -14.529   1.535  1.00  0.00     0.066 C 
HETATM   10  H   UNL     1      41.222 -14.878   4.632  1.00  0.00     0.161 HD
ENDROOT
BRANCH   7  11
HETATM   11  C   UNL     1      40.063 -12.355   5.693  1.00  0.00     0.275 C 
HETATM   12  N   UNL     1      40.992 -12.101   6.684  1.00  0.00    -0.263 N 
HETATM   13  H   UNL     1      40.650 -12.191   7.639  1.00  0.00     0.190 HD
HETATM   14  O   UNL     1      38.924 -12.691   6.019  1.00  0.00    -0.266 OA
BRANCH  12  15
HETATM   15  N   UNL     1      42.162 -11.334   6.518  1.00  0.00    -0.274 N 
HETATM   16  H   UNL     1      42.108 -10.369   6.831  1.00  0.00     0.189 HD
BRANCH  15  17
HETATM   17  C   UNL     1      43.390 -11.937   6.676  1.00  0.00     0.186 C 
HETATM   18  S   UNL     1      43.676 -13.584   6.649  1.00  0.00    -0.040 SA
BRANCH  17  19
HETATM   19  N   UNL     1      44.451 -11.095   6.830  1.00  0.00    -0.364 N 
HETATM   20  H   UNL     1      44.422 -10.306   6.185  1.00  0.00     0.162 HD
BRANCH  19  21
HETATM   21  C   UNL     1      45.153 -10.808   8.078  1.00  0.00     0.154 C 
BRANCH  21  22
HETATM   22  C   UNL     1      44.191 -10.247   9.128  1.00  0.00     0.139 C 
HETATM   23  O   UNL     1      43.875 -11.272  10.095  1.00  0.00    -0.384 OA
HETATM   24  C   UNL     1      43.923 -10.693  11.407  1.00  0.00     0.168 C 
HETATM   25  C   UNL     1      44.011  -9.193  11.220  1.00  0.00     0.029 C 
HETATM   26  C   UNL     1      44.766  -9.083   9.918  1.00  0.00     0.035 C 
ENDBRANCH  21  22
ENDBRANCH  19  21
ENDBRANCH  17  19
ENDBRANCH  15  17
ENDBRANCH  12  15
ENDBRANCH   7  11
BRANCH   1  27
HETATM   27  C   UNL     1      42.533 -16.510   3.168  1.00  0.00    -0.035 A 
HETATM   28  C   UNL     1      42.789 -16.588   4.547  1.00  0.00     0.012 A 
HETATM   29  C   UNL     1      43.501 -17.662   5.094  1.00  0.00     0.037 A 
HETATM   30  C   UNL     1      43.976 -18.679   4.270  1.00  0.00     0.068 A 
HETATM   31  C   UNL     1      43.766 -18.590   2.893  1.00  0.00     0.037 A 
HETATM   32  C   UNL     1      43.059 -17.514   2.344  1.00  0.00     0.012 A 
BRANCH  30  33
HETATM   33  O   UNL     1      44.662 -19.790   4.676  1.00  0.00    -0.356 OA
HETATM   34  C   UNL     1      43.936 -20.744   5.442  1.00  0.00     0.210 C 
ENDBRANCH  30  33
ENDBRANCH   1  27
BRANCH   8  35
HETATM   35  C   UNL     1      40.493 -13.689   0.195  1.00  0.00     0.409 C 
HETATM   36  F   UNL     1      40.247 -12.781  -0.775  1.00  0.00    -0.169 F 
HETATM   37  F   UNL     1      40.669 -14.887  -0.405  1.00  0.00    -0.169 F 
HETATM   38  F   UNL     1      39.354 -13.791   0.927  1.00  0.00    -0.169 F 
ENDBRANCH   8  35
TORSDOF 9
ENDMDL
MODEL 3
REMARK VINA RESULT:      -8.7      2.930      5.429
REMARK  9 active torsions:
REMARK  status: ('A' for Active; 'I' for Inactive)
REMARK    1  A    between atoms: O_2  and  C_3 
REMARK    2  A    between atoms: C_6  and  C_7 
REMARK    3  A    between atoms: C_13  and  C_14 
REMARK       I    between atoms: C_14  and  N_15 
REMARK    4  A    between atoms: N_15  and  N_16 
REMARK    5  A    between atoms: N_16  and  C_17 
REMARK    6  A    between atoms: C_17  and  N_18 
REMARK    7  A    between atoms: N_18  and  C_19 
REMARK    8  A    between atoms: C_19  and  C_20 
REMARK    9  A    between atoms: C_27  and  C_28 
ROOT
HETATM    1  C   UNL     1      41.847 -15.374   2.797  1.00  0.00     0.118 C 
HETATM    2  N   UNL     1      41.598 -14.465   3.905  1.00  0.00    -0.365 N 
HETATM    3  C   UNL     1      41.291 -13.161   3.702  1.00  0.00     0.138 A 
HETATM    4  N   UNL     1      41.409 -12.603   2.456  1.00  0.00    -0.240 N 
HETATM    5  N   UNL     1      41.185 -11.279   2.432  1.00  0.00    -0.181 NA
HETATM    6  C   UNL     1      40.870 -11.007   3.704  1.00  0.00     0.160 A 
HETATM    7  C   UNL     1      40.856 -12.153   4.541  1.00  0.00     0.098 A 
HETATM    8  C   UNL     1      41.792 -13.341   1.266  1.00  0.00     0.221 C 
HETATM    9  C   UNL     1      42.568 -14.611   1.664  1.00  0.00     0.066 C 
HETATM   10  H   UNL     1      41.480 -14.885   4.831  1.00  0.00     0.161 HD
ENDROOT
BRANCH   7  11
HETATM   11  C   UNL     1      40.542 -12.297   5.951  1.00  0.00     0.275 C 
HETATM   12  N   UNL     1      41.106 -11.419   6.857  1.00  0.00    -0.263 N 
HETATM   13  H   UNL     1      40.814 -11.539   7.826  1.00  0.00     0.190 HD
HETATM   14  O   UNL     1      39.768 -13.160   6.366  1.00  0.00    -0.266 OA
BRANCH  12  15
HETATM   15  N   UNL     1      41.655 -10.162   6.531  1.00  0.00    -0.274 N 
HETATM   16  H   UNL     1      41.274  -9.715   5.702  1.00  0.00     0.189 HD
BRANCH  15  17
HETATM   17  C   UNL     1      42.028  -9.308   7.544  1.00  0.00     0.186 C 
HETATM   18  S   UNL     1      42.109  -7.642   7.431  1.00  0.00    -0.040 SA
BRANCH  17  19
HETATM   19  N   UNL     1      42.318  -9.894   8.741  1.00  0.00    -0.364 N 
HETATM   20  H   UNL     1      41.873 -10.805   8.848  1.00  0.00     0.162 HD
BRANCH  19  21
HETATM   21  C   UNL     1      43.561  -9.755   9.494  1.00  0.00     0.154 C 
BRANCH  21  22
HETATM   22  C   UNL     1      44.658 -10.644   8.905  1.00  0.00     0.139 C 
HETATM   23  O   UNL     1      44.059 -11.723   8.155  1.00  0.00    -0.384 OA
HETATM   24  C   UNL     1      44.780 -11.881   6.925  1.00  0.00     0.168 C 
HETATM   25  C   UNL     1      46.034 -11.042   7.043  1.00  0.00     0.029 C 
HETATM   26  C   UNL     1      45.576  -9.916   7.938  1.00  0.00     0.035 C 
ENDBRANCH  21  22
ENDBRANCH  19  21
ENDBRANCH  17  19
ENDBRANCH  15  17
ENDBRANCH  12  15
ENDBRANCH   7  11
BRANCH   1  27
HETATM   27  C   UNL     1      42.601 -16.592   3.296  1.00  0.00    -0.035 A 
HETATM   28  C   UNL     1      42.929 -17.618   2.393  1.00  0.00     0.012 A 
HETATM   29  C   UNL     1      43.641 -18.750   2.807  1.00  0.00     0.037 A 
HETATM   30  C   UNL     1      44.035 -18.881   4.137  1.00  0.00     0.068 A 
HETATM   31  C   UNL     1      43.677 -17.890   5.051  1.00  0.00     0.037 A 
HETATM   32  C   UNL     1      42.961 -16.760   4.640  1.00  0.00     0.012 A 
BRANCH  30  33
HETATM   33  O   UNL     1      44.751 -19.920   4.666  1.00  0.00    -0.356 OA
HETATM   34  C   UNL     1      44.023 -20.869   5.437  1.00  0.00     0.210 C 
ENDBRANCH  30  33
ENDBRANCH   1  27
BRANCH   8  35
HETATM   35  C   UNL     1      40.563 -13.651   0.442  1.00  0.00     0.409 C 
HETATM   36  F   UNL     1      40.643 -14.830  -0.212  1.00  0.00    -0.169 F 
HETATM   37  F   UNL     1      39.430 -13.670   1.178  1.00  0.00    -0.169 F 
HETATM   38  F   UNL     1      40.388 -12.694  -0.506  1.00  0.00    -0.169 F 
ENDBRANCH   8  35
TORSDOF 9
ENDMDL
MODEL 4
REMARK VINA RESULT:      -8.7      3.480      6.315
REMARK  9 active torsions:
REMARK  status: ('A' for Active; 'I' for Inactive)
REMARK    1  A    between atoms: O_2  and  C_3 
REMARK    2  A    between atoms: C_6  and  C_7 
REMARK    3  A    between atoms: C_13  and  C_14 
REMARK       I    between atoms: C_14  and  N_15 
REMARK    4  A    between atoms: N_15  and  N_16 
REMARK    5  A    between atoms: N_16  and  C_17 
REMARK    6  A    between atoms: C_17  and  N_18 
REMARK    7  A    between atoms: N_18  and  C_19 
REMARK    8  A    between atoms: C_19  and  C_20 
REMARK    9  A    between atoms: C_27  and  C_28 
ROOT
HETATM    1  C   UNL     1      42.105 -15.392   2.714  1.00  0.00     0.118 C 
HETATM    2  N   UNL     1      42.640 -14.191   3.338  1.00  0.00    -0.365 N 
HETATM    3  C   UNL     1      42.405 -12.959   2.827  1.00  0.00     0.138 A 
HETATM    4  N   UNL     1      41.832 -12.814   1.591  1.00  0.00    -0.240 N 
HETATM    5  N   UNL     1      41.771 -11.541   1.168  1.00  0.00    -0.181 NA
HETATM    6  C   UNL     1      42.283 -10.859   2.199  1.00  0.00     0.160 A 
HETATM    7  C   UNL     1      42.644 -11.682   3.298  1.00  0.00     0.098 A 
HETATM    8  C   UNL     1      41.375 -13.920   0.770  1.00  0.00     0.221 C 
HETATM    9  C   UNL     1      42.105 -15.213   1.181  1.00  0.00     0.066 C 
HETATM   10  H   UNL     1      43.041 -14.294   4.274  1.00  0.00     0.161 HD
ENDROOT
BRANCH   7  11
HETATM   11  C   UNL     1      43.196 -11.344   4.598  1.00  0.00     0.275 C 
HETATM   12  N   UNL     1      42.429 -10.607   5.481  1.00  0.00    -0.263 N 
HETATM   13  H   UNL     1      42.850 -10.439   6.393  1.00  0.00     0.190 HD
HETATM   14  O   UNL     1      44.316 -11.714   4.951  1.00  0.00    -0.266 OA
BRANCH  12  15
HETATM   15  N   UNL     1      41.029 -10.466   5.413  1.00  0.00    -0.274 N 
HETATM   16  H   UNL     1      40.597 -10.747   4.537  1.00  0.00     0.189 HD
BRANCH  15  17
HETATM   17  C   UNL     1      40.274 -10.695   6.543  1.00  0.00     0.186 C 
HETATM   18  S   UNL     1      39.678  -9.519   7.568  1.00  0.00    -0.040 SA
BRANCH  17  19
HETATM   19  N   UNL     1      39.973 -12.000   6.803  1.00  0.00    -0.364 N 
HETATM   20  H   UNL     1      39.564 -12.130   7.727  1.00  0.00     0.162 HD
BRANCH  19  21
HETATM   21  C   UNL     1      39.553 -13.001   5.827  1.00  0.00     0.154 C 
BRANCH  21  22
HETATM   22  C   UNL     1      40.553 -14.157   5.766  1.00  0.00     0.139 C 
HETATM   23  O   UNL     1      41.836 -13.717   6.262  1.00  0.00    -0.384 OA
HETATM   24  C   UNL     1      42.368 -14.734   7.123  1.00  0.00     0.168 C 
HETATM   25  C   UNL     1      41.499 -15.960   6.937  1.00  0.00     0.029 C 
HETATM   26  C   UNL     1      40.156 -15.349   6.620  1.00  0.00     0.035 C 
ENDBRANCH  21  22
ENDBRANCH  19  21
ENDBRANCH  17  19
ENDBRANCH  15  17
ENDBRANCH  12  15
ENDBRANCH   7  11
BRANCH   1  27
HETATM   27  C   UNL     1      42.881 -16.605   3.195  1.00  0.00    -0.035 A 
HETATM   28  C   UNL     1      43.633 -16.517   4.378  1.00  0.00     0.012 A 
HETATM   29  C   UNL     1      44.348 -17.617   4.868  1.00  0.00     0.037 A 
HETATM   30  C   UNL     1      44.327 -18.828   4.179  1.00  0.00     0.068 A 
HETATM   31  C   UNL     1      43.619 -18.914   2.980  1.00  0.00     0.037 A 
HETATM   32  C   UNL     1      42.909 -17.813   2.486  1.00  0.00     0.012 A 
BRANCH  30  33
HETATM   33  O   UNL     1      44.959 -19.980   4.558  1.00  0.00    -0.356 OA
HETATM   34  C   UNL     1      44.181 -20.926   5.282  1.00  0.00     0.210 C 
ENDBRANCH  30  33
ENDBRANCH   1  27
BRANCH   8  35
HETATM   35  C   UNL     1      39.872 -14.047   0.878  1.00  0.00     0.409 C 
HETATM   36  F   UNL     1      39.431 -15.313   0.714  1.00  0.00    -0.169 F 
HETATM   37  F   UNL     1      39.393 -13.599   2.059  1.00  0.00    -0.169 F 
HETATM   38  F   UNL     1      39.274 -13.301  -0.086  1.00  0.00    -0.169 F 
ENDBRANCH   8  35
TORSDOF 9
ENDMDL
MODEL 5
REMARK VINA RESULT:      -8.5      1.399      1.839
REMARK  9 active torsions:
REMARK  status: ('A' for Active; 'I' for Inactive)
REMARK    1  A    between atoms: O_2  and  C_3 
REMARK    2  A    between atoms: C_6  and  C_7 
REMARK    3  A    between atoms: C_13  and  C_14 
REMARK       I    between atoms: C_14  and  N_15 
REMARK    4  A    between atoms: N_15  and  N_16 
REMARK    5  A    between atoms: N_16  and  C_17 
REMARK    6  A    between atoms: C_17  and  N_18 
REMARK    7  A    between atoms: N_18  and  C_19 
REMARK    8  A    between atoms: C_19  and  C_20 
REMARK    9  A    between atoms: C_27  and  C_28 
ROOT
HETATM    1  C   UNL     1      40.863 -14.542   1.748  1.00  0.00     0.118 C 
HETATM    2  N   UNL     1      40.464 -14.006   3.041  1.00  0.00    -0.365 N 
HETATM    3  C   UNL     1      40.764 -14.641   4.199  1.00  0.00     0.138 A 
HETATM    4  N   UNL     1      41.272 -15.913   4.185  1.00  0.00    -0.240 N 
HETATM    5  N   UNL     1      41.409 -16.456   5.405  1.00  0.00    -0.181 NA
HETATM    6  C   UNL     1      41.015 -15.468   6.217  1.00  0.00     0.160 A 
HETATM    7  C   UNL     1      40.656 -14.280   5.528  1.00  0.00     0.098 A 
HETATM    8  C   UNL     1      41.590 -16.651   2.975  1.00  0.00     0.221 C 
HETATM    9  C   UNL     1      40.785 -16.083   1.790  1.00  0.00     0.066 C 
HETATM   10  H   UNL     1      40.112 -13.045   3.055  1.00  0.00     0.161 HD
ENDROOT
BRANCH   7  11
HETATM   11  C   UNL     1      40.212 -12.989   6.025  1.00  0.00     0.275 C 
HETATM   12  N   UNL     1      41.156 -12.065   6.430  1.00  0.00    -0.263 N 
HETATM   13  H   UNL     1      40.788 -11.163   6.726  1.00  0.00     0.190 HD
HETATM   14  O   UNL     1      39.020 -12.681   6.075  1.00  0.00    -0.266 OA
BRANCH  12  15
HETATM   15  N   UNL     1      42.516 -12.085   6.062  1.00  0.00    -0.274 N 
HETATM   16  H   UNL     1      42.707 -12.001   5.068  1.00  0.00     0.189 HD
BRANCH  15  17
HETATM   17  C   UNL     1      43.447 -11.502   6.893  1.00  0.00     0.186 C 
HETATM   18  S   UNL     1      45.102 -11.522   6.665  1.00  0.00    -0.040 SA
BRANCH  17  19
HETATM   19  N   UNL     1      42.945 -10.826   7.966  1.00  0.00    -0.364 N 
HETATM   20  H   UNL     1      42.806 -11.428   8.777  1.00  0.00     0.162 HD
BRANCH  19  21
HETATM   21  C   UNL     1      43.204  -9.430   8.307  1.00  0.00     0.154 C 
BRANCH  21  22
HETATM   22  C   UNL     1      43.292  -9.247   9.823  1.00  0.00     0.139 C 
HETATM   23  O   UNL     1      41.971  -9.025  10.364  1.00  0.00    -0.384 OA
HETATM   24  C   UNL     1      41.829  -9.806  11.559  1.00  0.00     0.168 C 
HETATM   25  C   UNL     1      43.208 -10.322  11.911  1.00  0.00     0.029 C 
HETATM   26  C   UNL     1      43.848 -10.459  10.551  1.00  0.00     0.035 C 
ENDBRANCH  21  22
ENDBRANCH  19  21
ENDBRANCH  17  19
ENDBRANCH  15  17
ENDBRANCH  12  15
ENDBRANCH   7  11
BRANCH   1  27
HETATM   27  C   UNL     1      40.023 -13.911   0.653  1.00  0.00    -0.035 A 
HETATM   28  C   UNL     1      39.819 -14.611  -0.548  1.00  0.00     0.012 A 
HETATM   29  C   UNL     1      39.035 -14.075  -1.577  1.00  0.00     0.037 A 
HETATM   30  C   UNL     1      38.441 -12.824  -1.425  1.00  0.00     0.068 A 
HETATM   31  C   UNL     1      38.672 -12.102  -0.254  1.00  0.00     0.037 A 
HETATM   32  C   UNL     1      39.461 -12.633   0.773  1.00  0.00     0.012 A 
BRANCH  30  33
HETATM   33  O   UNL     1      37.638 -12.198  -2.337  1.00  0.00    -0.356 OA
HETATM   34  C   UNL     1      37.467 -10.794  -2.182  1.00  0.00     0.210 C 
ENDBRANCH  30  33
ENDBRANCH   1  27
BRANCH   8  35
HETATM   35  C   UNL     1      43.082 -16.610   2.732  1.00  0.00     0.409 C 
HETATM   36  F   UNL     1      43.675 -15.505   3.234  1.00  0.00    -0.169 F 
HETATM   37  F   UNL     1      43.725 -17.684   3.241  1.00  0.00    -0.169 F 
HETATM   38  F   UNL     1      43.333 -16.610   1.397  1.00  0.00    -0.169 F 
ENDBRANCH   8  35
TORSDOF 9
ENDMDL
MODEL 6
REMARK VINA RESULT:      -8.5      3.399      5.749
REMARK  9 active torsions:
REMARK  status: ('A' for Active; 'I' for Inactive)
REMARK    1  A    between atoms: O_2  and  C_3 
REMARK    2  A    between atoms: C_6  and  C_7 
REMARK    3  A    between atoms: C_13  and  C_14 
REMARK       I    between atoms: C_14  and  N_15 
REMARK    4  A    between atoms: N_15  and  N_16 
REMARK    5  A    between atoms: N_16  and  C_17 
REMARK    6  A    between atoms: C_17  and  N_18 
REMARK    7  A    between atoms: N_18  and  C_19 
REMARK    8  A    between atoms: C_19  and  C_20 
REMARK    9  A    between atoms: C_27  and  C_28 
ROOT
HETATM    1  C   UNL     1      42.316 -15.353   3.116  1.00  0.00     0.118 C 
HETATM    2  N   UNL     1      42.812 -14.399   4.095  1.00  0.00    -0.365 N 
HETATM    3  C   UNL     1      42.781 -13.063   3.868  1.00  0.00     0.138 A 
HETATM    4  N   UNL     1      42.474 -12.575   2.625  1.00  0.00    -0.240 N 
HETATM    5  N   UNL     1      42.598 -11.242   2.521  1.00  0.00    -0.181 NA
HETATM    6  C   UNL     1      42.952 -10.878   3.760  1.00  0.00     0.160 A 
HETATM    7  C   UNL     1      43.024 -11.965   4.669  1.00  0.00     0.098 A 
HETATM    8  C   UNL     1      42.100 -13.403   1.494  1.00  0.00     0.221 C 
HETATM    9  C   UNL     1      42.630 -14.836   1.696  1.00  0.00     0.066 C 
HETATM   10  H   UNL     1      43.013 -14.758   5.033  1.00  0.00     0.161 HD
ENDROOT
BRANCH   7  11
HETATM   11  C   UNL     1      43.335 -11.998   6.088  1.00  0.00     0.275 C 
HETATM   12  N   UNL     1      42.418 -11.489   6.988  1.00  0.00    -0.263 N 
HETATM   13  H   UNL     1      42.671 -11.581   7.971  1.00  0.00     0.190 HD
HETATM   14  O   UNL     1      44.380 -12.488   6.518  1.00  0.00    -0.266 OA
BRANCH  12  15
HETATM   15  N   UNL     1      41.050 -11.285   6.720  1.00  0.00    -0.274 N 
HETATM   16  H   UNL     1      40.453 -12.102   6.817  1.00  0.00     0.189 HD
BRANCH  15  17
HETATM   17  C   UNL     1      40.469 -10.085   7.064  1.00  0.00     0.186 C 
HETATM   18  S   UNL     1      39.798  -8.988   5.996  1.00  0.00    -0.040 SA
BRANCH  17  19
HETATM   19  N   UNL     1      40.419  -9.809   8.398  1.00  0.00    -0.364 N 
HETATM   20  H   UNL     1      40.260 -10.642   8.965  1.00  0.00     0.162 HD
BRANCH  19  21
HETATM   21  C   UNL     1      41.158  -8.758   9.092  1.00  0.00     0.154 C 
BRANCH  21  22
HETATM   22  C   UNL     1      42.102  -9.355  10.138  1.00  0.00     0.139 C 
HETATM   23  O   UNL     1      43.203 -10.017   9.478  1.00  0.00    -0.384 OA
HETATM   24  C   UNL     1      44.418  -9.675  10.159  1.00  0.00     0.168 C 
HETATM   25  C   UNL     1      44.018  -8.989  11.448  1.00  0.00     0.029 C 
HETATM   26  C   UNL     1      42.724  -8.318  11.058  1.00  0.00     0.035 C 
ENDBRANCH  21  22
ENDBRANCH  19  21
ENDBRANCH  17  19
ENDBRANCH  15  17
ENDBRANCH  12  15
ENDBRANCH   7  11
BRANCH   1  27
HETATM   27  C   UNL     1      42.884 -16.729   3.411  1.00  0.00    -0.035 A 
HETATM   28  C   UNL     1      42.932 -17.689   2.387  1.00  0.00     0.012 A 
HETATM   29  C   UNL     1      43.466 -18.964   2.611  1.00  0.00     0.037 A 
HETATM   30  C   UNL     1      43.960 -19.305   3.868  1.00  0.00     0.068 A 
HETATM   31  C   UNL     1      43.878 -18.374   4.904  1.00  0.00     0.037 A 
HETATM   32  C   UNL     1      43.339 -17.102   4.684  1.00  0.00     0.012 A 
BRANCH  30  33
HETATM   33  O   UNL     1      44.526 -20.501   4.213  1.00  0.00    -0.356 OA
HETATM   34  C   UNL     1      44.119 -21.066   5.454  1.00  0.00     0.210 C 
ENDBRANCH  30  33
ENDBRANCH   1  27
BRANCH   8  35
HETATM   35  C   UNL     1      40.600 -13.365   1.308  1.00  0.00     0.409 C 
HETATM   36  F   UNL     1      40.099 -14.500   0.777  1.00  0.00    -0.169 F 
HETATM   37  F   UNL     1      39.936 -13.127   2.461  1.00  0.00    -0.169 F 
HETATM   38  F   UNL     1      40.264 -12.359   0.459  1.00  0.00    -0.169 F 
ENDBRANCH   8  35
TORSDOF 9
ENDMDL
MODEL 7
REMARK VINA RESULT:      -8.4      3.115      5.598
REMARK  9 active torsions:
REMARK  status: ('A' for Active; 'I' for Inactive)
REMARK    1  A    between atoms: O_2  and  C_3 
REMARK    2  A    between atoms: C_6  and  C_7 
REMARK    3  A    between atoms: C_13  and  C_14 
REMARK       I    between atoms: C_14  and  N_15 
REMARK    4  A    between atoms: N_15  and  N_16 
REMARK    5  A    between atoms: N_16  and  C_17 
REMARK    6  A    between atoms: C_17  and  N_18 
REMARK    7  A    between atoms: N_18  and  C_19 
REMARK    8  A    between atoms: C_19  and  C_20 
REMARK    9  A    between atoms: C_27  and  C_28 
ROOT
HETATM    1  C   UNL     1      41.853 -15.387   2.766  1.00  0.00     0.118 C 
HETATM    2  N   UNL     1      41.684 -14.437   3.854  1.00  0.00    -0.365 N 
HETATM    3  C   UNL     1      41.364 -13.140   3.624  1.00  0.00     0.138 A 
HETATM    4  N   UNL     1      41.394 -12.630   2.353  1.00  0.00    -0.240 N 
HETATM    5  N   UNL     1      41.170 -11.307   2.295  1.00  0.00    -0.181 NA
HETATM    6  C   UNL     1      40.947 -10.986   3.575  1.00  0.00     0.160 A 
HETATM    7  C   UNL     1      40.992 -12.100   4.453  1.00  0.00     0.098 A 
HETATM    8  C   UNL     1      41.690 -13.413   1.168  1.00  0.00     0.221 C 
HETATM    9  C   UNL     1      42.491 -14.670   1.558  1.00  0.00     0.066 C 
HETATM   10  H   UNL     1      41.632 -14.821   4.802  1.00  0.00     0.161 HD
ENDROOT
BRANCH   7  11
HETATM   11  C   UNL     1      40.778 -12.189   5.887  1.00  0.00     0.275 C 
HETATM   12  N   UNL     1      41.860 -12.050   6.736  1.00  0.00    -0.263 N 
HETATM   13  H   UNL     1      41.643 -12.076   7.731  1.00  0.00     0.190 HD
HETATM   14  O   UNL     1      39.660 -12.359   6.374  1.00  0.00    -0.266 OA
BRANCH  12  15
HETATM   15  N   UNL     1      43.089 -11.454   6.389  1.00  0.00    -0.274 N 
HETATM   16  H   UNL     1      43.056 -10.784   5.627  1.00  0.00     0.189 HD
BRANCH  15  17
HETATM   17  C   UNL     1      44.006 -11.178   7.379  1.00  0.00     0.186 C 
HETATM   18  S   UNL     1      45.643 -10.934   7.147  1.00  0.00    -0.040 SA
BRANCH  17  19
HETATM   19  N   UNL     1      43.503 -11.065   8.641  1.00  0.00    -0.364 N 
HETATM   20  H   UNL     1      42.868 -11.826   8.879  1.00  0.00     0.162 HD
BRANCH  19  21
HETATM   21  C   UNL     1      44.185 -10.486   9.795  1.00  0.00     0.154 C 
BRANCH  21  22
HETATM   22  C   UNL     1      43.229  -9.617  10.615  1.00  0.00     0.139 C 
HETATM   23  O   UNL     1      42.436 -10.455  11.484  1.00  0.00    -0.384 OA
HETATM   24  C   UNL     1      42.372  -9.840  12.779  1.00  0.00     0.168 C 
HETATM   25  C   UNL     1      42.927  -8.440  12.625  1.00  0.00     0.029 C 
HETATM   26  C   UNL     1      43.936  -8.621  11.518  1.00  0.00     0.035 C 
ENDBRANCH  21  22
ENDBRANCH  19  21
ENDBRANCH  17  19
ENDBRANCH  15  17
ENDBRANCH  12  15
ENDBRANCH   7  11
BRANCH   1  27
HETATM   27  C   UNL     1      42.639 -16.589   3.257  1.00  0.00    -0.035 A 
HETATM   28  C   UNL     1      43.137 -16.597   4.571  1.00  0.00     0.012 A 
HETATM   29  C   UNL     1      43.850 -17.693   5.071  1.00  0.00     0.037 A 
HETATM   30  C   UNL     1      44.083 -18.805   4.262  1.00  0.00     0.068 A 
HETATM   31  C   UNL     1      43.630 -18.789   2.943  1.00  0.00     0.037 A 
HETATM   32  C   UNL     1      42.922 -17.692   2.440  1.00  0.00     0.012 A 
BRANCH  30  33
HETATM   33  O   UNL     1      44.741 -19.944   4.632  1.00  0.00    -0.356 OA
HETATM   34  C   UNL     1      43.997 -20.897   5.383  1.00  0.00     0.210 C 
ENDBRANCH  30  33
ENDBRANCH   1  27
BRANCH   8  35
HETATM   35  C   UNL     1      40.405 -13.750   0.445  1.00  0.00     0.409 C 
HETATM   36  F   UNL     1      40.439 -14.951  -0.172  1.00  0.00    -0.169 F 
HETATM   37  F   UNL     1      39.328 -13.741   1.261  1.00  0.00    -0.169 F 
HETATM   38  F   UNL     1      40.161 -12.826  -0.520  1.00  0.00    -0.169 F 
ENDBRANCH   8  35
TORSDOF 9
ENDMDL
MODEL 8
REMARK VINA RESULT:      -8.3      1.846      2.354
REMARK  9 active torsions:
REMARK  status: ('A' for Active; 'I' for Inactive)
REMARK    1  A    between atoms: O_2  and  C_3 
REMARK    2  A    between atoms: C_6  and  C_7 
REMARK    3  A    between atoms: C_13  and  C_14 
REMARK       I    between atoms: C_14  and  N_15 
REMARK    4  A    between atoms: N_15  and  N_16 
REMARK    5  A    between atoms: N_16  and  C_17 
REMARK    6  A    between atoms: C_17  and  N_18 
REMARK    7  A    between atoms: N_18  and  C_19 
REMARK    8  A    between atoms: C_19  and  C_20 
REMARK    9  A    between atoms: C_27  and  C_28 
ROOT
HETATM    1  C   UNL     1      41.354 -14.586   1.582  1.00  0.00     0.118 C 
HETATM    2  N   UNL     1      41.883 -13.505   2.399  1.00  0.00    -0.365 N 
HETATM    3  C   UNL     1      42.351 -13.722   3.651  1.00  0.00     0.138 A 
HETATM    4  N   UNL     1      42.153 -14.928   4.270  1.00  0.00    -0.240 N 
HETATM    5  N   UNL     1      42.567 -14.956   5.547  1.00  0.00    -0.181 NA
HETATM    6  C   UNL     1      43.086 -13.735   5.720  1.00  0.00     0.160 A 
HETATM    7  C   UNL     1      43.040 -12.931   4.551  1.00  0.00     0.098 A 
HETATM    8  C   UNL     1      41.508 -16.068   3.645  1.00  0.00     0.221 C 
HETATM    9  C   UNL     1      40.611 -15.592   2.487  1.00  0.00     0.066 C 
HETATM   10  H   UNL     1      42.059 -12.612   1.929  1.00  0.00     0.161 HD
ENDROOT
BRANCH   7  11
HETATM   11  C   UNL     1      43.515 -11.581   4.306  1.00  0.00     0.275 C 
HETATM   12  N   UNL     1      42.713 -10.513   4.660  1.00  0.00    -0.263 N 
HETATM   13  H   UNL     1      43.117  -9.590   4.506  1.00  0.00     0.190 HD
HETATM   14  O   UNL     1      44.622 -11.354   3.815  1.00  0.00    -0.266 OA
BRANCH  12  15
HETATM   15  N   UNL     1      41.646 -10.573   5.578  1.00  0.00    -0.274 N 
HETATM   16  H   UNL     1      41.148 -11.457   5.621  1.00  0.00     0.189 HD
BRANCH  15  17
HETATM   17  C   UNL     1      41.748  -9.894   6.773  1.00  0.00     0.186 C 
HETATM   18  S   UNL     1      41.052  -8.414   7.112  1.00  0.00    -0.040 SA
BRANCH  17  19
HETATM   19  N   UNL     1      42.453 -10.524   7.756  1.00  0.00    -0.364 N 
HETATM   20  H   UNL     1      43.044 -11.273   7.396  1.00  0.00     0.162 HD
BRANCH  19  21
HETATM   21  C   UNL     1      42.957  -9.915   8.983  1.00  0.00     0.154 C 
BRANCH  21  22
HETATM   22  C   UNL     1      44.485  -9.987   9.040  1.00  0.00     0.139 C 
HETATM   23  O   UNL     1      44.945 -11.132   8.290  1.00  0.00    -0.384 OA
HETATM   24  C   UNL     1      46.078 -10.737   7.502  1.00  0.00     0.168 C 
HETATM   25  C   UNL     1      46.491  -9.365   7.989  1.00  0.00     0.029 C 
HETATM   26  C   UNL     1      45.173  -8.778   8.431  1.00  0.00     0.035 C 
ENDBRANCH  21  22
ENDBRANCH  19  21
ENDBRANCH  17  19
ENDBRANCH  15  17
ENDBRANCH  12  15
ENDBRANCH   7  11
BRANCH   1  27
HETATM   27  C   UNL     1      40.500 -14.012   0.466  1.00  0.00    -0.035 A 
HETATM   28  C   UNL     1      40.321 -12.621   0.382  1.00  0.00     0.012 A 
HETATM   29  C   UNL     1      39.558 -12.047  -0.642  1.00  0.00     0.037 A 
HETATM   30  C   UNL     1      38.954 -12.856  -1.602  1.00  0.00     0.068 A 
HETATM   31  C   UNL     1      39.089 -14.241  -1.503  1.00  0.00     0.037 A 
HETATM   32  C   UNL     1      39.846 -14.817  -0.477  1.00  0.00     0.012 A 
BRANCH  30  33
HETATM   33  O   UNL     1      38.206 -12.425  -2.662  1.00  0.00    -0.356 OA
HETATM   34  C   UNL     1      37.327 -11.332  -2.421  1.00  0.00     0.210 C 
ENDBRANCH  30  33
ENDBRANCH   1  27
BRANCH   8  35
HETATM   35  C   UNL     1      42.555 -17.061   3.194  1.00  0.00     0.409 C 
HETATM   36  F   UNL     1      42.110 -17.910   2.242  1.00  0.00    -0.169 F 
HETATM   37  F   UNL     1      43.670 -16.465   2.718  1.00  0.00    -0.169 F 
HETATM   38  F   UNL     1      42.949 -17.829   4.243  1.00  0.00    -0.169 F 
ENDBRANCH   8  35
TORSDOF 9
ENDMDL
MODEL 9
REMARK VINA RESULT:      -8.2      3.455      7.828
REMARK  9 active torsions:
REMARK  status: ('A' for Active; 'I' for Inactive)
REMARK    1  A    between atoms: O_2  and  C_3 
REMARK    2  A    between atoms: C_6  and  C_7 
REMARK    3  A    between atoms: C_13  and  C_14 
REMARK       I    between atoms: C_14  and  N_15 
REMARK    4  A    between atoms: N_15  and  N_16 
REMARK    5  A    between atoms: N_16  and  C_17 
REMARK    6  A    between atoms: C_17  and  N_18 
REMARK    7  A    between atoms: N_18  and  C_19 
REMARK    8  A    between atoms: C_19  and  C_20 
REMARK    9  A    between atoms: C_27  and  C_28 
ROOT
HETATM    1  C   UNL     1      43.174 -14.076   4.233  1.00  0.00     0.118 C 
HETATM    2  N   UNL     1      42.554 -13.225   3.230  1.00  0.00    -0.365 N 
HETATM    3  C   UNL     1      42.007 -12.027   3.550  1.00  0.00     0.138 A 
HETATM    4  N   UNL     1      41.832 -11.670   4.861  1.00  0.00    -0.240 N 
HETATM    5  N   UNL     1      41.173 -10.511   5.024  1.00  0.00    -0.181 NA
HETATM    6  C   UNL     1      40.967 -10.106   3.765  1.00  0.00     0.160 A 
HETATM    7  C   UNL     1      41.521 -10.980   2.792  1.00  0.00     0.098 A 
HETATM    8  C   UNL     1      42.262 -12.475   5.990  1.00  0.00     0.221 C 
HETATM    9  C   UNL     1      42.395 -13.949   5.560  1.00  0.00     0.066 C 
HETATM   10  H   UNL     1      42.710 -13.475   2.249  1.00  0.00     0.161 HD
ENDROOT
BRANCH   7  11
HETATM   11  C   UNL     1      41.547 -10.894   1.343  1.00  0.00     0.275 C 
HETATM   12  N   UNL     1      40.890 -11.858   0.602  1.00  0.00    -0.263 N 
HETATM   13  H   UNL     1      40.905 -11.721  -0.408  1.00  0.00     0.190 HD
HETATM   14  O   UNL     1      42.116  -9.976   0.751  1.00  0.00    -0.266 OA
BRANCH  12  15
HETATM   15  N   UNL     1      39.877 -12.705   1.094  1.00  0.00    -0.274 N 
HETATM   16  H   UNL     1      38.937 -12.319   1.090  1.00  0.00     0.189 HD
BRANCH  15  17
HETATM   17  C   UNL     1      39.960 -14.059   0.861  1.00  0.00     0.186 C 
HETATM   18  S   UNL     1      39.754 -15.258   2.007  1.00  0.00    -0.040 SA
BRANCH  17  19
HETATM   19  N   UNL     1      40.196 -14.427  -0.431  1.00  0.00    -0.364 N 
HETATM   20  H   UNL     1      40.942 -15.117  -0.511  1.00  0.00     0.162 HD
BRANCH  19  21
HETATM   21  C   UNL     1      39.208 -14.502  -1.503  1.00  0.00     0.154 C 
BRANCH  21  22
HETATM   22  C   UNL     1      39.409 -13.369  -2.511  1.00  0.00     0.139 C 
HETATM   23  O   UNL     1      38.904 -12.133  -1.960  1.00  0.00    -0.384 OA
HETATM   24  C   UNL     1      39.847 -11.088  -2.239  1.00  0.00     0.168 C 
HETATM   25  C   UNL     1      40.843 -11.652  -3.231  1.00  0.00     0.029 C 
HETATM   26  C   UNL     1      40.867 -13.114  -2.855  1.00  0.00     0.035 C 
ENDBRANCH  21  22
ENDBRANCH  19  21
ENDBRANCH  17  19
ENDBRANCH  15  17
ENDBRANCH  12  15
ENDBRANCH   7  11
BRANCH   1  27
HETATM   27  C   UNL     1      43.270 -15.496   3.708  1.00  0.00    -0.035 A 
HETATM   28  C   UNL     1      43.443 -16.556   4.614  1.00  0.00     0.012 A 
HETATM   29  C   UNL     1      43.517 -17.883   4.174  1.00  0.00     0.037 A 
HETATM   30  C   UNL     1      43.424 -18.177   2.815  1.00  0.00     0.068 A 
HETATM   31  C   UNL     1      43.295 -17.129   1.903  1.00  0.00     0.037 A 
HETATM   32  C   UNL     1      43.227 -15.801   2.341  1.00  0.00     0.012 A 
BRANCH  30  33
HETATM   33  O   UNL     1      43.458 -19.424   2.257  1.00  0.00    -0.356 OA
HETATM   34  C   UNL     1      43.771 -20.505   3.129  1.00  0.00     0.210 C 
ENDBRANCH  30  33
ENDBRANCH   1  27
BRANCH   8  35
HETATM   35  C   UNL     1      43.551 -11.919   6.551  1.00  0.00     0.409 C 
HETATM   36  F   UNL     1      43.358 -11.023   7.542  1.00  0.00    -0.169 F 
HETATM   37  F   UNL     1      44.372 -12.881   7.027  1.00  0.00    -0.169 F 
HETATM   38  F   UNL     1      44.241 -11.275   5.575  1.00  0.00    -0.169 F 
ENDBRANCH   8  35
TORSDOF 9
ENDMDL
MODEL 10
REMARK VINA RESULT:      -8.0      3.338      7.483
REMARK  9 active torsions:
REMARK  status: ('A' for Active; 'I' for Inactive)
REMARK    1  A    between atoms: O_2  and  C_3 
REMARK    2  A    between atoms: C_6  and  C_7 
REMARK    3  A    between atoms: C_13  and  C_14 
REMARK       I    between atoms: C_14  and  N_15 
REMARK    4  A    between atoms: N_15  and  N_16 
REMARK    5  A    between atoms: N_16  and  C_17 
REMARK    6  A    between atoms: C_17  and  N_18 
REMARK    7  A    between atoms: N_18  and  C_19 
REMARK    8  A    between atoms: C_19  and  C_20 
REMARK    9  A    between atoms: C_27  and  C_28 
ROOT
HETATM    1  C   UNL     1      43.122 -14.475   4.401  1.00  0.00     0.118 C 
HETATM    2  N   UNL     1      41.864 -13.979   3.865  1.00  0.00    -0.365 N 
HETATM    3  C   UNL     1      41.255 -12.882   4.376  1.00  0.00     0.138 A 
HETATM    4  N   UNL     1      41.694 -12.323   5.546  1.00  0.00    -0.240 N 
HETATM    5  N   UNL     1      40.923 -11.317   5.989  1.00  0.00    -0.181 NA
HETATM    6  C   UNL     1      39.991 -11.212   5.034  1.00  0.00     0.160 A 
HETATM    7  C   UNL     1      40.177 -12.123   3.962  1.00  0.00     0.098 A 
HETATM    8  C   UNL     1      42.850 -12.790   6.289  1.00  0.00     0.221 C 
HETATM    9  C   UNL     1      43.145 -14.259   5.929  1.00  0.00     0.066 C 
HETATM   10  H   UNL     1      41.550 -14.376   2.975  1.00  0.00     0.161 HD
ENDROOT
BRANCH   7  11
HETATM   11  C   UNL     1      39.423 -12.314   2.735  1.00  0.00     0.275 C 
HETATM   12  N   UNL     1      39.425 -11.312   1.783  1.00  0.00    -0.263 N 
HETATM   13  H   UNL     1      38.917 -11.521   0.925  1.00  0.00     0.190 HD
HETATM   14  O   UNL     1      38.800 -13.351   2.503  1.00  0.00    -0.266 OA
BRANCH  12  15
HETATM   15  N   UNL     1      40.382 -10.282   1.697  1.00  0.00    -0.274 N 
HETATM   16  H   UNL     1      41.306 -10.504   2.057  1.00  0.00     0.189 HD
BRANCH  15  17
HETATM   17  C   UNL     1      40.360  -9.431   0.614  1.00  0.00     0.186 C 
HETATM   18  S   UNL     1      40.601  -7.779   0.670  1.00  0.00    -0.040 SA
BRANCH  17  19
HETATM   19  N   UNL     1      40.157 -10.019  -0.600  1.00  0.00    -0.364 N 
HETATM   20  H   UNL     1      39.259  -9.766  -1.012  1.00  0.00     0.162 HD
BRANCH  19  21
HETATM   21  C   UNL     1      41.184 -10.349  -1.583  1.00  0.00     0.154 C 
BRANCH  21  22
HETATM   22  C   UNL     1      41.292 -11.864  -1.773  1.00  0.00     0.139 C 
HETATM   23  O   UNL     1      40.782 -12.538  -0.601  1.00  0.00    -0.384 OA
HETATM   24  C   UNL     1      39.963 -13.636  -1.025  1.00  0.00     0.168 C 
HETATM   25  C   UNL     1      40.192 -13.804  -2.512  1.00  0.00     0.029 C 
HETATM   26  C   UNL     1      40.482 -12.388  -2.947  1.00  0.00     0.035 C 
ENDBRANCH  21  22
ENDBRANCH  19  21
ENDBRANCH  17  19
ENDBRANCH  15  17
ENDBRANCH  12  15
ENDBRANCH   7  11
BRANCH   1  27
HETATM   27  C   UNL     1      43.322 -15.919   3.979  1.00  0.00    -0.035 A 
HETATM   28  C   UNL     1      43.852 -16.839   4.899  1.00  0.00     0.012 A 
HETATM   29  C   UNL     1      44.035 -18.184   4.558  1.00  0.00     0.037 A 
HETATM   30  C   UNL     1      43.694 -18.636   3.285  1.00  0.00     0.068 A 
HETATM   31  C   UNL     1      43.208 -17.723   2.349  1.00  0.00     0.037 A 
HETATM   32  C   UNL     1      43.030 -16.376   2.687  1.00  0.00     0.012 A 
BRANCH  30  33
HETATM   33  O   UNL     1      43.800 -19.922   2.833  1.00  0.00    -0.356 OA
HETATM   34  C   UNL     1      43.887 -20.942   3.822  1.00  0.00     0.210 C 
ENDBRANCH  30  33
ENDBRANCH   1  27
BRANCH   8  35
HETATM   35  C   UNL     1      44.029 -11.882   6.020  1.00  0.00     0.409 C 
HETATM   36  F   UNL     1      45.216 -12.440   6.343  1.00  0.00    -0.169 F 
HETATM   37  F   UNL     1      44.102 -11.489   4.729  1.00  0.00    -0.169 F 
HETATM   38  F   UNL     1      43.920 -10.749   6.760  1.00  0.00    -0.169 F 
ENDBRANCH   8  35
TORSDOF 9
ENDMDL
