MODEL 1
REMARK VINA RESULT:      -8.8      0.000      0.000
REMARK  9 active torsions:
REMARK  status: ('A' for Active; 'I' for Inactive)
REMARK    1  A    between atoms: C_4  and  N_5 
REMARK    2  A    between atoms: C_6  and  S_7 
REMARK    3  A    between atoms: S_7  and  C_8 
REMARK    4  A    between atoms: C_8  and  C_9 
REMARK       I    between atoms: C_9  and  N_10 
REMARK    5  A    between atoms: N_10  and  C_11 
REMARK    6  A    between atoms: C_12  and  C_13 
REMARK       I    between atoms: C_13  and  N_14 
REMARK    7  A    between atoms: N_14  and  C_15 
REMARK    8  A    between atoms: C_26  and  C_27 
REMARK    9  A    between atoms: C_27  and  N_28 
ROOT
HETATM    1  S   UNL     1      42.874 -13.456   5.688  1.00  0.00    -0.080 SA
ENDROOT
BRANCH   1   2
HETATM    2  C   UNL     1      43.510 -12.234   6.732  1.00  0.00     0.196 C 
HETATM    3  N   UNL     1      42.917 -11.017   7.027  1.00  0.00    -0.274 N 
HETATM    4  C   UNL     1      43.727 -10.509   8.034  1.00  0.00     0.161 C 
HETATM    5  N   UNL     1      44.831 -11.217   8.127  1.00  0.00    -0.132 NA
HETATM    6  N   UNL     1      44.694 -12.289   7.300  1.00  0.00    -0.122 NA
BRANCH   3   7
HETATM    7  C   UNL     1      41.787 -10.366   6.468  1.00  0.00     0.043 A 
HETATM    8  C   UNL     1      40.502 -10.548   6.984  1.00  0.00     0.030 A 
HETATM    9  C   UNL     1      39.416  -9.900   6.388  1.00  0.00     0.002 A 
HETATM   10  C   UNL     1      39.606  -9.081   5.276  1.00  0.00     0.000 A 
HETATM   11  C   UNL     1      40.884  -8.901   4.754  1.00  0.00     0.002 A 
HETATM   12  C   UNL     1      41.975  -9.538   5.348  1.00  0.00     0.030 A 
ENDBRANCH   3   7
BRANCH   4  13
HETATM   13  C   UNL     1      43.321  -9.475   9.019  1.00  0.00     0.315 C 
BRANCH  13  14
HETATM   14  N   UNL     1      42.573 -10.095  10.180  1.00  0.00    -0.064 N 
HETATM   15  H   UNL     1      42.176 -10.973   9.806  1.00  0.00     0.280 HD
HETATM   16  C   UNL     1      41.374  -9.291  10.667  1.00  0.00     0.235 C 
HETATM   17  C   UNL     1      41.746  -8.908  12.087  1.00  0.00     0.029 C 
HETATM   18  C   UNL     1      42.560 -10.093  12.566  1.00  0.00     0.029 C 
HETATM   19  C   UNL     1      43.439 -10.406  11.373  1.00  0.00     0.235 C 
ENDBRANCH  13  14
ENDBRANCH   4  13
ENDBRANCH   1   2
BRANCH   1  20
HETATM   20  C   UNL     1      43.515 -14.972   6.443  1.00  0.00     0.185 C 
BRANCH  20  21
HETATM   21  C   UNL     1      43.016 -16.229   5.738  1.00  0.00     0.231 C 
HETATM   22  N   UNL     1      44.020 -16.927   5.088  1.00  0.00    -0.326 N 
HETATM   23  H   UNL     1      44.897 -16.436   4.961  1.00  0.00     0.169 HD
HETATM   24  O   UNL     1      41.821 -16.509   5.692  1.00  0.00    -0.272 OA
BRANCH  22  25
HETATM   25  C   UNL     1      43.854 -18.093   4.312  1.00  0.00     0.050 A 
HETATM   26  C   UNL     1      43.493 -18.148   2.958  1.00  0.00     0.058 A 
HETATM   27  C   UNL     1      43.446 -19.387   2.292  1.00  0.00     0.019 A 
HETATM   28  C   UNL     1      43.734 -20.570   2.972  1.00  0.00     0.001 A 
HETATM   29  C   UNL     1      44.032 -20.528   4.329  1.00  0.00     0.002 A 
HETATM   30  C   UNL     1      44.078 -19.301   4.995  1.00  0.00     0.030 A 
BRANCH  26  31
HETATM   31  C   UNL     1      42.917 -17.014   2.196  1.00  0.00     0.254 C 
HETATM   32  N   UNL     1      41.663 -16.634   2.621  1.00  0.00    -0.352 N 
HETATM   33  H   UNL     1      41.105 -17.367   3.057  1.00  0.00     0.163 HD
HETATM   34  O   UNL     1      43.597 -16.440   1.349  1.00  0.00    -0.268 OA
BRANCH  32  35
HETATM   35  C   UNL     1      40.975 -15.474   2.157  1.00  0.00     0.084 A 
HETATM   36  C   UNL     1      40.100 -15.476   0.936  1.00  0.00     0.027 A 
HETATM   37  C   UNL     1      39.479 -15.387   2.298  1.00  0.00     0.027 A 
ENDBRANCH  32  35
ENDBRANCH  26  31
ENDBRANCH  22  25
ENDBRANCH  20  21
ENDBRANCH   1  20
TORSDOF 9
ENDMDL
MODEL 2
REMARK VINA RESULT:      -8.7      2.638      9.040
REMARK  9 active torsions:
REMARK  status: ('A' for Active; 'I' for Inactive)
REMARK    1  A    between atoms: C_4  and  N_5 
REMARK    2  A    between atoms: C_6  and  S_7 
REMARK    3  A    between atoms: S_7  and  C_8 
REMARK    4  A    between atoms: C_8  and  C_9 
REMARK       I    between atoms: C_9  and  N_10 
REMARK    5  A    between atoms: N_10  and  C_11 
REMARK    6  A    between atoms: C_12  and  C_13 
REMARK       I    between atoms: C_13  and  N_14 
REMARK    7  A    between atoms: N_14  and  C_15 
REMARK    8  A    between atoms: C_26  and  C_27 
REMARK    9  A    between atoms: C_27  and  N_28 
ROOT
HETATM    1  S   UNL     1      39.617 -12.038   4.705  1.00  0.00    -0.080 SA
ENDROOT
BRANCH   1   2
HETATM    2  C   UNL     1      40.659 -13.395   4.943  1.00  0.00     0.196 C 
HETATM    3  N   UNL     1      41.176 -14.216   3.954  1.00  0.00    -0.274 N 
HETATM    4  C   UNL     1      42.078 -15.013   4.647  1.00  0.00     0.161 C 
HETATM    5  N   UNL     1      41.908 -14.869   5.942  1.00  0.00    -0.132 NA
HETATM    6  N   UNL     1      41.008 -13.863   6.122  1.00  0.00    -0.122 NA
BRANCH   3   7
HETATM    7  C   UNL     1      40.889 -14.307   2.568  1.00  0.00     0.043 A 
HETATM    8  C   UNL     1      41.278 -13.313   1.668  1.00  0.00     0.030 A 
HETATM    9  C   UNL     1      40.955 -13.436   0.313  1.00  0.00     0.002 A 
HETATM   10  C   UNL     1      40.239 -14.543  -0.144  1.00  0.00     0.000 A 
HETATM   11  C   UNL     1      39.844 -15.534   0.750  1.00  0.00     0.002 A 
HETATM   12  C   UNL     1      40.168 -15.422   2.102  1.00  0.00     0.030 A 
ENDBRANCH   3   7
BRANCH   4  13
HETATM   13  C   UNL     1      43.221 -15.741   4.038  1.00  0.00     0.315 C 
BRANCH  13  14
HETATM   14  N   UNL     1      42.904 -17.212   3.877  1.00  0.00    -0.064 N 
HETATM   15  H   UNL     1      41.912 -17.305   4.154  1.00  0.00     0.280 HD
HETATM   16  C   UNL     1      43.669 -18.135   4.816  1.00  0.00     0.235 C 
HETATM   17  C   UNL     1      44.512 -18.985   3.883  1.00  0.00     0.029 C 
HETATM   18  C   UNL     1      43.639 -19.125   2.654  1.00  0.00     0.029 C 
HETATM   19  C   UNL     1      43.080 -17.728   2.472  1.00  0.00     0.235 C 
ENDBRANCH  13  14
ENDBRANCH   4  13
ENDBRANCH   1   2
BRANCH   1  20
HETATM   20  C   UNL     1      39.885 -11.082   6.219  1.00  0.00     0.185 C 
BRANCH  20  21
HETATM   21  C   UNL     1      41.289 -10.492   6.294  1.00  0.00     0.231 C 
HETATM   22  N   UNL     1      42.142 -11.212   7.113  1.00  0.00    -0.326 N 
HETATM   23  H   UNL     1      41.707 -11.890   7.727  1.00  0.00     0.169 HD
HETATM   24  O   UNL     1      41.571  -9.429   5.746  1.00  0.00    -0.272 OA
BRANCH  22  25
HETATM   25  C   UNL     1      43.480 -10.881   7.418  1.00  0.00     0.050 A 
HETATM   26  C   UNL     1      43.924 -10.138   8.520  1.00  0.00     0.058 A 
HETATM   27  C   UNL     1      45.303  -9.958   8.738  1.00  0.00     0.019 A 
HETATM   28  C   UNL     1      46.237 -10.493   7.852  1.00  0.00     0.001 A 
HETATM   29  C   UNL     1      45.801 -11.176   6.723  1.00  0.00     0.002 A 
HETATM   30  C   UNL     1      44.434 -11.357   6.502  1.00  0.00     0.030 A 
BRANCH  26  31
HETATM   31  C   UNL     1      43.048  -9.308   9.381  1.00  0.00     0.254 C 
HETATM   32  N   UNL     1      43.097  -9.643  10.717  1.00  0.00    -0.352 N 
HETATM   33  H   UNL     1      43.340 -10.611  10.919  1.00  0.00     0.163 HD
HETATM   34  O   UNL     1      42.446  -8.352   8.898  1.00  0.00    -0.268 OA
BRANCH  32  35
HETATM   35  C   UNL     1      42.475  -8.890  11.756  1.00  0.00     0.084 A 
HETATM   36  C   UNL     1      42.507  -9.307  13.199  1.00  0.00     0.027 A 
HETATM   37  C   UNL     1      43.325  -8.136  12.744  1.00  0.00     0.027 A 
ENDBRANCH  32  35
ENDBRANCH  26  31
ENDBRANCH  22  25
ENDBRANCH  20  21
ENDBRANCH   1  20
TORSDOF 9
ENDMDL
MODEL 3
REMARK VINA RESULT:      -8.6      3.272      9.687
REMARK  9 active torsions:
REMARK  status: ('A' for Active; 'I' for Inactive)
REMARK    1  A    between atoms: C_4  and  N_5 
REMARK    2  A    between atoms: C_6  and  S_7 
REMARK    3  A    between atoms: S_7  and  C_8 
REMARK    4  A    between atoms: C_8  and  C_9 
REMARK       I    between atoms: C_9  and  N_10 
REMARK    5  A    between atoms: N_10  and  C_11 
REMARK    6  A    between atoms: C_12  and  C_13 
REMARK       I    between atoms: C_13  and  N_14 
REMARK    7  A    between atoms: N_14  and  C_15 
REMARK    8  A    between atoms: C_26  and  C_27 
REMARK    9  A    between atoms: C_27  and  N_28 
ROOT
HETATM    1  S   UNL     1      39.920 -13.008   4.764  1.00  0.00    -0.080 SA
ENDROOT
BRANCH   1   2
HETATM    2  C   UNL     1      40.096 -12.426   3.146  1.00  0.00     0.196 C 
HETATM    3  N   UNL     1      40.673 -13.108   2.087  1.00  0.00    -0.274 N 
HETATM    4  C   UNL     1      40.397 -12.292   0.998  1.00  0.00     0.161 C 
HETATM    5  N   UNL     1      39.952 -11.125   1.410  1.00  0.00    -0.132 NA
HETATM    6  N   UNL     1      39.778 -11.211   2.758  1.00  0.00    -0.122 NA
BRANCH   3   7
HETATM    7  C   UNL     1      41.406 -14.323   2.044  1.00  0.00     0.043 A 
HETATM    8  C   UNL     1      40.785 -15.564   2.201  1.00  0.00     0.030 A 
HETATM    9  C   UNL     1      41.552 -16.733   2.170  1.00  0.00     0.002 A 
HETATM   10  C   UNL     1      42.933 -16.667   1.992  1.00  0.00     0.000 A 
HETATM   11  C   UNL     1      43.557 -15.432   1.840  1.00  0.00     0.002 A 
HETATM   12  C   UNL     1      42.799 -14.261   1.863  1.00  0.00     0.030 A 
ENDBRANCH   3   7
BRANCH   4  13
HETATM   13  C   UNL     1      40.376 -12.733  -0.419  1.00  0.00     0.315 C 
BRANCH  13  14
HETATM   14  N   UNL     1      39.058 -13.393  -0.763  1.00  0.00    -0.064 N 
HETATM   15  H   UNL     1      38.657 -13.683   0.145  1.00  0.00     0.280 HD
HETATM   16  C   UNL     1      39.181 -14.678  -1.572  1.00  0.00     0.235 C 
HETATM   17  C   UNL     1      38.498 -14.347  -2.885  1.00  0.00     0.029 C 
HETATM   18  C   UNL     1      37.396 -13.392  -2.475  1.00  0.00     0.029 C 
HETATM   19  C   UNL     1      38.084 -12.489  -1.472  1.00  0.00     0.235 C 
ENDBRANCH  13  14
ENDBRANCH   4  13
ENDBRANCH   1   2
BRANCH   1  20
HETATM   20  C   UNL     1      39.897 -11.470   5.720  1.00  0.00     0.185 C 
BRANCH  20  21
HETATM   21  C   UNL     1      41.281 -10.846   5.852  1.00  0.00     0.231 C 
HETATM   22  N   UNL     1      42.132 -11.571   6.670  1.00  0.00    -0.326 N 
HETATM   23  H   UNL     1      41.700 -12.280   7.250  1.00  0.00     0.169 HD
HETATM   24  O   UNL     1      41.548  -9.759   5.347  1.00  0.00    -0.272 OA
BRANCH  22  25
HETATM   25  C   UNL     1      43.452 -11.215   7.022  1.00  0.00     0.050 A 
HETATM   26  C   UNL     1      43.851 -10.532   8.179  1.00  0.00     0.058 A 
HETATM   27  C   UNL     1      45.218 -10.319   8.435  1.00  0.00     0.019 A 
HETATM   28  C   UNL     1      46.186 -10.761   7.533  1.00  0.00     0.001 A 
HETATM   29  C   UNL     1      45.794 -11.383   6.354  1.00  0.00     0.002 A 
HETATM   30  C   UNL     1      44.438 -11.596   6.095  1.00  0.00     0.030 A 
BRANCH  26  31
HETATM   31  C   UNL     1      42.931  -9.792   9.076  1.00  0.00     0.254 C 
HETATM   32  N   UNL     1      43.005 -10.179  10.396  1.00  0.00    -0.352 N 
HETATM   33  H   UNL     1      43.305 -11.140  10.557  1.00  0.00     0.163 HD
HETATM   34  O   UNL     1      42.272  -8.853   8.635  1.00  0.00    -0.268 OA
BRANCH  32  35
HETATM   35  C   UNL     1      42.344  -9.509  11.467  1.00  0.00     0.084 A 
HETATM   36  C   UNL     1      42.519  -9.899  12.908  1.00  0.00     0.027 A 
HETATM   37  C   UNL     1      43.135  -8.630  12.400  1.00  0.00     0.027 A 
ENDBRANCH  32  35
ENDBRANCH  26  31
ENDBRANCH  22  25
ENDBRANCH  20  21
ENDBRANCH   1  20
TORSDOF 9
ENDMDL
MODEL 4
REMARK VINA RESULT:      -8.6      2.899      8.918
REMARK  9 active torsions:
REMARK  status: ('A' for Active; 'I' for Inactive)
REMARK    1  A    between atoms: C_4  and  N_5 
REMARK    2  A    between atoms: C_6  and  S_7 
REMARK    3  A    between atoms: S_7  and  C_8 
REMARK    4  A    between atoms: C_8  and  C_9 
REMARK       I    between atoms: C_9  and  N_10 
REMARK    5  A    between atoms: N_10  and  C_11 
REMARK    6  A    between atoms: C_12  and  C_13 
REMARK       I    between atoms: C_13  and  N_14 
REMARK    7  A    between atoms: N_14  and  C_15 
REMARK    8  A    between atoms: C_26  and  C_27 
REMARK    9  A    between atoms: C_27  and  N_28 
ROOT
HETATM    1  S   UNL     1      39.504 -11.795   5.951  1.00  0.00    -0.080 SA
ENDROOT
BRANCH   1   2
HETATM    2  C   UNL     1      39.615 -12.700   4.483  1.00  0.00     0.196 C 
HETATM    3  N   UNL     1      40.277 -13.905   4.310  1.00  0.00    -0.274 N 
HETATM    4  C   UNL     1      39.907 -14.286   3.027  1.00  0.00     0.161 C 
HETATM    5  N   UNL     1      39.320 -13.284   2.410  1.00  0.00    -0.132 NA
HETATM    6  N   UNL     1      39.152 -12.289   3.323  1.00  0.00    -0.122 NA
BRANCH   3   7
HETATM    7  C   UNL     1      41.154 -14.622   5.164  1.00  0.00     0.043 A 
HETATM    8  C   UNL     1      40.731 -15.743   5.881  1.00  0.00     0.030 A 
HETATM    9  C   UNL     1      41.626 -16.407   6.726  1.00  0.00     0.002 A 
HETATM   10  C   UNL     1      42.937 -15.951   6.863  1.00  0.00     0.000 A 
HETATM   11  C   UNL     1      43.362 -14.831   6.155  1.00  0.00     0.002 A 
HETATM   12  C   UNL     1      42.477 -14.167   5.305  1.00  0.00     0.030 A 
ENDBRANCH   3   7
BRANCH   4  13
HETATM   13  C   UNL     1      39.947 -15.674   2.501  1.00  0.00     0.315 C 
BRANCH  13  14
HETATM   14  N   UNL     1      41.234 -15.932   1.748  1.00  0.00    -0.064 N 
HETATM   15  H   UNL     1      40.938 -16.242   0.807  1.00  0.00     0.280 HD
HETATM   16  C   UNL     1      42.077 -17.075   2.298  1.00  0.00     0.235 C 
HETATM   17  C   UNL     1      43.357 -16.399   2.750  1.00  0.00     0.029 C 
HETATM   18  C   UNL     1      43.528 -15.272   1.753  1.00  0.00     0.029 C 
HETATM   19  C   UNL     1      42.123 -14.722   1.617  1.00  0.00     0.235 C 
ENDBRANCH  13  14
ENDBRANCH   4  13
ENDBRANCH   1   2
BRANCH   1  20
HETATM   20  C   UNL     1      39.952 -10.127   5.404  1.00  0.00     0.185 C 
BRANCH  20  21
HETATM   21  C   UNL     1      41.405  -9.785   5.712  1.00  0.00     0.231 C 
HETATM   22  N   UNL     1      42.077 -10.798   6.375  1.00  0.00    -0.326 N 
HETATM   23  H   UNL     1      41.503 -11.534   6.769  1.00  0.00     0.169 HD
HETATM   24  O   UNL     1      41.870  -8.674   5.470  1.00  0.00    -0.272 OA
BRANCH  22  25
HETATM   25  C   UNL     1      43.410 -10.751   6.835  1.00  0.00     0.050 A 
HETATM   26  C   UNL     1      43.840 -10.325   8.100  1.00  0.00     0.058 A 
HETATM   27  C   UNL     1      45.201 -10.411   8.446  1.00  0.00     0.019 A 
HETATM   28  C   UNL     1      46.137 -10.896   7.533  1.00  0.00     0.001 A 
HETATM   29  C   UNL     1      45.726 -11.260   6.256  1.00  0.00     0.002 A 
HETATM   30  C   UNL     1      44.377 -11.175   5.907  1.00  0.00     0.030 A 
BRANCH  26  31
HETATM   31  C   UNL     1      43.006  -9.558   9.056  1.00  0.00     0.254 C 
HETATM   32  N   UNL     1      42.914 -10.134  10.304  1.00  0.00    -0.352 N 
HETATM   33  H   UNL     1      43.025 -11.147  10.332  1.00  0.00     0.163 HD
HETATM   34  O   UNL     1      42.558  -8.461   8.733  1.00  0.00    -0.268 OA
BRANCH  32  35
HETATM   35  C   UNL     1      42.308  -9.510  11.434  1.00  0.00     0.084 A 
HETATM   36  C   UNL     1      42.520  -9.985  12.843  1.00  0.00     0.027 A 
HETATM   37  C   UNL     1      43.153  -8.705  12.386  1.00  0.00     0.027 A 
ENDBRANCH  32  35
ENDBRANCH  26  31
ENDBRANCH  22  25
ENDBRANCH  20  21
ENDBRANCH   1  20
TORSDOF 9
ENDMDL
MODEL 5
REMARK VINA RESULT:      -8.5      3.382      8.979
REMARK  9 active torsions:
REMARK  status: ('A' for Active; 'I' for Inactive)
REMARK    1  A    between atoms: C_4  and  N_5 
REMARK    2  A    between atoms: C_6  and  S_7 
REMARK    3  A    between atoms: S_7  and  C_8 
REMARK    4  A    between atoms: C_8  and  C_9 
REMARK       I    between atoms: C_9  and  N_10 
REMARK    5  A    between atoms: N_10  and  C_11 
REMARK    6  A    between atoms: C_12  and  C_13 
REMARK       I    between atoms: C_13  and  N_14 
REMARK    7  A    between atoms: N_14  and  C_15 
REMARK    8  A    between atoms: C_26  and  C_27 
REMARK    9  A    between atoms: C_27  and  N_28 
ROOT
HETATM    1  S   UNL     1      44.380 -11.960   7.149  1.00  0.00    -0.080 SA
ENDROOT
BRANCH   1   2
HETATM    2  C   UNL     1      44.000 -12.026   5.464  1.00  0.00     0.196 C 
HETATM    3  N   UNL     1      43.077 -12.867   4.863  1.00  0.00    -0.274 N 
HETATM    4  C   UNL     1      43.024 -12.395   3.558  1.00  0.00     0.161 C 
HETATM    5  N   UNL     1      44.009 -11.552   3.342  1.00  0.00    -0.132 NA
HETATM    6  N   UNL     1      44.624 -11.334   4.536  1.00  0.00    -0.122 NA
BRANCH   3   7
HETATM    7  C   UNL     1      42.349 -13.974   5.371  1.00  0.00     0.043 A 
HETATM    8  C   UNL     1      42.903 -15.255   5.429  1.00  0.00     0.030 A 
HETATM    9  C   UNL     1      42.141 -16.319   5.921  1.00  0.00     0.002 A 
HETATM   10  C   UNL     1      40.828 -16.112   6.345  1.00  0.00     0.000 A 
HETATM   11  C   UNL     1      40.270 -14.838   6.283  1.00  0.00     0.002 A 
HETATM   12  C   UNL     1      41.026 -13.769   5.801  1.00  0.00     0.030 A 
ENDBRANCH   3   7
BRANCH   4  13
HETATM   13  C   UNL     1      41.900 -12.615   2.613  1.00  0.00     0.315 C 
BRANCH  13  14
HETATM   14  N   UNL     1      42.210 -13.744   1.654  1.00  0.00    -0.064 N 
HETATM   15  H   UNL     1      42.286 -13.294   0.726  1.00  0.00     0.280 HD
HETATM   16  C   UNL     1      41.103 -14.779   1.507  1.00  0.00     0.235 C 
HETATM   17  C   UNL     1      41.728 -16.057   2.032  1.00  0.00     0.029 C 
HETATM   18  C   UNL     1      43.183 -15.923   1.636  1.00  0.00     0.029 C 
HETATM   19  C   UNL     1      43.492 -14.475   1.960  1.00  0.00     0.235 C 
ENDBRANCH  13  14
ENDBRANCH   4  13
ENDBRANCH   1   2
BRANCH   1  20
HETATM   20  C   UNL     1      45.471 -10.517   7.236  1.00  0.00     0.185 C 
BRANCH  20  21
HETATM   21  C   UNL     1      44.994  -9.487   8.253  1.00  0.00     0.231 C 
HETATM   22  N   UNL     1      44.009  -9.970   9.100  1.00  0.00    -0.326 N 
HETATM   23  H   UNL     1      43.568 -10.839   8.824  1.00  0.00     0.169 HD
HETATM   24  O   UNL     1      45.395  -8.327   8.232  1.00  0.00    -0.272 OA
BRANCH  22  25
HETATM   25  C   UNL     1      43.341  -9.237  10.103  1.00  0.00     0.050 A 
HETATM   26  C   UNL     1      42.037  -8.726  10.032  1.00  0.00     0.058 A 
HETATM   27  C   UNL     1      41.472  -8.082  11.149  1.00  0.00     0.019 A 
HETATM   28  C   UNL     1      42.206  -7.924  12.324  1.00  0.00     0.001 A 
HETATM   29  C   UNL     1      43.521  -8.372  12.379  1.00  0.00     0.002 A 
HETATM   30  C   UNL     1      44.086  -9.011  11.273  1.00  0.00     0.030 A 
BRANCH  26  31
HETATM   31  C   UNL     1      41.253  -8.596   8.781  1.00  0.00     0.254 C 
HETATM   32  N   UNL     1      40.321  -9.594   8.599  1.00  0.00    -0.352 N 
HETATM   33  H   UNL     1      40.537 -10.485   9.044  1.00  0.00     0.163 HD
HETATM   34  O   UNL     1      41.395  -7.603   8.072  1.00  0.00    -0.268 OA
BRANCH  32  35
HETATM   35  C   UNL     1      39.342  -9.599   7.562  1.00  0.00     0.084 A 
HETATM   36  C   UNL     1      39.682  -9.828   6.117  1.00  0.00     0.027 A 
HETATM   37  C   UNL     1      38.969 -10.895   6.892  1.00  0.00     0.027 A 
ENDBRANCH  32  35
ENDBRANCH  26  31
ENDBRANCH  22  25
ENDBRANCH  20  21
ENDBRANCH   1  20
TORSDOF 9
ENDMDL
MODEL 6
REMARK VINA RESULT:      -8.4      3.235      9.964
REMARK  9 active torsions:
REMARK  status: ('A' for Active; 'I' for Inactive)
REMARK    1  A    between atoms: C_4  and  N_5 
REMARK    2  A    between atoms: C_6  and  S_7 
REMARK    3  A    between atoms: S_7  and  C_8 
REMARK    4  A    between atoms: C_8  and  C_9 
REMARK       I    between atoms: C_9  and  N_10 
REMARK    5  A    between atoms: N_10  and  C_11 
REMARK    6  A    between atoms: C_12  and  C_13 
REMARK       I    between atoms: C_13  and  N_14 
REMARK    7  A    between atoms: N_14  and  C_15 
REMARK    8  A    between atoms: C_26  and  C_27 
REMARK    9  A    between atoms: C_27  and  N_28 
ROOT
HETATM    1  S   UNL     1      43.443 -11.698   3.725  1.00  0.00    -0.080 SA
ENDROOT
BRANCH   1   2
HETATM    2  C   UNL     1      42.367 -11.791   2.376  1.00  0.00     0.196 C 
HETATM    3  N   UNL     1      41.751 -12.934   1.894  1.00  0.00    -0.274 N 
HETATM    4  C   UNL     1      40.868 -12.440   0.943  1.00  0.00     0.161 C 
HETATM    5  N   UNL     1      41.133 -11.177   0.694  1.00  0.00    -0.132 NA
HETATM    6  N   UNL     1      42.081 -10.779   1.586  1.00  0.00    -0.122 NA
BRANCH   3   7
HETATM    7  C   UNL     1      41.938 -14.304   2.214  1.00  0.00     0.043 A 
HETATM    8  C   UNL     1      41.165 -14.947   3.183  1.00  0.00     0.030 A 
HETATM    9  C   UNL     1      41.399 -16.294   3.478  1.00  0.00     0.002 A 
HETATM   10  C   UNL     1      42.407 -16.996   2.818  1.00  0.00     0.000 A 
HETATM   11  C   UNL     1      43.184 -16.358   1.855  1.00  0.00     0.002 A 
HETATM   12  C   UNL     1      42.952 -15.017   1.550  1.00  0.00     0.030 A 
ENDBRANCH   3   7
BRANCH   4  13
HETATM   13  C   UNL     1      39.659 -13.146   0.449  1.00  0.00     0.315 C 
BRANCH  13  14
HETATM   14  N   UNL     1      39.615 -13.152  -1.064  1.00  0.00    -0.064 N 
HETATM   15  H   UNL     1      40.504 -12.717  -1.361  1.00  0.00     0.280 HD
HETATM   16  C   UNL     1      38.522 -12.283  -1.673  1.00  0.00     0.235 C 
HETATM   17  C   UNL     1      37.627 -13.275  -2.392  1.00  0.00     0.029 C 
HETATM   18  C   UNL     1      38.595 -14.340  -2.865  1.00  0.00     0.029 C 
HETATM   19  C   UNL     1      39.506 -14.528  -1.669  1.00  0.00     0.235 C 
ENDBRANCH  13  14
ENDBRANCH   4  13
ENDBRANCH   1   2
BRANCH   1  20
HETATM   20  C   UNL     1      42.324 -11.240   5.073  1.00  0.00     0.185 C 
BRANCH  20  21
HETATM   21  C   UNL     1      42.999 -11.307   6.438  1.00  0.00     0.231 C 
HETATM   22  N   UNL     1      43.179 -10.064   7.021  1.00  0.00    -0.326 N 
HETATM   23  H   UNL     1      43.058  -9.262   6.414  1.00  0.00     0.169 HD
HETATM   24  O   UNL     1      43.415 -12.367   6.899  1.00  0.00    -0.272 OA
BRANCH  22  25
HETATM   25  C   UNL     1      43.819  -9.807   8.252  1.00  0.00     0.050 A 
HETATM   26  C   UNL     1      43.203  -9.713   9.508  1.00  0.00     0.058 A 
HETATM   27  C   UNL     1      43.986  -9.532  10.664  1.00  0.00     0.019 A 
HETATM   28  C   UNL     1      45.373  -9.422  10.572  1.00  0.00     0.001 A 
HETATM   29  C   UNL     1      45.984  -9.452   9.324  1.00  0.00     0.002 A 
HETATM   30  C   UNL     1      45.211  -9.629   8.173  1.00  0.00     0.030 A 
BRANCH  26  31
HETATM   31  C   UNL     1      41.745  -9.554   9.718  1.00  0.00     0.254 C 
HETATM   32  N   UNL     1      41.295 -10.053  10.921  1.00  0.00    -0.352 N 
HETATM   33  H   UNL     1      41.847 -10.813  11.317  1.00  0.00     0.163 HD
HETATM   34  O   UNL     1      41.075  -8.925   8.903  1.00  0.00    -0.268 OA
BRANCH  32  35
HETATM   35  C   UNL     1      39.972  -9.874  11.421  1.00  0.00     0.084 A 
HETATM   36  C   UNL     1      39.494 -10.482  12.709  1.00  0.00     0.027 A 
HETATM   37  C   UNL     1      39.740  -9.005  12.628  1.00  0.00     0.027 A 
ENDBRANCH  32  35
ENDBRANCH  26  31
ENDBRANCH  22  25
ENDBRANCH  20  21
ENDBRANCH   1  20
TORSDOF 9
ENDMDL
MODEL 7
REMARK VINA RESULT:      -8.1      1.536      3.393
REMARK  9 active torsions:
REMARK  status: ('A' for Active; 'I' for Inactive)
REMARK    1  A    between atoms: C_4  and  N_5 
REMARK    2  A    between atoms: C_6  and  S_7 
REMARK    3  A    between atoms: S_7  and  C_8 
REMARK    4  A    between atoms: C_8  and  C_9 
REMARK       I    between atoms: C_9  and  N_10 
REMARK    5  A    between atoms: N_10  and  C_11 
REMARK    6  A    between atoms: C_12  and  C_13 
REMARK       I    between atoms: C_13  and  N_14 
REMARK    7  A    between atoms: N_14  and  C_15 
REMARK    8  A    between atoms: C_26  and  C_27 
REMARK    9  A    between atoms: C_27  and  N_28 
ROOT
HETATM    1  S   UNL     1      44.212 -11.927   6.243  1.00  0.00    -0.080 SA
ENDROOT
BRANCH   1   2
HETATM    2  C   UNL     1      44.091 -11.088   7.750  1.00  0.00     0.196 C 
HETATM    3  N   UNL     1      43.104 -10.184   8.109  1.00  0.00    -0.274 N 
HETATM    4  C   UNL     1      43.362  -9.955   9.454  1.00  0.00     0.161 C 
HETATM    5  N   UNL     1      44.535 -10.450   9.780  1.00  0.00    -0.132 NA
HETATM    6  N   UNL     1      44.992 -11.149   8.705  1.00  0.00    -0.122 NA
BRANCH   3   7
HETATM    7  C   UNL     1      42.074  -9.572   7.349  1.00  0.00     0.043 A 
HETATM    8  C   UNL     1      40.964 -10.292   6.899  1.00  0.00     0.030 A 
HETATM    9  C   UNL     1      39.983  -9.651   6.137  1.00  0.00     0.002 A 
HETATM   10  C   UNL     1      40.109  -8.299   5.815  1.00  0.00     0.000 A 
HETATM   11  C   UNL     1      41.216  -7.579   6.257  1.00  0.00     0.002 A 
HETATM   12  C   UNL     1      42.196  -8.210   7.024  1.00  0.00     0.030 A 
ENDBRANCH   3   7
BRANCH   4  13
HETATM   13  C   UNL     1      42.377  -9.441  10.438  1.00  0.00     0.315 C 
BRANCH  13  14
HETATM   14  N   UNL     1      43.019  -9.236  11.793  1.00  0.00    -0.064 N 
HETATM   15  H   UNL     1      43.980  -9.603  11.693  1.00  0.00     0.280 HD
HETATM   16  C   UNL     1      42.398 -10.048  12.923  1.00  0.00     0.235 C 
HETATM   17  C   UNL     1      41.842  -8.996  13.864  1.00  0.00     0.029 C 
HETATM   18  C   UNL     1      42.825  -7.851  13.727  1.00  0.00     0.029 C 
HETATM   19  C   UNL     1      43.079  -7.797  12.234  1.00  0.00     0.235 C 
ENDBRANCH  13  14
ENDBRANCH   4  13
ENDBRANCH   1   2
BRANCH   1  20
HETATM   20  C   UNL     1      43.778 -13.621   6.716  1.00  0.00     0.185 C 
BRANCH  20  21
HETATM   21  C   UNL     1      42.625 -14.178   5.889  1.00  0.00     0.231 C 
HETATM   22  N   UNL     1      42.919 -14.282   4.540  1.00  0.00    -0.326 N 
HETATM   23  H   UNL     1      43.746 -13.790   4.222  1.00  0.00     0.169 HD
HETATM   24  O   UNL     1      41.527 -14.409   6.389  1.00  0.00    -0.272 OA
BRANCH  22  25
HETATM   25  C   UNL     1      42.037 -14.712   3.526  1.00  0.00     0.050 A 
HETATM   26  C   UNL     1      41.803 -16.037   3.132  1.00  0.00     0.058 A 
HETATM   27  C   UNL     1      40.829 -16.319   2.156  1.00  0.00     0.019 A 
HETATM   28  C   UNL     1      40.104 -15.289   1.557  1.00  0.00     0.001 A 
HETATM   29  C   UNL     1      40.376 -13.970   1.899  1.00  0.00     0.002 A 
HETATM   30  C   UNL     1      41.343 -13.684   2.865  1.00  0.00     0.030 A 
BRANCH  26  31
HETATM   31  C   UNL     1      42.669 -17.185   3.491  1.00  0.00     0.254 C 
HETATM   32  N   UNL     1      42.965 -18.015   2.432  1.00  0.00    -0.352 N 
HETATM   33  H   UNL     1      42.274 -18.037   1.683  1.00  0.00     0.163 HD
HETATM   34  O   UNL     1      43.137 -17.267   4.624  1.00  0.00    -0.268 OA
BRANCH  32  35
HETATM   35  C   UNL     1      43.904 -19.087   2.489  1.00  0.00     0.084 A 
HETATM   36  C   UNL     1      43.690 -20.318   3.322  1.00  0.00     0.027 A 
HETATM   37  C   UNL     1      43.580 -20.401   1.829  1.00  0.00     0.027 A 
ENDBRANCH  32  35
ENDBRANCH  26  31
ENDBRANCH  22  25
ENDBRANCH  20  21
ENDBRANCH   1  20
TORSDOF 9
ENDMDL
MODEL 8
REMARK VINA RESULT:      -8.1      3.610      9.526
REMARK  9 active torsions:
REMARK  status: ('A' for Active; 'I' for Inactive)
REMARK    1  A    between atoms: C_4  and  N_5 
REMARK    2  A    between atoms: C_6  and  S_7 
REMARK    3  A    between atoms: S_7  and  C_8 
REMARK    4  A    between atoms: C_8  and  C_9 
REMARK       I    between atoms: C_9  and  N_10 
REMARK    5  A    between atoms: N_10  and  C_11 
REMARK    6  A    between atoms: C_12  and  C_13 
REMARK       I    between atoms: C_13  and  N_14 
REMARK    7  A    between atoms: N_14  and  C_15 
REMARK    8  A    between atoms: C_26  and  C_27 
REMARK    9  A    between atoms: C_27  and  N_28 
ROOT
HETATM    1  S   UNL     1      42.213 -10.426   6.359  1.00  0.00    -0.080 SA
ENDROOT
BRANCH   1   2
HETATM    2  C   UNL     1      41.439 -10.975   4.914  1.00  0.00     0.196 C 
HETATM    3  N   UNL     1      41.072 -12.279   4.623  1.00  0.00    -0.274 N 
HETATM    4  C   UNL     1      40.337 -12.146   3.453  1.00  0.00     0.161 C 
HETATM    5  N   UNL     1      40.490 -10.937   2.958  1.00  0.00    -0.132 NA
HETATM    6  N   UNL     1      41.191 -10.212   3.872  1.00  0.00    -0.122 NA
BRANCH   3   7
HETATM    7  C   UNL     1      41.359 -13.501   5.284  1.00  0.00     0.043 A 
HETATM    8  C   UNL     1      40.389 -14.187   6.018  1.00  0.00     0.030 A 
HETATM    9  C   UNL     1      40.724 -15.379   6.668  1.00  0.00     0.002 A 
HETATM   10  C   UNL     1      42.023 -15.883   6.595  1.00  0.00     0.000 A 
HETATM   11  C   UNL     1      42.995 -15.199   5.870  1.00  0.00     0.002 A 
HETATM   12  C   UNL     1      42.667 -14.013   5.212  1.00  0.00     0.030 A 
ENDBRANCH   3   7
BRANCH   4  13
HETATM   13  C   UNL     1      39.342 -13.126   2.951  1.00  0.00     0.315 C 
BRANCH  13  14
HETATM   14  N   UNL     1      39.969 -14.074   1.951  1.00  0.00    -0.064 N 
HETATM   15  H   UNL     1      39.439 -13.930   1.075  1.00  0.00     0.280 HD
HETATM   16  C   UNL     1      39.802 -15.551   2.281  1.00  0.00     0.235 C 
HETATM   17  C   UNL     1      41.222 -16.038   2.500  1.00  0.00     0.029 C 
HETATM   18  C   UNL     1      42.032 -15.199   1.533  1.00  0.00     0.029 C 
HETATM   19  C   UNL     1      41.432 -13.817   1.697  1.00  0.00     0.235 C 
ENDBRANCH  13  14
ENDBRANCH   4  13
ENDBRANCH   1   2
BRANCH   1  20
HETATM   20  C   UNL     1      40.895  -9.479   7.161  1.00  0.00     0.185 C 
BRANCH  20  21
HETATM   21  C   UNL     1      41.296  -8.980   8.544  1.00  0.00     0.231 C 
HETATM   22  N   UNL     1      40.936  -9.846   9.564  1.00  0.00    -0.326 N 
HETATM   23  H   UNL     1      40.275 -10.574   9.320  1.00  0.00     0.169 HD
HETATM   24  O   UNL     1      41.799  -7.872   8.708  1.00  0.00    -0.272 OA
BRANCH  22  25
HETATM   25  C   UNL     1      41.126  -9.630  10.945  1.00  0.00     0.050 A 
HETATM   26  C   UNL     1      42.345  -9.682  11.636  1.00  0.00     0.058 A 
HETATM   27  C   UNL     1      42.391  -9.363  13.006  1.00  0.00     0.019 A 
HETATM   28  C   UNL     1      41.229  -9.015  13.694  1.00  0.00     0.001 A 
HETATM   29  C   UNL     1      40.008  -9.022  13.028  1.00  0.00     0.002 A 
HETATM   30  C   UNL     1      39.957  -9.340  11.669  1.00  0.00     0.030 A 
BRANCH  26  31
HETATM   31  C   UNL     1      43.590 -10.279  11.098  1.00  0.00     0.254 C 
HETATM   32  N   UNL     1      44.229  -9.494  10.163  1.00  0.00    -0.352 N 
HETATM   33  H   UNL     1      43.629  -8.860   9.637  1.00  0.00     0.163 HD
HETATM   34  O   UNL     1      44.016 -11.331  11.569  1.00  0.00    -0.268 OA
BRANCH  32  35
HETATM   35  C   UNL     1      45.519  -9.775   9.625  1.00  0.00     0.084 A 
HETATM   36  C   UNL     1      45.726 -10.564   8.364  1.00  0.00     0.027 A 
HETATM   37  C   UNL     1      45.969  -9.085   8.365  1.00  0.00     0.027 A 
ENDBRANCH  32  35
ENDBRANCH  26  31
ENDBRANCH  22  25
ENDBRANCH  20  21
ENDBRANCH   1  20
TORSDOF 9
ENDMDL
MODEL 9
REMARK VINA RESULT:      -8.0      4.174      8.133
REMARK  9 active torsions:
REMARK  status: ('A' for Active; 'I' for Inactive)
REMARK    1  A    between atoms: C_4  and  N_5 
REMARK    2  A    between atoms: C_6  and  S_7 
REMARK    3  A    between atoms: S_7  and  C_8 
REMARK    4  A    between atoms: C_8  and  C_9 
REMARK       I    between atoms: C_9  and  N_10 
REMARK    5  A    between atoms: N_10  and  C_11 
REMARK    6  A    between atoms: C_12  and  C_13 
REMARK       I    between atoms: C_13  and  N_14 
REMARK    7  A    between atoms: N_14  and  C_15 
REMARK    8  A    between atoms: C_26  and  C_27 
REMARK    9  A    between atoms: C_27  and  N_28 
ROOT
HETATM    1  S   UNL     1      39.544 -12.693   4.454  1.00  0.00    -0.080 SA
ENDROOT
BRANCH   1   2
HETATM    2  C   UNL     1      40.607 -13.900   3.823  1.00  0.00     0.196 C 
HETATM    3  N   UNL     1      41.951 -14.051   4.127  1.00  0.00    -0.274 N 
HETATM    4  C   UNL     1      42.279 -15.253   3.515  1.00  0.00     0.161 C 
HETATM    5  N   UNL     1      41.312 -15.627   2.706  1.00  0.00    -0.132 NA
HETATM    6  N   UNL     1      40.273 -14.769   2.894  1.00  0.00    -0.122 NA
BRANCH   3   7
HETATM    7  C   UNL     1      42.846 -13.219   4.848  1.00  0.00     0.043 A 
HETATM    8  C   UNL     1      43.553 -12.187   4.229  1.00  0.00     0.030 A 
HETATM    9  C   UNL     1      44.439 -11.405   4.977  1.00  0.00     0.002 A 
HETATM   10  C   UNL     1      44.628 -11.656   6.335  1.00  0.00     0.000 A 
HETATM   11  C   UNL     1      43.930 -12.688   6.956  1.00  0.00     0.002 A 
HETATM   12  C   UNL     1      43.039 -13.468   6.219  1.00  0.00     0.030 A 
ENDBRANCH   3   7
BRANCH   4  13
HETATM   13  C   UNL     1      43.432 -16.113   3.881  1.00  0.00     0.315 C 
BRANCH  13  14
HETATM   14  N   UNL     1      43.031 -17.572   3.917  1.00  0.00    -0.064 N 
HETATM   15  H   UNL     1      42.012 -17.567   4.088  1.00  0.00     0.280 HD
HETATM   16  C   UNL     1      43.625 -18.369   5.072  1.00  0.00     0.235 C 
HETATM   17  C   UNL     1      44.500 -19.402   4.389  1.00  0.00     0.029 C 
HETATM   18  C   UNL     1      43.755 -19.695   3.103  1.00  0.00     0.029 C 
HETATM   19  C   UNL     1      43.319 -18.320   2.641  1.00  0.00     0.235 C 
ENDBRANCH  13  14
ENDBRANCH   4  13
ENDBRANCH   1   2
BRANCH   1  20
HETATM   20  C   UNL     1      39.909 -11.271   3.394  1.00  0.00     0.185 C 
BRANCH  20  21
HETATM   21  C   UNL     1      39.552 -11.527   1.934  1.00  0.00     0.231 C 
HETATM   22  N   UNL     1      40.591 -12.082   1.206  1.00  0.00    -0.326 N 
HETATM   23  H   UNL     1      41.507 -12.052   1.637  1.00  0.00     0.169 HD
HETATM   24  O   UNL     1      38.474 -11.173   1.464  1.00  0.00    -0.272 OA
BRANCH  22  25
HETATM   25  C   UNL     1      40.574 -12.379  -0.173  1.00  0.00     0.050 A 
HETATM   26  C   UNL     1      41.161 -11.621  -1.196  1.00  0.00     0.058 A 
HETATM   27  C   UNL     1      41.133 -12.088  -2.523  1.00  0.00     0.019 A 
HETATM   28  C   UNL     1      40.505 -13.292  -2.839  1.00  0.00     0.001 A 
HETATM   29  C   UNL     1      39.867 -14.018  -1.839  1.00  0.00     0.002 A 
HETATM   30  C   UNL     1      39.891 -13.558  -0.521  1.00  0.00     0.030 A 
BRANCH  26  31
HETATM   31  C   UNL     1      41.625 -10.221  -1.043  1.00  0.00     0.254 C 
HETATM   32  N   UNL     1      41.479  -9.456  -2.180  1.00  0.00    -0.352 N 
HETATM   33  H   UNL     1      41.498  -9.968  -3.061  1.00  0.00     0.163 HD
HETATM   34  O   UNL     1      41.991  -9.816   0.057  1.00  0.00    -0.268 OA
BRANCH  32  35
HETATM   35  C   UNL     1      41.699  -8.048  -2.234  1.00  0.00     0.084 A 
HETATM   36  C   UNL     1      43.068  -7.432  -2.178  1.00  0.00     0.027 A 
HETATM   37  C   UNL     1      42.304  -7.434  -3.468  1.00  0.00     0.027 A 
ENDBRANCH  32  35
ENDBRANCH  26  31
ENDBRANCH  22  25
ENDBRANCH  20  21
ENDBRANCH   1  20
TORSDOF 9
ENDMDL
MODEL 10
REMARK VINA RESULT:      -8.0      2.576      4.026
REMARK  9 active torsions:
REMARK  status: ('A' for Active; 'I' for Inactive)
REMARK    1  A    between atoms: C_4  and  N_5 
REMARK    2  A    between atoms: C_6  and  S_7 
REMARK    3  A    between atoms: S_7  and  C_8 
REMARK    4  A    between atoms: C_8  and  C_9 
REMARK       I    between atoms: C_9  and  N_10 
REMARK    5  A    between atoms: N_10  and  C_11 
REMARK    6  A    between atoms: C_12  and  C_13 
REMARK       I    between atoms: C_13  and  N_14 
REMARK    7  A    between atoms: N_14  and  C_15 
REMARK    8  A    between atoms: C_26  and  C_27 
REMARK    9  A    between atoms: C_27  and  N_28 
ROOT
HETATM    1  S   UNL     1      41.718 -10.435   5.943  1.00  0.00    -0.080 SA
ENDROOT
BRANCH   1   2
HETATM    2  C   UNL     1      40.849  -9.877   7.329  1.00  0.00     0.196 C 
HETATM    3  N   UNL     1      41.401  -9.406   8.509  1.00  0.00    -0.274 N 
HETATM    4  C   UNL     1      40.299  -8.923   9.202  1.00  0.00     0.161 C 
HETATM    5  N   UNL     1      39.189  -9.318   8.618  1.00  0.00    -0.132 NA
HETATM    6  N   UNL     1      39.541  -9.926   7.451  1.00  0.00    -0.122 NA
BRANCH   3   7
HETATM    7  C   UNL     1      42.739  -9.408   8.983  1.00  0.00     0.043 A 
HETATM    8  C   UNL     1      43.117 -10.127  10.119  1.00  0.00     0.030 A 
HETATM    9  C   UNL     1      44.443 -10.084  10.559  1.00  0.00     0.002 A 
HETATM   10  C   UNL     1      45.389  -9.319   9.877  1.00  0.00     0.000 A 
HETATM   11  C   UNL     1      45.016  -8.596   8.747  1.00  0.00     0.002 A 
HETATM   12  C   UNL     1      43.696  -8.639   8.297  1.00  0.00     0.030 A 
ENDBRANCH   3   7
BRANCH   4  13
HETATM   13  C   UNL     1      40.348  -7.920  10.296  1.00  0.00     0.315 C 
BRANCH  13  14
HETATM   14  N   UNL     1      39.767  -8.484  11.575  1.00  0.00    -0.064 N 
HETATM   15  H   UNL     1      38.786  -8.160  11.591  1.00  0.00     0.280 HD
HETATM   16  C   UNL     1      40.389  -7.936  12.853  1.00  0.00     0.235 C 
HETATM   17  C   UNL     1      41.032  -9.150  13.495  1.00  0.00     0.029 C 
HETATM   18  C   UNL     1      40.103 -10.283  13.107  1.00  0.00     0.029 C 
HETATM   19  C   UNL     1      39.797  -9.988  11.653  1.00  0.00     0.235 C 
ENDBRANCH  13  14
ENDBRANCH   4  13
ENDBRANCH   1   2
BRANCH   1  20
HETATM   20  C   UNL     1      41.153 -12.150   5.805  1.00  0.00     0.185 C 
BRANCH  20  21
HETATM   21  C   UNL     1      42.069 -12.995   4.928  1.00  0.00     0.231 C 
HETATM   22  N   UNL     1      41.431 -14.086   4.362  1.00  0.00    -0.326 N 
HETATM   23  H   UNL     1      40.527 -14.327   4.750  1.00  0.00     0.169 HD
HETATM   24  O   UNL     1      43.271 -12.757   4.835  1.00  0.00    -0.272 OA
BRANCH  22  25
HETATM   25  C   UNL     1      42.031 -15.073   3.551  1.00  0.00     0.050 A 
HETATM   26  C   UNL     1      42.249 -14.995   2.168  1.00  0.00     0.058 A 
HETATM   27  C   UNL     1      42.936 -16.029   1.505  1.00  0.00     0.019 A 
HETATM   28  C   UNL     1      43.385 -17.147   2.207  1.00  0.00     0.001 A 
HETATM   29  C   UNL     1      43.116 -17.259   3.566  1.00  0.00     0.002 A 
HETATM   30  C   UNL     1      42.433 -16.237   4.229  1.00  0.00     0.030 A 
BRANCH  26  31
HETATM   31  C   UNL     1      41.608 -14.004   1.271  1.00  0.00     0.254 C 
HETATM   32  N   UNL     1      40.777 -14.563   0.325  1.00  0.00    -0.352 N 
HETATM   33  H   UNL     1      41.003 -15.517   0.048  1.00  0.00     0.163 HD
HETATM   34  O   UNL     1      41.759 -12.803   1.480  1.00  0.00    -0.268 OA
BRANCH  32  35
HETATM   35  C   UNL     1      39.927 -13.813  -0.541  1.00  0.00     0.084 A 
HETATM   36  C   UNL     1      40.406 -13.197  -1.825  1.00  0.00     0.027 A 
HETATM   37  C   UNL     1      39.506 -14.396  -1.864  1.00  0.00     0.027 A 
ENDBRANCH  32  35
ENDBRANCH  26  31
ENDBRANCH  22  25
ENDBRANCH  20  21
ENDBRANCH   1  20
TORSDOF 9
ENDMDL
