MODEL 1
REMARK VINA RESULT:      -8.6      0.000      0.000
REMARK  6 active torsions:
REMARK  status: ('A' for Active; 'I' for Inactive)
REMARK    1  A    between atoms: C_2  and  C_3 
REMARK    2  A    between atoms: C_4  and  N_5 
REMARK       I    between atoms: N_5  and  C_6 
REMARK    3  A    between atoms: C_6  and  C_7 
REMARK    4  A    between atoms: C_7  and  N_8 
REMARK       I    between atoms: N_8  and  C_9 
REMARK    5  A    between atoms: C_9  and  C_10 
REMARK    6  A    between atoms: C_11  and  C_12 
ROOT
HETATM    1  N   UNL     1      44.094 -14.783   6.460  1.00  0.00    -0.348 N 
HETATM    2  C   UNL     1      42.987 -14.050   6.069  1.00  0.00     0.255 C 
HETATM    3  O   UNL     1      41.885 -14.223   6.575  1.00  0.00    -0.268 OA
HETATM    4  H   UNL     1      44.940 -14.678   5.919  1.00  0.00     0.163 HD
ENDROOT
BRANCH   1   5
HETATM    5  C   UNL     1      43.902 -16.042   7.168  1.00  0.00     0.226 C 
BRANCH   5   6
HETATM    6  C   UNL     1      43.359 -17.225   6.349  1.00  0.00     0.239 C 
HETATM    7  N   UNL     1      44.136 -17.544   5.250  1.00  0.00    -0.325 N 
HETATM    8  H   UNL     1      44.957 -16.967   5.136  1.00  0.00     0.169 HD
HETATM    9  O   UNL     1      42.269 -17.713   6.641  1.00  0.00    -0.271 OA
BRANCH   7  10
HETATM   10  C   UNL     1      43.937 -18.583   4.312  1.00  0.00     0.041 A 
HETATM   11  C   UNL     1      43.524 -18.261   3.000  1.00  0.00    -0.032 A 
HETATM   12  C   UNL     1      43.348 -19.300   2.061  1.00  0.00     0.009 A 
HETATM   13  C   UNL     1      43.579 -20.629   2.406  1.00  0.00     0.001 A 
HETATM   14  C   UNL     1      43.984 -20.941   3.696  1.00  0.00     0.002 A 
HETATM   15  C   UNL     1      44.160 -19.927   4.640  1.00  0.00     0.030 A 
BRANCH  11  16
HETATM   16  C   UNL     1      43.222 -16.851   2.540  1.00  0.00     0.036 C 
HETATM   17  C   UNL     1      41.734 -16.532   2.572  1.00  0.00     0.010 C 
ENDBRANCH  11  16
ENDBRANCH   7  10
ENDBRANCH   5   6
ENDBRANCH   1   5
BRANCH   2  18
HETATM   18  C   UNL     1      43.243 -13.063   5.035  1.00  0.00     0.080 A 
HETATM   19  C   UNL     1      43.805 -11.749   5.161  1.00  0.00     0.104 A 
HETATM   20  N   UNL     1      43.797 -11.116   3.973  1.00  0.00    -0.174 NA
HETATM   21  N   UNL     1      43.252 -11.986   3.121  1.00  0.00    -0.288 N 
HETATM   22  H   UNL     1      43.128 -11.695   2.156  1.00  0.00     0.188 HD
HETATM   23  C   UNL     1      42.920 -13.175   3.693  1.00  0.00     0.128 A 
BRANCH  19  24
HETATM   24  C   UNL     1      44.372 -11.083   6.339  1.00  0.00    -0.005 A 
HETATM   25  C   UNL     1      43.558 -10.408   7.257  1.00  0.00     0.014 A 
HETATM   26  C   UNL     1      44.107  -9.805   8.391  1.00  0.00     0.001 A 
HETATM   27  C   UNL     1      45.479  -9.874   8.623  1.00  0.00     0.000 A 
HETATM   28  C   UNL     1      46.302 -10.548   7.722  1.00  0.00     0.001 A 
HETATM   29  C   UNL     1      45.751 -11.152   6.589  1.00  0.00     0.014 A 
ENDBRANCH  19  24
ENDBRANCH   2  18
TORSDOF 6
ENDMDL
MODEL 2
REMARK VINA RESULT:      -8.4      2.200      3.299
REMARK  6 active torsions:
REMARK  status: ('A' for Active; 'I' for Inactive)
REMARK    1  A    between atoms: C_2  and  C_3 
REMARK    2  A    between atoms: C_4  and  N_5 
REMARK       I    between atoms: N_5  and  C_6 
REMARK    3  A    between atoms: C_6  and  C_7 
REMARK    4  A    between atoms: C_7  and  N_8 
REMARK       I    between atoms: N_8  and  C_9 
REMARK    5  A    between atoms: C_9  and  C_10 
REMARK    6  A    between atoms: C_11  and  C_12 
ROOT
HETATM    1  N   UNL     1      43.243 -12.848   7.017  1.00  0.00    -0.348 N 
HETATM    2  C   UNL     1      43.389 -11.473   7.026  1.00  0.00     0.255 C 
HETATM    3  O   UNL     1      42.436 -10.720   6.860  1.00  0.00    -0.268 OA
HETATM    4  H   UNL     1      44.083 -13.408   7.035  1.00  0.00     0.163 HD
ENDROOT
BRANCH   1   5
HETATM    5  C   UNL     1      42.059 -13.436   6.405  1.00  0.00     0.226 C 
BRANCH   5   6
HETATM    6  C   UNL     1      42.148 -14.917   5.998  1.00  0.00     0.239 C 
HETATM    7  N   UNL     1      43.002 -15.151   4.935  1.00  0.00    -0.325 N 
HETATM    8  H   UNL     1      43.459 -14.325   4.575  1.00  0.00     0.169 HD
HETATM    9  O   UNL     1      41.408 -15.738   6.537  1.00  0.00    -0.271 OA
BRANCH   7  10
HETATM   10  C   UNL     1      43.329 -16.387   4.335  1.00  0.00     0.041 A 
HETATM   11  C   UNL     1      42.881 -16.660   3.022  1.00  0.00    -0.032 A 
HETATM   12  C   UNL     1      43.229 -17.887   2.419  1.00  0.00     0.009 A 
HETATM   13  C   UNL     1      44.007 -18.825   3.092  1.00  0.00     0.001 A 
HETATM   14  C   UNL     1      44.446 -18.555   4.380  1.00  0.00     0.002 A 
HETATM   15  C   UNL     1      44.108 -17.347   4.995  1.00  0.00     0.030 A 
BRANCH  11  16
HETATM   16  C   UNL     1      42.010 -15.715   2.224  1.00  0.00     0.036 C 
HETATM   17  C   UNL     1      40.525 -15.949   2.460  1.00  0.00     0.010 C 
ENDBRANCH  11  16
ENDBRANCH   7  10
ENDBRANCH   5   6
ENDBRANCH   1   5
BRANCH   2  18
HETATM   18  C   UNL     1      44.742 -11.003   7.261  1.00  0.00     0.080 A 
HETATM   19  C   UNL     1      45.206 -10.017   8.195  1.00  0.00     0.104 A 
HETATM   20  N   UNL     1      46.527  -9.808   8.044  1.00  0.00    -0.174 NA
HETATM   21  N   UNL     1      46.896 -10.623   7.054  1.00  0.00    -0.288 N 
HETATM   22  H   UNL     1      47.867 -10.605   6.758  1.00  0.00     0.188 HD
HETATM   23  C   UNL     1      45.877 -11.377   6.561  1.00  0.00     0.128 A 
BRANCH  19  24
HETATM   24  C   UNL     1      44.468  -9.295   9.237  1.00  0.00    -0.005 A 
HETATM   25  C   UNL     1      44.400  -9.777  10.550  1.00  0.00     0.014 A 
HETATM   26  C   UNL     1      43.719  -9.063  11.539  1.00  0.00     0.001 A 
HETATM   27  C   UNL     1      43.102  -7.853  11.227  1.00  0.00     0.000 A 
HETATM   28  C   UNL     1      43.166  -7.357   9.926  1.00  0.00     0.001 A 
HETATM   29  C   UNL     1      43.849  -8.071   8.939  1.00  0.00     0.014 A 
ENDBRANCH  19  24
ENDBRANCH   2  18
TORSDOF 6
ENDMDL
MODEL 3
REMARK VINA RESULT:      -8.4      2.233      3.720
REMARK  6 active torsions:
REMARK  status: ('A' for Active; 'I' for Inactive)
REMARK    1  A    between atoms: C_2  and  C_3 
REMARK    2  A    between atoms: C_4  and  N_5 
REMARK       I    between atoms: N_5  and  C_6 
REMARK    3  A    between atoms: C_6  and  C_7 
REMARK    4  A    between atoms: C_7  and  N_8 
REMARK       I    between atoms: N_8  and  C_9 
REMARK    5  A    between atoms: C_9  and  C_10 
REMARK    6  A    between atoms: C_11  and  C_12 
ROOT
HETATM    1  N   UNL     1      42.912 -12.533   6.697  1.00  0.00    -0.348 N 
HETATM    2  C   UNL     1      43.207 -11.184   6.780  1.00  0.00     0.255 C 
HETATM    3  O   UNL     1      42.345 -10.325   6.638  1.00  0.00    -0.268 OA
HETATM    4  H   UNL     1      43.686 -13.182   6.699  1.00  0.00     0.163 HD
ENDROOT
BRANCH   1   5
HETATM    5  C   UNL     1      41.684 -12.957   6.038  1.00  0.00     0.226 C 
BRANCH   5   6
HETATM    6  C   UNL     1      41.660 -14.381   5.460  1.00  0.00     0.239 C 
HETATM    7  N   UNL     1      42.822 -14.732   4.795  1.00  0.00    -0.325 N 
HETATM    8  H   UNL     1      43.532 -14.013   4.786  1.00  0.00     0.169 HD
HETATM    9  O   UNL     1      40.625 -15.042   5.521  1.00  0.00    -0.271 OA
BRANCH   7  10
HETATM   10  C   UNL     1      43.135 -15.963   4.176  1.00  0.00     0.041 A 
HETATM   11  C   UNL     1      43.954 -16.892   4.857  1.00  0.00    -0.032 A 
HETATM   12  C   UNL     1      44.246 -18.128   4.244  1.00  0.00     0.009 A 
HETATM   13  C   UNL     1      43.738 -18.447   2.987  1.00  0.00     0.001 A 
HETATM   14  C   UNL     1      42.933 -17.533   2.321  1.00  0.00     0.002 A 
HETATM   15  C   UNL     1      42.637 -16.302   2.911  1.00  0.00     0.030 A 
BRANCH  11  16
HETATM   16  C   UNL     1      44.575 -16.624   6.211  1.00  0.00     0.036 C 
HETATM   17  C   UNL     1      43.674 -17.049   7.361  1.00  0.00     0.010 C 
ENDBRANCH  11  16
ENDBRANCH   7  10
ENDBRANCH   5   6
ENDBRANCH   1   5
BRANCH   2  18
HETATM   18  C   UNL     1      44.598 -10.878   7.059  1.00  0.00     0.080 A 
HETATM   19  C   UNL     1      45.148 -10.001   8.053  1.00  0.00     0.104 A 
HETATM   20  N   UNL     1      46.486  -9.929   7.932  1.00  0.00    -0.174 NA
HETATM   21  N   UNL     1      46.784 -10.724   6.903  1.00  0.00    -0.288 N 
HETATM   22  H   UNL     1      47.757 -10.797   6.622  1.00  0.00     0.188 HD
HETATM   23  C   UNL     1      45.699 -11.336   6.355  1.00  0.00     0.128 A 
BRANCH  19  24
HETATM   24  C   UNL     1      44.471  -9.259   9.123  1.00  0.00    -0.005 A 
HETATM   25  C   UNL     1      43.868  -8.019   8.880  1.00  0.00     0.014 A 
HETATM   26  C   UNL     1      43.199  -7.337   9.900  1.00  0.00     0.001 A 
HETATM   27  C   UNL     1      43.122  -7.891  11.176  1.00  0.00     0.000 A 
HETATM   28  C   UNL     1      43.712  -9.128  11.431  1.00  0.00     0.001 A 
HETATM   29  C   UNL     1      44.378  -9.809  10.410  1.00  0.00     0.014 A 
ENDBRANCH  19  24
ENDBRANCH   2  18
TORSDOF 6
ENDMDL
MODEL 4
REMARK VINA RESULT:      -8.1      5.444      7.714
REMARK  6 active torsions:
REMARK  status: ('A' for Active; 'I' for Inactive)
REMARK    1  A    between atoms: C_2  and  C_3 
REMARK    2  A    between atoms: C_4  and  N_5 
REMARK       I    between atoms: N_5  and  C_6 
REMARK    3  A    between atoms: C_6  and  C_7 
REMARK    4  A    between atoms: C_7  and  N_8 
REMARK       I    between atoms: N_8  and  C_9 
REMARK    5  A    between atoms: C_9  and  C_10 
REMARK    6  A    between atoms: C_11  and  C_12 
ROOT
HETATM    1  N   UNL     1      41.094 -14.646   0.197  1.00  0.00    -0.348 N 
HETATM    2  C   UNL     1      40.044 -13.864  -0.247  1.00  0.00     0.255 C 
HETATM    3  O   UNL     1      39.672 -12.872   0.368  1.00  0.00    -0.268 OA
HETATM    4  H   UNL     1      41.268 -15.515  -0.288  1.00  0.00     0.163 HD
ENDROOT
BRANCH   1   5
HETATM    5  C   UNL     1      41.506 -14.564   1.592  1.00  0.00     0.226 C 
BRANCH   5   6
HETATM    6  C   UNL     1      41.595 -15.887   2.371  1.00  0.00     0.239 C 
HETATM    7  N   UNL     1      42.821 -16.517   2.258  1.00  0.00    -0.325 N 
HETATM    8  H   UNL     1      43.495 -16.024   1.690  1.00  0.00     0.169 HD
HETATM    9  O   UNL     1      40.590 -16.334   2.921  1.00  0.00    -0.271 OA
BRANCH   7  10
HETATM   10  C   UNL     1      43.241 -17.724   2.863  1.00  0.00     0.041 A 
HETATM   11  C   UNL     1      43.631 -17.719   4.221  1.00  0.00    -0.032 A 
HETATM   12  C   UNL     1      44.028 -18.930   4.826  1.00  0.00     0.009 A 
HETATM   13  C   UNL     1      44.035 -20.124   4.110  1.00  0.00     0.001 A 
HETATM   14  C   UNL     1      43.651 -20.126   2.777  1.00  0.00     0.002 A 
HETATM   15  C   UNL     1      43.259 -18.935   2.160  1.00  0.00     0.030 A 
BRANCH  11  16
HETATM   16  C   UNL     1      43.682 -16.468   5.071  1.00  0.00     0.036 C 
HETATM   17  C   UNL     1      44.696 -16.570   6.202  1.00  0.00     0.010 C 
ENDBRANCH  11  16
ENDBRANCH   7  10
ENDBRANCH   5   6
ENDBRANCH   1   5
BRANCH   2  18
HETATM   18  C   UNL     1      39.440 -14.300  -1.493  1.00  0.00     0.080 A 
HETATM   19  C   UNL     1      39.091 -13.524  -2.649  1.00  0.00     0.104 A 
HETATM   20  N   UNL     1      38.474 -14.292  -3.565  1.00  0.00    -0.174 NA
HETATM   21  N   UNL     1      38.426 -15.509  -3.021  1.00  0.00    -0.288 N 
HETATM   22  H   UNL     1      37.970 -16.250  -3.547  1.00  0.00     0.188 HD
HETATM   23  C   UNL     1      39.006 -15.581  -1.793  1.00  0.00     0.128 A 
BRANCH  19  24
HETATM   24  C   UNL     1      39.343 -12.107  -2.934  1.00  0.00    -0.005 A 
HETATM   25  C   UNL     1      40.634 -11.637  -3.203  1.00  0.00     0.014 A 
HETATM   26  C   UNL     1      40.856 -10.290  -3.504  1.00  0.00     0.001 A 
HETATM   27  C   UNL     1      39.786  -9.399  -3.545  1.00  0.00     0.000 A 
HETATM   28  C   UNL     1      38.494  -9.854  -3.286  1.00  0.00     0.001 A 
HETATM   29  C   UNL     1      38.274 -11.200  -2.987  1.00  0.00     0.014 A 
ENDBRANCH  19  24
ENDBRANCH   2  18
TORSDOF 6
ENDMDL
MODEL 5
REMARK VINA RESULT:      -8.0      1.591      2.188
REMARK  6 active torsions:
REMARK  status: ('A' for Active; 'I' for Inactive)
REMARK    1  A    between atoms: C_2  and  C_3 
REMARK    2  A    between atoms: C_4  and  N_5 
REMARK       I    between atoms: N_5  and  C_6 
REMARK    3  A    between atoms: C_6  and  C_7 
REMARK    4  A    between atoms: C_7  and  N_8 
REMARK       I    between atoms: N_8  and  C_9 
REMARK    5  A    between atoms: C_9  and  C_10 
REMARK    6  A    between atoms: C_11  and  C_12 
ROOT
HETATM    1  N   UNL     1      43.238 -13.644   5.897  1.00  0.00    -0.348 N 
HETATM    2  C   UNL     1      43.916 -12.482   6.220  1.00  0.00     0.255 C 
HETATM    3  O   UNL     1      45.076 -12.499   6.612  1.00  0.00    -0.268 OA
HETATM    4  H   UNL     1      42.251 -13.570   5.700  1.00  0.00     0.163 HD
ENDROOT
BRANCH   1   5
HETATM    5  C   UNL     1      43.727 -14.920   6.401  1.00  0.00     0.226 C 
BRANCH   5   6
HETATM    6  C   UNL     1      43.165 -16.191   5.743  1.00  0.00     0.239 C 
HETATM    7  N   UNL     1      44.112 -16.924   5.050  1.00  0.00    -0.325 N 
HETATM    8  H   UNL     1      45.044 -16.534   5.076  1.00  0.00     0.169 HD
HETATM    9  O   UNL     1      41.955 -16.404   5.775  1.00  0.00    -0.271 OA
BRANCH   7  10
HETATM   10  C   UNL     1      43.937 -18.144   4.359  1.00  0.00     0.041 A 
HETATM   11  C   UNL     1      43.539 -18.121   3.003  1.00  0.00    -0.032 A 
HETATM   12  C   UNL     1      43.387 -19.341   2.311  1.00  0.00     0.009 A 
HETATM   13  C   UNL     1      43.627 -20.560   2.940  1.00  0.00     0.001 A 
HETATM   14  C   UNL     1      44.018 -20.579   4.271  1.00  0.00     0.002 A 
HETATM   15  C   UNL     1      44.170 -19.381   4.973  1.00  0.00     0.030 A 
BRANCH  11  16
HETATM   16  C   UNL     1      43.228 -16.848   2.245  1.00  0.00     0.036 C 
HETATM   17  C   UNL     1      41.737 -16.555   2.182  1.00  0.00     0.010 C 
ENDBRANCH  11  16
ENDBRANCH   7  10
ENDBRANCH   5   6
ENDBRANCH   1   5
BRANCH   2  18
HETATM   18  C   UNL     1      43.153 -11.260   6.042  1.00  0.00     0.080 A 
HETATM   19  C   UNL     1      42.961 -10.174   6.960  1.00  0.00     0.104 A 
HETATM   20  N   UNL     1      42.115  -9.263   6.444  1.00  0.00    -0.174 NA
HETATM   21  N   UNL     1      41.777  -9.744   5.246  1.00  0.00    -0.288 N 
HETATM   22  H   UNL     1      41.115  -9.213   4.688  1.00  0.00     0.188 HD
HETATM   23  C   UNL     1      42.383 -10.923   4.941  1.00  0.00     0.128 A 
BRANCH  19  24
HETATM   24  C   UNL     1      43.561  -9.947   8.279  1.00  0.00    -0.005 A 
HETATM   25  C   UNL     1      44.937  -9.734   8.427  1.00  0.00     0.014 A 
HETATM   26  C   UNL     1      45.491  -9.489   9.686  1.00  0.00     0.001 A 
HETATM   27  C   UNL     1      44.673  -9.447  10.813  1.00  0.00     0.000 A 
HETATM   28  C   UNL     1      43.301  -9.651  10.681  1.00  0.00     0.001 A 
HETATM   29  C   UNL     1      42.748  -9.895   9.422  1.00  0.00     0.014 A 
ENDBRANCH  19  24
ENDBRANCH   2  18
TORSDOF 6
ENDMDL
MODEL 6
REMARK VINA RESULT:      -8.0      4.151      8.110
REMARK  6 active torsions:
REMARK  status: ('A' for Active; 'I' for Inactive)
REMARK    1  A    between atoms: C_2  and  C_3 
REMARK    2  A    between atoms: C_4  and  N_5 
REMARK       I    between atoms: N_5  and  C_6 
REMARK    3  A    between atoms: C_6  and  C_7 
REMARK    4  A    between atoms: C_7  and  N_8 
REMARK       I    between atoms: N_8  and  C_9 
REMARK    5  A    between atoms: C_9  and  C_10 
REMARK    6  A    between atoms: C_11  and  C_12 
ROOT
HETATM    1  N   UNL     1      41.625 -15.740   2.829  1.00  0.00    -0.348 N 
HETATM    2  C   UNL     1      41.474 -16.079   4.161  1.00  0.00     0.255 C 
HETATM    3  O   UNL     1      40.390 -16.412   4.624  1.00  0.00    -0.268 OA
HETATM    4  H   UNL     1      42.514 -15.356   2.541  1.00  0.00     0.163 HD
ENDROOT
BRANCH   1   5
HETATM    5  C   UNL     1      40.452 -15.369   2.049  1.00  0.00     0.226 C 
BRANCH   5   6
HETATM    6  C   UNL     1      40.571 -14.118   1.162  1.00  0.00     0.239 C 
HETATM    7  N   UNL     1      39.423 -13.831   0.446  1.00  0.00    -0.325 N 
HETATM    8  H   UNL     1      38.659 -14.472   0.606  1.00  0.00     0.169 HD
HETATM    9  O   UNL     1      41.657 -13.549   1.063  1.00  0.00    -0.271 OA
BRANCH   7  10
HETATM   10  C   UNL     1      39.190 -12.750  -0.433  1.00  0.00     0.041 A 
HETATM   11  C   UNL     1      39.329 -12.948  -1.826  1.00  0.00    -0.032 A 
HETATM   12  C   UNL     1      39.074 -11.870  -2.701  1.00  0.00     0.009 A 
HETATM   13  C   UNL     1      38.684 -10.625  -2.215  1.00  0.00     0.001 A 
HETATM   14  C   UNL     1      38.548 -10.434  -0.847  1.00  0.00     0.002 A 
HETATM   15  C   UNL     1      38.801 -11.488   0.035  1.00  0.00     0.030 A 
BRANCH  11  16
HETATM   16  C   UNL     1      39.774 -14.255  -2.444  1.00  0.00     0.036 C 
HETATM   17  C   UNL     1      38.607 -15.085  -2.959  1.00  0.00     0.010 C 
ENDBRANCH  11  16
ENDBRANCH   7  10
ENDBRANCH   5   6
ENDBRANCH   1   5
BRANCH   2  18
HETATM   18  C   UNL     1      42.692 -16.023   4.948  1.00  0.00     0.080 A 
HETATM   19  C   UNL     1      43.676 -17.045   5.163  1.00  0.00     0.104 A 
HETATM   20  N   UNL     1      44.617 -16.621   6.027  1.00  0.00    -0.174 NA
HETATM   21  N   UNL     1      44.252 -15.380   6.355  1.00  0.00    -0.288 N 
HETATM   22  H   UNL     1      44.823 -14.876   7.027  1.00  0.00     0.188 HD
HETATM   23  C   UNL     1      43.122 -14.960   5.725  1.00  0.00     0.128 A 
BRANCH  19  24
HETATM   24  C   UNL     1      43.781 -18.382   4.569  1.00  0.00    -0.005 A 
HETATM   25  C   UNL     1      43.901 -19.527   5.366  1.00  0.00     0.014 A 
HETATM   26  C   UNL     1      43.969 -20.797   4.788  1.00  0.00     0.001 A 
HETATM   27  C   UNL     1      43.912 -20.937   3.403  1.00  0.00     0.000 A 
HETATM   28  C   UNL     1      43.786 -19.807   2.596  1.00  0.00     0.001 A 
HETATM   29  C   UNL     1      43.717 -18.538   3.176  1.00  0.00     0.014 A 
ENDBRANCH  19  24
ENDBRANCH   2  18
TORSDOF 6
ENDMDL
MODEL 7
REMARK VINA RESULT:      -7.8      2.388      8.397
REMARK  6 active torsions:
REMARK  status: ('A' for Active; 'I' for Inactive)
REMARK    1  A    between atoms: C_2  and  C_3 
REMARK    2  A    between atoms: C_4  and  N_5 
REMARK       I    between atoms: N_5  and  C_6 
REMARK    3  A    between atoms: C_6  and  C_7 
REMARK    4  A    between atoms: C_7  and  N_8 
REMARK       I    between atoms: N_8  and  C_9 
REMARK    5  A    between atoms: C_9  and  C_10 
REMARK    6  A    between atoms: C_11  and  C_12 
ROOT
HETATM    1  N   UNL     1      42.280 -12.993   4.999  1.00  0.00    -0.348 N 
HETATM    2  C   UNL     1      42.348 -13.429   3.688  1.00  0.00     0.255 C 
HETATM    3  O   UNL     1      43.307 -13.174   2.970  1.00  0.00    -0.268 OA
HETATM    4  H   UNL     1      41.411 -13.131   5.494  1.00  0.00     0.163 HD
ENDROOT
BRANCH   1   5
HETATM    5  C   UNL     1      43.127 -11.888   5.428  1.00  0.00     0.226 C 
BRANCH   5   6
HETATM    6  C   UNL     1      43.386 -11.754   6.938  1.00  0.00     0.239 C 
HETATM    7  N   UNL     1      43.313 -10.453   7.402  1.00  0.00    -0.325 N 
HETATM    8  H   UNL     1      43.091  -9.768   6.694  1.00  0.00     0.169 HD
HETATM    9  O   UNL     1      43.736 -12.742   7.581  1.00  0.00    -0.271 OA
BRANCH   7  10
HETATM   10  C   UNL     1      43.472  -9.989   8.727  1.00  0.00     0.041 A 
HETATM   11  C   UNL     1      44.767  -9.938   9.292  1.00  0.00    -0.032 A 
HETATM   12  C   UNL     1      44.923  -9.453  10.608  1.00  0.00     0.009 A 
HETATM   13  C   UNL     1      43.827  -9.022  11.352  1.00  0.00     0.001 A 
HETATM   14  C   UNL     1      42.557  -9.074  10.794  1.00  0.00     0.002 A 
HETATM   15  C   UNL     1      42.383  -9.554   9.494  1.00  0.00     0.030 A 
BRANCH  11  16
HETATM   16  C   UNL     1      46.011 -10.410   8.573  1.00  0.00     0.036 C 
HETATM   17  C   UNL     1      46.713  -9.288   7.820  1.00  0.00     0.010 C 
ENDBRANCH  11  16
ENDBRANCH   7  10
ENDBRANCH   5   6
ENDBRANCH   1   5
BRANCH   2  18
HETATM   18  C   UNL     1      41.211 -14.218   3.247  1.00  0.00     0.080 A 
HETATM   19  C   UNL     1      41.123 -15.634   3.032  1.00  0.00     0.104 A 
HETATM   20  N   UNL     1      39.914 -15.963   2.541  1.00  0.00    -0.174 NA
HETATM   21  N   UNL     1      39.254 -14.808   2.443  1.00  0.00    -0.288 N 
HETATM   22  H   UNL     1      38.311 -14.827   2.065  1.00  0.00     0.188 HD
HETATM   23  C   UNL     1      39.970 -13.733   2.870  1.00  0.00     0.128 A 
BRANCH  19  24
HETATM   24  C   UNL     1      42.113 -16.683   3.297  1.00  0.00    -0.005 A 
HETATM   25  C   UNL     1      42.515 -17.576   2.296  1.00  0.00     0.014 A 
HETATM   26  C   UNL     1      43.482 -18.552   2.554  1.00  0.00     0.001 A 
HETATM   27  C   UNL     1      44.063 -18.641   3.817  1.00  0.00     0.000 A 
HETATM   28  C   UNL     1      43.679 -17.755   4.822  1.00  0.00     0.001 A 
HETATM   29  C   UNL     1      42.714 -16.780   4.562  1.00  0.00     0.014 A 
ENDBRANCH  19  24
ENDBRANCH   2  18
TORSDOF 6
ENDMDL
MODEL 8
REMARK VINA RESULT:      -7.8      2.405      8.351
REMARK  6 active torsions:
REMARK  status: ('A' for Active; 'I' for Inactive)
REMARK    1  A    between atoms: C_2  and  C_3 
REMARK    2  A    between atoms: C_4  and  N_5 
REMARK       I    between atoms: N_5  and  C_6 
REMARK    3  A    between atoms: C_6  and  C_7 
REMARK    4  A    between atoms: C_7  and  N_8 
REMARK       I    between atoms: N_8  and  C_9 
REMARK    5  A    between atoms: C_9  and  C_10 
REMARK    6  A    between atoms: C_11  and  C_12 
ROOT
HETATM    1  N   UNL     1      42.705 -13.177   4.842  1.00  0.00    -0.348 N 
HETATM    2  C   UNL     1      42.541 -13.455   3.497  1.00  0.00     0.255 C 
HETATM    3  O   UNL     1      43.356 -13.093   2.658  1.00  0.00    -0.268 OA
HETATM    4  H   UNL     1      41.938 -13.395   5.462  1.00  0.00     0.163 HD
ENDROOT
BRANCH   1   5
HETATM    5  C   UNL     1      43.609 -12.108   5.245  1.00  0.00     0.226 C 
BRANCH   5   6
HETATM    6  C   UNL     1      43.794 -11.883   6.755  1.00  0.00     0.239 C 
HETATM    7  N   UNL     1      43.897 -10.551   7.111  1.00  0.00    -0.325 N 
HETATM    8  H   UNL     1      43.829  -9.904   6.338  1.00  0.00     0.169 HD
HETATM    9  O   UNL     1      43.946 -12.852   7.496  1.00  0.00    -0.271 OA
BRANCH   7  10
HETATM   10  C   UNL     1      44.047 -10.002   8.404  1.00  0.00     0.041 A 
HETATM   11  C   UNL     1      43.021  -9.187   8.933  1.00  0.00    -0.032 A 
HETATM   12  C   UNL     1      43.165  -8.659  10.234  1.00  0.00     0.009 A 
HETATM   13  C   UNL     1      44.294  -8.934  11.002  1.00  0.00     0.001 A 
HETATM   14  C   UNL     1      45.299  -9.735  10.480  1.00  0.00     0.002 A 
HETATM   15  C   UNL     1      45.176 -10.263   9.192  1.00  0.00     0.030 A 
BRANCH  11  16
HETATM   16  C   UNL     1      41.772  -8.811   8.165  1.00  0.00     0.036 C 
HETATM   17  C   UNL     1      41.891  -7.455   7.484  1.00  0.00     0.010 C 
ENDBRANCH  11  16
ENDBRANCH   7  10
ENDBRANCH   5   6
ENDBRANCH   1   5
BRANCH   2  18
HETATM   18  C   UNL     1      41.348 -14.216   3.172  1.00  0.00     0.080 A 
HETATM   19  C   UNL     1      41.189 -15.636   3.043  1.00  0.00     0.104 A 
HETATM   20  N   UNL     1      39.939 -15.938   2.646  1.00  0.00    -0.174 NA
HETATM   21  N   UNL     1      39.321 -14.762   2.525  1.00  0.00    -0.288 N 
HETATM   22  H   UNL     1      38.356 -14.761   2.207  1.00  0.00     0.188 HD
HETATM   23  C   UNL     1      40.105 -13.698   2.846  1.00  0.00     0.128 A 
BRANCH  19  24
HETATM   24  C   UNL     1      42.152 -16.712   3.305  1.00  0.00    -0.005 A 
HETATM   25  C   UNL     1      42.566 -17.583   2.290  1.00  0.00     0.014 A 
HETATM   26  C   UNL     1      43.506 -18.584   2.546  1.00  0.00     0.001 A 
HETATM   27  C   UNL     1      44.049 -18.722   3.822  1.00  0.00     0.000 A 
HETATM   28  C   UNL     1      43.652 -17.858   4.841  1.00  0.00     0.001 A 
HETATM   29  C   UNL     1      42.712 -16.857   4.583  1.00  0.00     0.014 A 
ENDBRANCH  19  24
ENDBRANCH   2  18
TORSDOF 6
ENDMDL
MODEL 9
REMARK VINA RESULT:      -7.7     15.107     17.009
REMARK  6 active torsions:
REMARK  status: ('A' for Active; 'I' for Inactive)
REMARK    1  A    between atoms: C_2  and  C_3 
REMARK    2  A    between atoms: C_4  and  N_5 
REMARK       I    between atoms: N_5  and  C_6 
REMARK    3  A    between atoms: C_6  and  C_7 
REMARK    4  A    between atoms: C_7  and  N_8 
REMARK       I    between atoms: N_8  and  C_9 
REMARK    5  A    between atoms: C_9  and  C_10 
REMARK    6  A    between atoms: C_11  and  C_12 
ROOT
HETATM    1  N   UNL     1      44.977 -29.850   3.032  1.00  0.00    -0.348 N 
HETATM    2  C   UNL     1      46.222 -29.315   2.750  1.00  0.00     0.255 C 
HETATM    3  O   UNL     1      46.371 -28.128   2.486  1.00  0.00    -0.268 OA
HETATM    4  H   UNL     1      44.908 -30.853   3.118  1.00  0.00     0.163 HD
ENDROOT
BRANCH   1   5
HETATM    5  C   UNL     1      43.781 -29.128   2.621  1.00  0.00     0.226 C 
BRANCH   5   6
HETATM    6  C   UNL     1      43.440 -29.141   1.121  1.00  0.00     0.239 C 
HETATM    7  N   UNL     1      44.550 -29.095   0.298  1.00  0.00    -0.325 N 
HETATM    8  H   UNL     1      45.434 -29.068   0.787  1.00  0.00     0.169 HD
HETATM    9  O   UNL     1      42.264 -29.079   0.768  1.00  0.00    -0.271 OA
BRANCH   7  10
HETATM   10  C   UNL     1      44.591 -29.118  -1.114  1.00  0.00     0.041 A 
HETATM   11  C   UNL     1      44.264 -30.312  -1.797  1.00  0.00    -0.032 A 
HETATM   12  C   UNL     1      44.284 -30.323  -3.208  1.00  0.00     0.009 A 
HETATM   13  C   UNL     1      44.615 -29.181  -3.933  1.00  0.00     0.001 A 
HETATM   14  C   UNL     1      44.935 -28.011  -3.260  1.00  0.00     0.002 A 
HETATM   15  C   UNL     1      44.924 -27.981  -1.863  1.00  0.00     0.030 A 
BRANCH  11  16
HETATM   16  C   UNL     1      43.920 -31.608  -1.096  1.00  0.00     0.036 C 
HETATM   17  C   UNL     1      44.142 -32.827  -1.980  1.00  0.00     0.010 C 
ENDBRANCH  11  16
ENDBRANCH   7  10
ENDBRANCH   5   6
ENDBRANCH   1   5
BRANCH   2  18
HETATM   18  C   UNL     1      47.321 -30.262   2.808  1.00  0.00     0.080 A 
HETATM   19  C   UNL     1      48.077 -30.835   1.731  1.00  0.00     0.104 A 
HETATM   20  N   UNL     1      48.959 -31.737   2.201  1.00  0.00    -0.174 NA
HETATM   21  N   UNL     1      48.776 -31.744   3.522  1.00  0.00    -0.288 N 
HETATM   22  H   UNL     1      49.335 -32.385   4.078  1.00  0.00     0.188 HD
HETATM   23  C   UNL     1      47.826 -30.868   3.946  1.00  0.00     0.128 A 
BRANCH  19  24
HETATM   24  C   UNL     1      48.024 -30.546   0.294  1.00  0.00    -0.005 A 
HETATM   25  C   UNL     1      48.336 -29.276  -0.206  1.00  0.00     0.014 A 
HETATM   26  C   UNL     1      48.312 -29.023  -1.580  1.00  0.00     0.001 A 
HETATM   27  C   UNL     1      47.979 -30.040  -2.471  1.00  0.00     0.000 A 
HETATM   28  C   UNL     1      47.672 -31.311  -1.990  1.00  0.00     0.001 A 
HETATM   29  C   UNL     1      47.699 -31.564  -0.616  1.00  0.00     0.014 A 
ENDBRANCH  19  24
ENDBRANCH   2  18
TORSDOF 6
ENDMDL
MODEL 10
REMARK VINA RESULT:      -7.6      4.242      7.596
REMARK  6 active torsions:
REMARK  status: ('A' for Active; 'I' for Inactive)
REMARK    1  A    between atoms: C_2  and  C_3 
REMARK    2  A    between atoms: C_4  and  N_5 
REMARK       I    between atoms: N_5  and  C_6 
REMARK    3  A    between atoms: C_6  and  C_7 
REMARK    4  A    between atoms: C_7  and  N_8 
REMARK       I    between atoms: N_8  and  C_9 
REMARK    5  A    between atoms: C_9  and  C_10 
REMARK    6  A    between atoms: C_11  and  C_12 
ROOT
HETATM    1  N   UNL     1      41.761 -12.446   3.376  1.00  0.00    -0.348 N 
HETATM    2  C   UNL     1      42.714 -13.424   3.597  1.00  0.00     0.255 C 
HETATM    3  O   UNL     1      43.561 -13.702   2.756  1.00  0.00    -0.268 OA
HETATM    4  H   UNL     1      41.020 -12.353   4.055  1.00  0.00     0.163 HD
ENDROOT
BRANCH   1   5
HETATM    5  C   UNL     1      41.476 -12.022   2.012  1.00  0.00     0.226 C 
BRANCH   5   6
HETATM    6  C   UNL     1      40.452 -12.855   1.222  1.00  0.00     0.239 C 
HETATM    7  N   UNL     1      40.335 -12.481  -0.104  1.00  0.00    -0.325 N 
HETATM    8  H   UNL     1      40.941 -11.722  -0.381  1.00  0.00     0.169 HD
HETATM    9  O   UNL     1      39.757 -13.678   1.815  1.00  0.00    -0.271 OA
BRANCH   7  10
HETATM   10  C   UNL     1      39.513 -13.052  -1.102  1.00  0.00     0.041 A 
HETATM   11  C   UNL     1      38.225 -12.517  -1.327  1.00  0.00    -0.032 A 
HETATM   12  C   UNL     1      37.416 -13.075  -2.339  1.00  0.00     0.009 A 
HETATM   13  C   UNL     1      37.869 -14.137  -3.119  1.00  0.00     0.001 A 
HETATM   14  C   UNL     1      39.135 -14.659  -2.896  1.00  0.00     0.002 A 
HETATM   15  C   UNL     1      39.948 -14.122  -1.896  1.00  0.00     0.030 A 
BRANCH  11  16
HETATM   16  C   UNL     1      37.636 -11.385  -0.513  1.00  0.00     0.036 C 
HETATM   17  C   UNL     1      37.572 -10.078  -1.290  1.00  0.00     0.010 C 
ENDBRANCH  11  16
ENDBRANCH   7  10
ENDBRANCH   5   6
ENDBRANCH   1   5
BRANCH   2  18
HETATM   18  C   UNL     1      42.637 -14.070   4.894  1.00  0.00     0.080 A 
HETATM   19  C   UNL     1      42.747 -15.464   5.216  1.00  0.00     0.104 A 
HETATM   20  N   UNL     1      42.536 -15.663   6.530  1.00  0.00    -0.174 NA
HETATM   21  N   UNL     1      42.298 -14.450   7.031  1.00  0.00    -0.288 N 
HETATM   22  H   UNL     1      42.087 -14.375   8.022  1.00  0.00     0.188 HD
HETATM   23  C   UNL     1      42.367 -13.455   6.105  1.00  0.00     0.128 A 
BRANCH  19  24
HETATM   24  C   UNL     1      43.072 -16.602   4.349  1.00  0.00    -0.005 A 
HETATM   25  C   UNL     1      44.096 -17.498   4.676  1.00  0.00     0.014 A 
HETATM   26  C   UNL     1      44.375 -18.596   3.856  1.00  0.00     0.001 A 
HETATM   27  C   UNL     1      43.626 -18.812   2.702  1.00  0.00     0.000 A 
HETATM   28  C   UNL     1      42.598 -17.932   2.366  1.00  0.00     0.001 A 
HETATM   29  C   UNL     1      42.320 -16.837   3.187  1.00  0.00     0.014 A 
ENDBRANCH  19  24
ENDBRANCH   2  18
TORSDOF 6
ENDMDL
