MODEL 1
REMARK VINA RESULT:      -8.1      0.000      0.000
REMARK  3 active torsions:
REMARK  status: ('A' for Active; 'I' for Inactive)
REMARK    1  A    between atoms: C_2  and  N_3 
REMARK    2  A    between atoms: N_3  and  C_4 
REMARK    3  A    between atoms: C_12  and  C_13 
ROOT
HETATM    1  C   UNL     1      42.117 -13.461   3.516  1.00  0.00     0.139 A 
HETATM    2  N   UNL     1      41.882 -12.440   2.664  1.00  0.00    -0.224 NA
HETATM    3  C   UNL     1      42.345 -11.218   2.949  1.00  0.00     0.236 A 
HETATM    4  N   UNL     1      43.052 -10.851   4.014  1.00  0.00    -0.234 NA
HETATM    5  C   UNL     1      43.306 -11.883   4.834  1.00  0.00     0.113 A 
HETATM    6  C   UNL     1      42.902 -13.203   4.670  1.00  0.00     0.055 A 
HETATM    7  S   UNL     1      44.215 -11.627   6.248  1.00  0.00    -0.081 SA
HETATM    8  C   UNL     1      44.136 -13.275   6.664  1.00  0.00     0.062 A 
HETATM    9  C   UNL     1      43.427 -14.036   5.747  1.00  0.00    -0.003 A 
ENDROOT
BRANCH   9  10
HETATM   10  C   UNL     1      43.276 -15.532   5.905  1.00  0.00     0.188 C 
HETATM   11  O   UNL     1      44.096 -16.247   4.961  1.00  0.00    -0.336 OA
HETATM   12  C   UNL     1      43.981 -17.601   5.165  1.00  0.00     0.103 A 
HETATM   13  C   UNL     1      43.530 -18.155   6.370  1.00  0.00     0.102 A 
HETATM   14  C   UNL     1      44.332 -18.429   4.102  1.00  0.00     0.040 A 
HETATM   15  O   UNL     1      43.177 -17.405   7.463  1.00  0.00    -0.345 OA
HETATM   16  C   UNL     1      43.392 -19.536   6.491  1.00  0.00     0.039 A 
HETATM   17  C   UNL     1      43.566 -16.029   7.323  1.00  0.00     0.213 C 
HETATM   18  C   UNL     1      43.724 -20.365   5.419  1.00  0.00     0.003 A 
HETATM   19  C   UNL     1      44.197 -19.813   4.227  1.00  0.00     0.003 A 
ENDBRANCH   9  10
BRANCH   1  20
HETATM   20  N   UNL     1      41.605 -14.723   3.247  1.00  0.00    -0.366 N 
HETATM   21  H   UNL     1      40.626 -14.782   3.524  1.00  0.00     0.162 HD
BRANCH  20  22
HETATM   22  C   UNL     1      41.922 -15.493   2.034  1.00  0.00     0.021 C 
HETATM   23  C   UNL     1      43.413 -15.398   1.682  1.00  0.00     0.037 C 
HETATM   24  C   UNL     1      41.036 -15.080   0.851  1.00  0.00     0.037 C 
HETATM   25  C   UNL     1      41.616 -16.970   2.367  1.00  0.00     0.037 C 
ENDBRANCH  20  22
ENDBRANCH   1  20
TORSDOF 3
ENDMDL
MODEL 2
REMARK VINA RESULT:      -7.6      3.573      6.427
REMARK  3 active torsions:
REMARK  status: ('A' for Active; 'I' for Inactive)
REMARK    1  A    between atoms: C_2  and  N_3 
REMARK    2  A    between atoms: N_3  and  C_4 
REMARK    3  A    between atoms: C_12  and  C_13 
ROOT
HETATM    1  C   UNL     1      40.768 -15.402   4.158  1.00  0.00     0.139 A 
HETATM    2  N   UNL     1      40.591 -16.272   5.175  1.00  0.00    -0.224 NA
HETATM    3  C   UNL     1      40.220 -15.820   6.379  1.00  0.00     0.236 A 
HETATM    4  N   UNL     1      39.981 -14.560   6.728  1.00  0.00    -0.234 NA
HETATM    5  C   UNL     1      40.128 -13.711   5.699  1.00  0.00     0.113 A 
HETATM    6  C   UNL     1      40.497 -14.029   4.396  1.00  0.00     0.055 A 
HETATM    7  S   UNL     1      39.848 -12.051   5.934  1.00  0.00    -0.081 SA
HETATM    8  C   UNL     1      40.169 -11.709   4.299  1.00  0.00     0.062 A 
HETATM    9  C   UNL     1      40.489 -12.835   3.557  1.00  0.00    -0.003 A 
ENDROOT
BRANCH   9  10
HETATM   10  C   UNL     1      40.764 -12.758   2.073  1.00  0.00     0.188 C 
HETATM   11  O   UNL     1      39.821 -13.543   1.320  1.00  0.00    -0.336 OA
HETATM   12  C   UNL     1      40.061 -13.408  -0.027  1.00  0.00     0.103 A 
HETATM   13  C   UNL     1      40.777 -12.335  -0.569  1.00  0.00     0.102 A 
HETATM   14  C   UNL     1      39.559 -14.407  -0.858  1.00  0.00     0.040 A 
HETATM   15  O   UNL     1      41.292 -11.309   0.183  1.00  0.00    -0.345 OA
HETATM   16  C   UNL     1      41.025 -12.287  -1.939  1.00  0.00     0.039 A 
HETATM   17  C   UNL     1      40.795 -11.327   1.531  1.00  0.00     0.213 C 
HETATM   18  C   UNL     1      40.540 -13.297  -2.771  1.00  0.00     0.003 A 
HETATM   19  C   UNL     1      39.805 -14.355  -2.231  1.00  0.00     0.003 A 
ENDBRANCH   9  10
BRANCH   1  20
HETATM   20  N   UNL     1      41.191 -15.858   2.917  1.00  0.00    -0.366 N 
HETATM   21  H   UNL     1      40.837 -15.258   2.172  1.00  0.00     0.162 HD
BRANCH  20  22
HETATM   22  C   UNL     1      42.537 -16.390   2.656  1.00  0.00     0.021 C 
HETATM   23  C   UNL     1      42.493 -17.885   2.310  1.00  0.00     0.037 C 
HETATM   24  C   UNL     1      43.495 -16.110   3.821  1.00  0.00     0.037 C 
HETATM   25  C   UNL     1      43.065 -15.641   1.413  1.00  0.00     0.037 C 
ENDBRANCH  20  22
ENDBRANCH   1  20
TORSDOF 3
ENDMDL
MODEL 3
REMARK VINA RESULT:      -7.2      2.951      6.015
REMARK  3 active torsions:
REMARK  status: ('A' for Active; 'I' for Inactive)
REMARK    1  A    between atoms: C_2  and  N_3 
REMARK    2  A    between atoms: N_3  and  C_4 
REMARK    3  A    between atoms: C_12  and  C_13 
ROOT
HETATM    1  C   UNL     1      41.903 -14.941   4.016  1.00  0.00     0.139 A 
HETATM    2  N   UNL     1      41.809 -15.988   3.170  1.00  0.00    -0.224 NA
HETATM    3  C   UNL     1      40.872 -15.989   2.215  1.00  0.00     0.236 A 
HETATM    4  N   UNL     1      39.972 -15.041   1.968  1.00  0.00    -0.234 NA
HETATM    5  C   UNL     1      40.099 -13.993   2.796  1.00  0.00     0.113 A 
HETATM    6  C   UNL     1      41.024 -13.843   3.823  1.00  0.00     0.055 A 
HETATM    7  S   UNL     1      39.052 -12.663   2.632  1.00  0.00    -0.081 SA
HETATM    8  C   UNL     1      39.825 -11.828   3.897  1.00  0.00     0.062 A 
HETATM    9  C   UNL     1      40.877 -12.536   4.456  1.00  0.00    -0.003 A 
ENDROOT
BRANCH   9  10
HETATM   10  C   UNL     1      41.727 -11.955   5.564  1.00  0.00     0.188 C 
HETATM   11  O   UNL     1      43.108 -11.854   5.171  1.00  0.00    -0.336 OA
HETATM   12  C   UNL     1      43.844 -11.271   6.175  1.00  0.00     0.103 A 
HETATM   13  C   UNL     1      43.270 -10.490   7.185  1.00  0.00     0.102 A 
HETATM   14  C   UNL     1      45.218 -11.495   6.158  1.00  0.00     0.040 A 
HETATM   15  O   UNL     1      41.928 -10.217   7.263  1.00  0.00    -0.345 OA
HETATM   16  C   UNL     1      44.070  -9.970   8.201  1.00  0.00     0.039 A 
HETATM   17  C   UNL     1      41.230 -10.597   6.066  1.00  0.00     0.213 C 
HETATM   18  C   UNL     1      45.445 -10.210   8.196  1.00  0.00     0.003 A 
HETATM   19  C   UNL     1      46.019 -10.969   7.174  1.00  0.00     0.003 A 
ENDBRANCH   9  10
BRANCH   1  20
HETATM   20  N   UNL     1      42.847 -14.950   5.033  1.00  0.00    -0.366 N 
HETATM   21  H   UNL     1      43.281 -14.032   5.132  1.00  0.00     0.162 HD
BRANCH  20  22
HETATM   22  C   UNL     1      42.667 -15.657   6.311  1.00  0.00     0.021 C 
HETATM   23  C   UNL     1      43.451 -16.977   6.339  1.00  0.00     0.037 C 
HETATM   24  C   UNL     1      41.183 -15.877   6.635  1.00  0.00     0.037 C 
HETATM   25  C   UNL     1      43.263 -14.740   7.401  1.00  0.00     0.037 C 
ENDBRANCH  20  22
ENDBRANCH   1  20
TORSDOF 3
ENDMDL
MODEL 4
REMARK VINA RESULT:      -7.1      3.473      4.951
REMARK  3 active torsions:
REMARK  status: ('A' for Active; 'I' for Inactive)
REMARK    1  A    between atoms: C_2  and  N_3 
REMARK    2  A    between atoms: N_3  and  C_4 
REMARK    3  A    between atoms: C_12  and  C_13 
ROOT
HETATM    1  C   UNL     1      41.013 -11.314  -0.648  1.00  0.00     0.139 A 
HETATM    2  N   UNL     1      41.114 -10.474  -1.699  1.00  0.00    -0.224 NA
HETATM    3  C   UNL     1      41.011  -9.154  -1.507  1.00  0.00     0.236 A 
HETATM    4  N   UNL     1      40.817  -8.520  -0.355  1.00  0.00    -0.234 NA
HETATM    5  C   UNL     1      40.752  -9.365   0.685  1.00  0.00     0.113 A 
HETATM    6  C   UNL     1      40.851 -10.752   0.645  1.00  0.00     0.055 A 
HETATM    7  S   UNL     1      40.526  -8.751   2.254  1.00  0.00    -0.081 SA
HETATM    8  C   UNL     1      40.595 -10.308   2.935  1.00  0.00     0.062 A 
HETATM    9  C   UNL     1      40.789 -11.308   1.994  1.00  0.00    -0.003 A 
ENDROOT
BRANCH   9  10
HETATM   10  C   UNL     1      40.926 -12.759   2.393  1.00  0.00     0.188 C 
HETATM   11  O   UNL     1      42.169 -13.319   1.928  1.00  0.00    -0.336 OA
HETATM   12  C   UNL     1      42.290 -14.620   2.354  1.00  0.00     0.103 A 
HETATM   13  C   UNL     1      41.566 -15.139   3.434  1.00  0.00     0.102 A 
HETATM   14  C   UNL     1      43.177 -15.432   1.650  1.00  0.00     0.040 A 
HETATM   15  O   UNL     1      40.684 -14.400   4.181  1.00  0.00    -0.345 OA
HETATM   16  C   UNL     1      41.702 -16.482   3.781  1.00  0.00     0.039 A 
HETATM   17  C   UNL     1      40.783 -12.995   3.899  1.00  0.00     0.213 C 
HETATM   18  C   UNL     1      42.576 -17.301   3.064  1.00  0.00     0.003 A 
HETATM   19  C   UNL     1      43.315 -16.775   2.002  1.00  0.00     0.003 A 
ENDBRANCH   9  10
BRANCH   1  20
HETATM   20  N   UNL     1      41.080 -12.687  -0.844  1.00  0.00    -0.366 N 
HETATM   21  H   UNL     1      41.682 -13.123  -0.145  1.00  0.00     0.162 HD
BRANCH  20  22
HETATM   22  C   UNL     1      39.928 -13.516  -1.228  1.00  0.00     0.021 C 
HETATM   23  C   UNL     1      38.617 -12.717  -1.171  1.00  0.00     0.037 C 
HETATM   24  C   UNL     1      39.844 -14.797  -0.388  1.00  0.00     0.037 C 
HETATM   25  C   UNL     1      40.159 -13.924  -2.700  1.00  0.00     0.037 C 
ENDBRANCH  20  22
ENDBRANCH   1  20
TORSDOF 3
ENDMDL
MODEL 5
REMARK VINA RESULT:      -7.0      2.692      4.424
REMARK  3 active torsions:
REMARK  status: ('A' for Active; 'I' for Inactive)
REMARK    1  A    between atoms: C_2  and  N_3 
REMARK    2  A    between atoms: N_3  and  C_4 
REMARK    3  A    between atoms: C_12  and  C_13 
ROOT
HETATM    1  C   UNL     1      40.798 -11.907   5.782  1.00  0.00     0.139 A 
HETATM    2  N   UNL     1      40.234 -10.865   6.428  1.00  0.00    -0.224 NA
HETATM    3  C   UNL     1      39.251 -10.172   5.840  1.00  0.00     0.236 A 
HETATM    4  N   UNL     1      38.721 -10.386   4.640  1.00  0.00    -0.234 NA
HETATM    5  C   UNL     1      39.269 -11.445   4.024  1.00  0.00     0.113 A 
HETATM    6  C   UNL     1      40.284 -12.263   4.508  1.00  0.00     0.055 A 
HETATM    7  S   UNL     1      38.715 -11.899   2.482  1.00  0.00    -0.081 SA
HETATM    8  C   UNL     1      39.780 -13.224   2.428  1.00  0.00     0.062 A 
HETATM    9  C   UNL     1      40.563 -13.343   3.566  1.00  0.00    -0.003 A 
ENDROOT
BRANCH   9  10
HETATM   10  C   UNL     1      41.543 -14.480   3.741  1.00  0.00     0.188 C 
HETATM   11  O   UNL     1      41.277 -15.226   4.944  1.00  0.00    -0.336 OA
HETATM   12  C   UNL     1      42.147 -16.285   5.047  1.00  0.00     0.103 A 
HETATM   13  C   UNL     1      42.838 -16.812   3.949  1.00  0.00     0.102 A 
HETATM   14  C   UNL     1      42.329 -16.828   6.316  1.00  0.00     0.040 A 
HETATM   15  O   UNL     1      42.703 -16.338   2.669  1.00  0.00    -0.345 OA
HETATM   16  C   UNL     1      43.742 -17.856   4.134  1.00  0.00     0.039 A 
HETATM   17  C   UNL     1      41.596 -15.431   2.543  1.00  0.00     0.213 C 
HETATM   18  C   UNL     1      43.940 -18.388   5.409  1.00  0.00     0.003 A 
HETATM   19  C   UNL     1      43.232 -17.877   6.498  1.00  0.00     0.003 A 
ENDBRANCH   9  10
BRANCH   1  20
HETATM   20  N   UNL     1      41.844 -12.606   6.369  1.00  0.00    -0.366 N 
HETATM   21  H   UNL     1      41.713 -13.612   6.259  1.00  0.00     0.162 HD
BRANCH  20  22
HETATM   22  C   UNL     1      43.252 -12.185   6.299  1.00  0.00     0.021 C 
HETATM   23  C   UNL     1      43.613 -11.239   7.454  1.00  0.00     0.037 C 
HETATM   24  C   UNL     1      43.593 -11.566   4.937  1.00  0.00     0.037 C 
HETATM   25  C   UNL     1      44.096 -13.466   6.467  1.00  0.00     0.037 C 
ENDBRANCH  20  22
ENDBRANCH   1  20
TORSDOF 3
ENDMDL
MODEL 6
REMARK VINA RESULT:      -6.9      2.160      2.866
REMARK  3 active torsions:
REMARK  status: ('A' for Active; 'I' for Inactive)
REMARK    1  A    between atoms: C_2  and  N_3 
REMARK    2  A    between atoms: N_3  and  C_4 
REMARK    3  A    between atoms: C_12  and  C_13 
ROOT
HETATM    1  C   UNL     1      40.592 -11.622   4.901  1.00  0.00     0.139 A 
HETATM    2  N   UNL     1      39.951 -10.443   4.759  1.00  0.00    -0.224 NA
HETATM    3  C   UNL     1      40.387  -9.365   5.421  1.00  0.00     0.236 A 
HETATM    4  N   UNL     1      41.431  -9.292   6.242  1.00  0.00    -0.234 NA
HETATM    5  C   UNL     1      42.078 -10.463   6.348  1.00  0.00     0.113 A 
HETATM    6  C   UNL     1      41.752 -11.660   5.718  1.00  0.00     0.055 A 
HETATM    7  S   UNL     1      43.455 -10.575   7.338  1.00  0.00    -0.081 SA
HETATM    8  C   UNL     1      43.686 -12.209   6.927  1.00  0.00     0.062 A 
HETATM    9  C   UNL     1      42.733 -12.690   6.042  1.00  0.00    -0.003 A 
ENDROOT
BRANCH   9  10
HETATM   10  C   UNL     1      42.782 -14.106   5.513  1.00  0.00     0.188 C 
HETATM   11  O   UNL     1      43.144 -14.136   4.119  1.00  0.00    -0.336 OA
HETATM   12  C   UNL     1      43.236 -15.436   3.682  1.00  0.00     0.103 A 
HETATM   13  C   UNL     1      43.415 -16.520   4.549  1.00  0.00     0.102 A 
HETATM   14  C   UNL     1      43.134 -15.646   2.309  1.00  0.00     0.040 A 
HETATM   15  O   UNL     1      43.533 -16.392   5.910  1.00  0.00    -0.345 OA
HETATM   16  C   UNL     1      43.450 -17.817   4.041  1.00  0.00     0.039 A 
HETATM   17  C   UNL     1      43.713 -15.023   6.309  1.00  0.00     0.213 C 
HETATM   18  C   UNL     1      43.329 -18.030   2.668  1.00  0.00     0.003 A 
HETATM   19  C   UNL     1      43.175 -16.946   1.802  1.00  0.00     0.003 A 
ENDBRANCH   9  10
BRANCH   1  20
HETATM   20  N   UNL     1      40.122 -12.753   4.248  1.00  0.00    -0.366 N 
HETATM   21  H   UNL     1      39.361 -13.183   4.774  1.00  0.00     0.162 HD
BRANCH  20  22
HETATM   22  C   UNL     1      39.956 -12.847   2.790  1.00  0.00     0.021 C 
HETATM   23  C   UNL     1      41.186 -12.304   2.048  1.00  0.00     0.037 C 
HETATM   24  C   UNL     1      38.667 -12.161   2.318  1.00  0.00     0.037 C 
HETATM   25  C   UNL     1      39.843 -14.352   2.462  1.00  0.00     0.037 C 
ENDBRANCH  20  22
ENDBRANCH   1  20
TORSDOF 3
ENDMDL
MODEL 7
REMARK VINA RESULT:      -6.9      2.881      5.723
REMARK  3 active torsions:
REMARK  status: ('A' for Active; 'I' for Inactive)
REMARK    1  A    between atoms: C_2  and  N_3 
REMARK    2  A    between atoms: N_3  and  C_4 
REMARK    3  A    between atoms: C_12  and  C_13 
ROOT
HETATM    1  C   UNL     1      42.585 -16.000   3.319  1.00  0.00     0.139 A 
HETATM    2  N   UNL     1      42.941 -16.858   2.339  1.00  0.00    -0.224 NA
HETATM    3  C   UNL     1      43.495 -18.034   2.655  1.00  0.00     0.236 A 
HETATM    4  N   UNL     1      43.752 -18.503   3.873  1.00  0.00    -0.234 NA
HETATM    5  C   UNL     1      43.363 -17.654   4.836  1.00  0.00     0.113 A 
HETATM    6  C   UNL     1      42.769 -16.408   4.666  1.00  0.00     0.055 A 
HETATM    7  S   UNL     1      43.587 -18.076   6.468  1.00  0.00    -0.081 SA
HETATM    8  C   UNL     1      42.861 -16.633   6.999  1.00  0.00     0.062 A 
HETATM    9  C   UNL     1      42.441 -15.817   5.959  1.00  0.00    -0.003 A 
ENDROOT
BRANCH   9  10
HETATM   10  C   UNL     1      41.730 -14.508   6.214  1.00  0.00     0.188 C 
HETATM   11  O   UNL     1      42.313 -13.434   5.453  1.00  0.00    -0.336 OA
HETATM   12  C   UNL     1      41.611 -12.271   5.661  1.00  0.00     0.103 A 
HETATM   13  C   UNL     1      40.296 -12.250   6.141  1.00  0.00     0.102 A 
HETATM   14  C   UNL     1      42.272 -11.078   5.376  1.00  0.00     0.040 A 
HETATM   15  O   UNL     1      39.577 -13.381   6.434  1.00  0.00    -0.345 OA
HETATM   16  C   UNL     1      39.661 -11.032   6.375  1.00  0.00     0.039 A 
HETATM   17  C   UNL     1      40.223 -14.571   5.950  1.00  0.00     0.213 C 
HETATM   18  C   UNL     1      40.329  -9.836   6.109  1.00  0.00     0.003 A 
HETATM   19  C   UNL     1      41.632  -9.859   5.606  1.00  0.00     0.003 A 
ENDBRANCH   9  10
BRANCH   1  20
HETATM   20  N   UNL     1      42.046 -14.762   2.998  1.00  0.00    -0.366 N 
HETATM   21  H   UNL     1      42.785 -14.085   2.805  1.00  0.00     0.162 HD
BRANCH  20  22
HETATM   22  C   UNL     1      40.850 -14.582   2.161  1.00  0.00     0.021 C 
HETATM   23  C   UNL     1      39.798 -15.662   2.446  1.00  0.00     0.037 C 
HETATM   24  C   UNL     1      41.204 -14.520   0.669  1.00  0.00     0.037 C 
HETATM   25  C   UNL     1      40.240 -13.222   2.564  1.00  0.00     0.037 C 
ENDBRANCH  20  22
ENDBRANCH   1  20
TORSDOF 3
ENDMDL
MODEL 8
REMARK VINA RESULT:      -6.8     14.910     16.767
REMARK  3 active torsions:
REMARK  status: ('A' for Active; 'I' for Inactive)
REMARK    1  A    between atoms: C_2  and  N_3 
REMARK    2  A    between atoms: N_3  and  C_4 
REMARK    3  A    between atoms: C_12  and  C_13 
ROOT
HETATM    1  C   UNL     1      49.979 -30.303   1.875  1.00  0.00     0.139 A 
HETATM    2  N   UNL     1      50.993 -30.776   2.632  1.00  0.00    -0.224 NA
HETATM    3  C   UNL     1      50.772 -31.096   3.912  1.00  0.00     0.236 A 
HETATM    4  N   UNL     1      49.623 -31.014   4.578  1.00  0.00    -0.234 NA
HETATM    5  C   UNL     1      48.619 -30.574   3.804  1.00  0.00     0.113 A 
HETATM    6  C   UNL     1      48.691 -30.213   2.463  1.00  0.00     0.055 A 
HETATM    7  S   UNL     1      47.060 -30.415   4.462  1.00  0.00    -0.081 SA
HETATM    8  C   UNL     1      46.422 -29.901   2.972  1.00  0.00     0.062 A 
HETATM    9  C   UNL     1      47.370 -29.843   1.962  1.00  0.00    -0.003 A 
ENDROOT
BRANCH   9  10
HETATM   10  C   UNL     1      47.003 -29.454   0.548  1.00  0.00     0.188 C 
HETATM   11  O   UNL     1      45.632 -29.778   0.251  1.00  0.00    -0.336 OA
HETATM   12  C   UNL     1      45.312 -29.362  -1.019  1.00  0.00     0.103 A 
HETATM   13  C   UNL     1      46.040 -28.382  -1.706  1.00  0.00     0.102 A 
HETATM   14  C   UNL     1      44.213 -29.969  -1.621  1.00  0.00     0.040 A 
HETATM   15  O   UNL     1      47.126 -27.733  -1.176  1.00  0.00    -0.345 OA
HETATM   16  C   UNL     1      45.688 -28.043  -3.011  1.00  0.00     0.039 A 
HETATM   17  C   UNL     1      47.267 -27.979   0.233  1.00  0.00     0.213 C 
HETATM   18  C   UNL     1      44.599 -28.666  -3.622  1.00  0.00     0.003 A 
HETATM   19  C   UNL     1      43.860 -29.625  -2.927  1.00  0.00     0.003 A 
ENDBRANCH   9  10
BRANCH   1  20
HETATM   20  N   UNL     1      50.209 -29.931   0.558  1.00  0.00    -0.366 N 
HETATM   21  H   UNL     1      50.906 -29.188   0.509  1.00  0.00     0.162 HD
BRANCH  20  22
HETATM   22  C   UNL     1      50.286 -30.884  -0.560  1.00  0.00     0.021 C 
HETATM   23  C   UNL     1      49.368 -32.093  -0.331  1.00  0.00     0.037 C 
HETATM   24  C   UNL     1      51.730 -31.319  -0.839  1.00  0.00     0.037 C 
HETATM   25  C   UNL     1      49.764 -30.134  -1.805  1.00  0.00     0.037 C 
ENDBRANCH  20  22
ENDBRANCH   1  20
TORSDOF 3
ENDMDL
MODEL 9
REMARK VINA RESULT:      -6.8      3.089      4.726
REMARK  3 active torsions:
REMARK  status: ('A' for Active; 'I' for Inactive)
REMARK    1  A    between atoms: C_2  and  N_3 
REMARK    2  A    between atoms: N_3  and  C_4 
REMARK    3  A    between atoms: C_12  and  C_13 
ROOT
HETATM    1  C   UNL     1      39.144 -12.713   2.824  1.00  0.00     0.139 A 
HETATM    2  N   UNL     1      38.113 -11.847   2.718  1.00  0.00    -0.224 NA
HETATM    3  C   UNL     1      37.750 -11.391   1.513  1.00  0.00     0.236 A 
HETATM    4  N   UNL     1      38.293 -11.697   0.338  1.00  0.00    -0.234 NA
HETATM    5  C   UNL     1      39.294 -12.582   0.456  1.00  0.00     0.113 A 
HETATM    6  C   UNL     1      39.776 -13.150   1.631  1.00  0.00     0.055 A 
HETATM    7  S   UNL     1      40.109 -13.118  -0.935  1.00  0.00    -0.081 SA
HETATM    8  C   UNL     1      41.102 -14.155  -0.023  1.00  0.00     0.062 A 
HETATM    9  C   UNL     1      40.834 -14.112   1.336  1.00  0.00    -0.003 A 
ENDROOT
BRANCH   9  10
HETATM   10  C   UNL     1      41.572 -14.991   2.320  1.00  0.00     0.188 C 
HETATM   11  O   UNL     1      42.101 -16.168   1.683  1.00  0.00    -0.336 OA
HETATM   12  C   UNL     1      42.813 -16.918   2.588  1.00  0.00     0.103 A 
HETATM   13  C   UNL     1      43.327 -16.388   3.778  1.00  0.00     0.102 A 
HETATM   14  C   UNL     1      43.008 -18.261   2.277  1.00  0.00     0.040 A 
HETATM   15  O   UNL     1      43.185 -15.075   4.147  1.00  0.00    -0.345 OA
HETATM   16  C   UNL     1      43.998 -17.217   4.674  1.00  0.00     0.039 A 
HETATM   17  C   UNL     1      42.689 -14.262   3.071  1.00  0.00     0.213 C 
HETATM   18  C   UNL     1      44.176 -18.568   4.373  1.00  0.00     0.003 A 
HETATM   19  C   UNL     1      43.685 -19.089   3.174  1.00  0.00     0.003 A 
ENDBRANCH   9  10
BRANCH   1  20
HETATM   20  N   UNL     1      39.552 -13.159   4.073  1.00  0.00    -0.366 N 
HETATM   21  H   UNL     1      39.996 -14.075   4.002  1.00  0.00     0.162 HD
BRANCH  20  22
HETATM   22  C   UNL     1      40.154 -12.291   5.097  1.00  0.00     0.021 C 
HETATM   23  C   UNL     1      39.080 -11.575   5.928  1.00  0.00     0.037 C 
HETATM   24  C   UNL     1      41.148 -11.296   4.485  1.00  0.00     0.037 C 
HETATM   25  C   UNL     1      40.935 -13.222   6.049  1.00  0.00     0.037 C 
ENDBRANCH  20  22
ENDBRANCH   1  20
TORSDOF 3
ENDMDL
MODEL 10
REMARK VINA RESULT:      -6.7      2.627      4.570
REMARK  3 active torsions:
REMARK  status: ('A' for Active; 'I' for Inactive)
REMARK    1  A    between atoms: C_2  and  N_3 
REMARK    2  A    between atoms: N_3  and  C_4 
REMARK    3  A    between atoms: C_12  and  C_13 
ROOT
HETATM    1  C   UNL     1      40.251 -12.287   3.286  1.00  0.00     0.139 A 
HETATM    2  N   UNL     1      39.394 -11.246   3.364  1.00  0.00    -0.224 NA
HETATM    3  C   UNL     1      38.661 -10.907   2.297  1.00  0.00     0.236 A 
HETATM    4  N   UNL     1      38.656 -11.494   1.103  1.00  0.00    -0.234 NA
HETATM    5  C   UNL     1      39.487 -12.546   1.051  1.00  0.00     0.113 A 
HETATM    6  C   UNL     1      40.301 -13.023   2.073  1.00  0.00     0.055 A 
HETATM    7  S   UNL     1      39.612 -13.446  -0.386  1.00  0.00    -0.081 SA
HETATM    8  C   UNL     1      40.722 -14.524   0.320  1.00  0.00     0.062 A 
HETATM    9  C   UNL     1      41.011 -14.223   1.642  1.00  0.00    -0.003 A 
ENDROOT
BRANCH   9  10
HETATM   10  C   UNL     1      41.940 -15.083   2.468  1.00  0.00     0.188 C 
HETATM   11  O   UNL     1      41.305 -15.532   3.680  1.00  0.00    -0.336 OA
HETATM   12  C   UNL     1      42.151 -16.356   4.381  1.00  0.00     0.103 A 
HETATM   13  C   UNL     1      43.237 -17.014   3.790  1.00  0.00     0.102 A 
HETATM   14  C   UNL     1      41.892 -16.515   5.740  1.00  0.00     0.040 A 
HETATM   15  O   UNL     1      43.549 -16.916   2.458  1.00  0.00    -0.345 OA
HETATM   16  C   UNL     1      44.084 -17.797   4.572  1.00  0.00     0.039 A 
HETATM   17  C   UNL     1      42.502 -16.284   1.703  1.00  0.00     0.213 C 
HETATM   18  C   UNL     1      43.836 -17.941   5.937  1.00  0.00     0.003 A 
HETATM   19  C   UNL     1      42.739 -17.303   6.521  1.00  0.00     0.003 A 
ENDBRANCH   9  10
BRANCH   1  20
HETATM   20  N   UNL     1      41.043 -12.620   4.375  1.00  0.00    -0.366 N 
HETATM   21  H   UNL     1      41.035 -13.628   4.533  1.00  0.00     0.162 HD
BRANCH  20  22
HETATM   22  C   UNL     1      42.338 -11.988   4.669  1.00  0.00     0.021 C 
HETATM   23  C   UNL     1      42.979 -11.406   3.402  1.00  0.00     0.037 C 
HETATM   24  C   UNL     1      43.290 -12.952   5.390  1.00  0.00     0.037 C 
HETATM   25  C   UNL     1      42.039 -10.810   5.622  1.00  0.00     0.037 C 
ENDBRANCH  20  22
ENDBRANCH   1  20
TORSDOF 3
ENDMDL
