MODEL 1
REMARK VINA RESULT:      -9.0      0.000      0.000
REMARK  7 active torsions:
REMARK  status: ('A' for Active; 'I' for Inactive)
REMARK    1  A    between atoms: C_4  and  C_5 
REMARK    2  A    between atoms: C_5  and  N_6 
REMARK       I    between atoms: N_6  and  C_7 
REMARK    3  A    between atoms: N_6  and  C_22 
REMARK    4  A    between atoms: C_7  and  C_8 
REMARK    5  A    between atoms: C_13  and  C_14 
REMARK    6  A    between atoms: C_15  and  O_16 
REMARK    7  A    between atoms: C_22  and  C_23 
ROOT
HETATM    1  N   UNL     1      42.371 -15.868   2.936  1.00  0.00    -0.343 N 
HETATM    2  C   UNL     1      42.528 -15.295   4.201  1.00  0.00     0.235 C 
HETATM    3  O   UNL     1      43.608 -15.371   4.794  1.00  0.00    -0.272 OA
ENDROOT
BRANCH   2   4
HETATM    4  C   UNL     1      41.362 -14.559   4.823  1.00  0.00     0.195 C 
HETATM    5  C   UNL     1      40.896 -15.057   6.155  1.00  0.00     0.247 C 
HETATM    6  O   UNL     1      40.857 -16.207   6.557  1.00  0.00    -0.271 OA
HETATM    7  N   UNL     1      40.370 -13.964   6.823  1.00  0.00    -0.290 N 
HETATM    8  N   UNL     1      40.550 -12.752   6.146  1.00  0.00    -0.228 NA
HETATM    9  H   UNL     1      39.958 -14.053   7.746  1.00  0.00     0.183 HD
HETATM   10  C   UNL     1      41.565 -13.053   5.093  1.00  0.00     0.134 C 
HETATM   11  H   UNL     1      40.938 -12.056   6.793  1.00  0.00     0.147 HD
BRANCH  10  12
HETATM   12  C   UNL     1      42.913 -12.490   5.529  1.00  0.00    -0.004 A 
HETATM   13  C   UNL     1      43.802 -11.886   4.620  1.00  0.00     0.073 A 
HETATM   14  C   UNL     1      45.006 -11.317   5.044  1.00  0.00     0.037 A 
HETATM   15  C   UNL     1      45.347 -11.314   6.392  1.00  0.00     0.003 A 
HETATM   16  C   UNL     1      44.477 -11.877   7.316  1.00  0.00     0.001 A 
HETATM   17  C   UNL     1      43.272 -12.446   6.892  1.00  0.00     0.012 A 
BRANCH  13  18
HETATM   18  O   UNL     1      43.571 -11.768   3.277  1.00  0.00    -0.360 OA
HETATM   19  H   UNL     1      42.714 -12.147   3.030  1.00  0.00     0.217 HD
ENDBRANCH  13  18
ENDBRANCH  10  12
ENDBRANCH   2   4
BRANCH   1  20
HETATM   20  C   UNL     1      43.515 -16.584   2.363  1.00  0.00     0.164 C 
BRANCH  20  21
HETATM   21  C   UNL     1      43.574 -18.035   2.791  1.00  0.00    -0.040 A 
HETATM   22  C   UNL     1      44.119 -18.390   4.035  1.00  0.00     0.009 A 
HETATM   23  C   UNL     1      44.188 -19.729   4.424  1.00  0.00     0.001 A 
HETATM   24  C   UNL     1      43.709 -20.728   3.578  1.00  0.00     0.000 A 
HETATM   25  C   UNL     1      43.157 -20.388   2.345  1.00  0.00     0.001 A 
HETATM   26  C   UNL     1      43.086 -19.049   1.955  1.00  0.00     0.009 A 
ENDBRANCH  20  21
ENDBRANCH   1  20
BRANCH   1  27
HETATM   27  C   UNL     1      41.084 -16.063   2.263  1.00  0.00     0.164 C 
BRANCH  27  28
HETATM   28  C   UNL     1      40.763 -15.016   1.224  1.00  0.00    -0.040 A 
HETATM   29  C   UNL     1      41.368 -13.751   1.246  1.00  0.00     0.009 A 
HETATM   30  C   UNL     1      41.090 -12.813   0.251  1.00  0.00     0.001 A 
HETATM   31  C   UNL     1      40.211 -13.130  -0.783  1.00  0.00     0.000 A 
HETATM   32  C   UNL     1      39.614 -14.387  -0.826  1.00  0.00     0.001 A 
HETATM   33  C   UNL     1      39.892 -15.327   0.167  1.00  0.00     0.009 A 
ENDBRANCH  27  28
ENDBRANCH   1  27
TORSDOF 7
ENDMDL
MODEL 2
REMARK VINA RESULT:      -8.9      2.605      3.841
REMARK  7 active torsions:
REMARK  status: ('A' for Active; 'I' for Inactive)
REMARK    1  A    between atoms: C_4  and  C_5 
REMARK    2  A    between atoms: C_5  and  N_6 
REMARK       I    between atoms: N_6  and  C_7 
REMARK    3  A    between atoms: N_6  and  C_22 
REMARK    4  A    between atoms: C_7  and  C_8 
REMARK    5  A    between atoms: C_13  and  C_14 
REMARK    6  A    between atoms: C_15  and  O_16 
REMARK    7  A    between atoms: C_22  and  C_23 
ROOT
HETATM    1  N   UNL     1      40.241 -14.270   4.965  1.00  0.00    -0.343 N 
HETATM    2  C   UNL     1      39.920 -13.128   5.702  1.00  0.00     0.235 C 
HETATM    3  O   UNL     1      39.864 -13.173   6.934  1.00  0.00    -0.272 OA
ENDROOT
BRANCH   2   4
HETATM    4  C   UNL     1      39.666 -11.829   4.969  1.00  0.00     0.195 C 
HETATM    5  C   UNL     1      38.920 -10.775   5.725  1.00  0.00     0.247 C 
HETATM    6  O   UNL     1      38.015 -10.923   6.529  1.00  0.00    -0.271 OA
HETATM    7  N   UNL     1      39.354  -9.555   5.235  1.00  0.00    -0.290 N 
HETATM    8  N   UNL     1      40.412  -9.661   4.323  1.00  0.00    -0.228 NA
HETATM    9  H   UNL     1      38.970  -8.678   5.571  1.00  0.00     0.183 HD
HETATM   10  C   UNL     1      40.912 -11.059   4.484  1.00  0.00     0.134 C 
HETATM   11  H   UNL     1      41.157  -9.009   4.590  1.00  0.00     0.147 HD
BRANCH  10  12
HETATM   12  C   UNL     1      42.205 -11.033   5.291  1.00  0.00    -0.004 A 
HETATM   13  C   UNL     1      42.229 -10.686   6.655  1.00  0.00     0.073 A 
HETATM   14  C   UNL     1      43.412 -10.729   7.398  1.00  0.00     0.037 A 
HETATM   15  C   UNL     1      44.601 -11.143   6.807  1.00  0.00     0.003 A 
HETATM   16  C   UNL     1      44.602 -11.519   5.471  1.00  0.00     0.001 A 
HETATM   17  C   UNL     1      43.418 -11.476   4.727  1.00  0.00     0.012 A 
BRANCH  13  18
HETATM   18  O   UNL     1      41.129 -10.314   7.377  1.00  0.00    -0.360 OA
HETATM   19  H   UNL     1      40.680  -9.556   6.975  1.00  0.00     0.217 HD
ENDBRANCH  13  18
ENDBRANCH  10  12
ENDBRANCH   2   4
BRANCH   1  20
HETATM   20  C   UNL     1      40.472 -15.517   5.701  1.00  0.00     0.164 C 
BRANCH  20  21
HETATM   21  C   UNL     1      41.943 -15.810   5.911  1.00  0.00    -0.040 A 
HETATM   22  C   UNL     1      42.821 -14.795   6.322  1.00  0.00     0.009 A 
HETATM   23  C   UNL     1      44.180 -15.061   6.501  1.00  0.00     0.001 A 
HETATM   24  C   UNL     1      44.676 -16.344   6.275  1.00  0.00     0.000 A 
HETATM   25  C   UNL     1      43.814 -17.363   5.876  1.00  0.00     0.001 A 
HETATM   26  C   UNL     1      42.454 -17.098   5.698  1.00  0.00     0.009 A 
ENDBRANCH  20  21
ENDBRANCH   1  20
BRANCH   1  27
HETATM   27  C   UNL     1      40.084 -14.398   3.514  1.00  0.00     0.164 C 
BRANCH  27  28
HETATM   28  C   UNL     1      41.296 -14.956   2.806  1.00  0.00    -0.040 A 
HETATM   29  C   UNL     1      42.445 -14.180   2.598  1.00  0.00     0.009 A 
HETATM   30  C   UNL     1      43.570 -14.729   1.980  1.00  0.00     0.001 A 
HETATM   31  C   UNL     1      43.564 -16.061   1.571  1.00  0.00     0.000 A 
HETATM   32  C   UNL     1      42.435 -16.847   1.784  1.00  0.00     0.001 A 
HETATM   33  C   UNL     1      41.309 -16.301   2.403  1.00  0.00     0.009 A 
ENDBRANCH  27  28
ENDBRANCH   1  27
TORSDOF 7
ENDMDL
MODEL 3
REMARK VINA RESULT:      -8.9      2.783      5.879
REMARK  7 active torsions:
REMARK  status: ('A' for Active; 'I' for Inactive)
REMARK    1  A    between atoms: C_4  and  C_5 
REMARK    2  A    between atoms: C_5  and  N_6 
REMARK       I    between atoms: N_6  and  C_7 
REMARK    3  A    between atoms: N_6  and  C_22 
REMARK    4  A    between atoms: C_7  and  C_8 
REMARK    5  A    between atoms: C_13  and  C_14 
REMARK    6  A    between atoms: C_15  and  O_16 
REMARK    7  A    between atoms: C_22  and  C_23 
ROOT
HETATM    1  N   UNL     1      41.595 -15.899   2.950  1.00  0.00    -0.343 N 
HETATM    2  C   UNL     1      40.645 -15.207   2.195  1.00  0.00     0.235 C 
HETATM    3  O   UNL     1      39.498 -15.050   2.622  1.00  0.00    -0.272 OA
ENDROOT
BRANCH   2   4
HETATM    4  C   UNL     1      41.050 -14.634   0.854  1.00  0.00     0.195 C 
HETATM    5  C   UNL     1      40.070 -14.806  -0.265  1.00  0.00     0.247 C 
HETATM    6  O   UNL     1      39.333 -15.752  -0.481  1.00  0.00    -0.271 OA
HETATM    7  N   UNL     1      40.253 -13.731  -1.117  1.00  0.00    -0.290 N 
HETATM    8  N   UNL     1      41.154 -12.775  -0.632  1.00  0.00    -0.228 NA
HETATM    9  H   UNL     1      39.720 -13.636  -1.976  1.00  0.00     0.183 HD
HETATM   10  C   UNL     1      41.327 -13.116   0.811  1.00  0.00     0.134 C 
HETATM   11  H   UNL     1      40.732 -11.843  -0.705  1.00  0.00     0.147 HD
BRANCH  10  12
HETATM   12  C   UNL     1      40.526 -12.130   1.653  1.00  0.00    -0.004 A 
HETATM   13  C   UNL     1      39.190 -11.800   1.352  1.00  0.00     0.073 A 
HETATM   14  C   UNL     1      38.448 -10.944   2.170  1.00  0.00     0.037 A 
HETATM   15  C   UNL     1      39.009 -10.410   3.325  1.00  0.00     0.003 A 
HETATM   16  C   UNL     1      40.314 -10.740   3.663  1.00  0.00     0.001 A 
HETATM   17  C   UNL     1      41.057 -11.597   2.845  1.00  0.00     0.012 A 
BRANCH  13  18
HETATM   18  O   UNL     1      38.495 -12.293   0.282  1.00  0.00    -0.360 OA
HETATM   19  H   UNL     1      38.094 -13.151   0.485  1.00  0.00     0.217 HD
ENDBRANCH  13  18
ENDBRANCH  10  12
ENDBRANCH   2   4
BRANCH   1  20
HETATM   20  C   UNL     1      41.172 -16.452   4.241  1.00  0.00     0.164 C 
BRANCH  20  21
HETATM   21  C   UNL     1      41.847 -15.779   5.417  1.00  0.00    -0.040 A 
HETATM   22  C   UNL     1      42.233 -14.431   5.343  1.00  0.00     0.009 A 
HETATM   23  C   UNL     1      42.870 -13.815   6.421  1.00  0.00     0.001 A 
HETATM   24  C   UNL     1      43.123 -14.535   7.588  1.00  0.00     0.000 A 
HETATM   25  C   UNL     1      42.737 -15.871   7.678  1.00  0.00     0.001 A 
HETATM   26  C   UNL     1      42.099 -16.488   6.600  1.00  0.00     0.009 A 
ENDBRANCH  20  21
ENDBRANCH   1  20
BRANCH   1  27
HETATM   27  C   UNL     1      42.888 -16.365   2.441  1.00  0.00     0.164 C 
BRANCH  27  28
HETATM   28  C   UNL     1      43.210 -17.799   2.789  1.00  0.00    -0.040 A 
HETATM   29  C   UNL     1      42.780 -18.863   1.983  1.00  0.00     0.009 A 
HETATM   30  C   UNL     1      43.126 -20.178   2.299  1.00  0.00     0.001 A 
HETATM   31  C   UNL     1      43.914 -20.444   3.418  1.00  0.00     0.000 A 
HETATM   32  C   UNL     1      44.361 -19.396   4.218  1.00  0.00     0.001 A 
HETATM   33  C   UNL     1      44.018 -18.080   3.903  1.00  0.00     0.009 A 
ENDBRANCH  27  28
ENDBRANCH   1  27
TORSDOF 7
ENDMDL
MODEL 4
REMARK VINA RESULT:      -8.7      2.441      6.286
REMARK  7 active torsions:
REMARK  status: ('A' for Active; 'I' for Inactive)
REMARK    1  A    between atoms: C_4  and  C_5 
REMARK    2  A    between atoms: C_5  and  N_6 
REMARK       I    between atoms: N_6  and  C_7 
REMARK    3  A    between atoms: N_6  and  C_22 
REMARK    4  A    between atoms: C_7  and  C_8 
REMARK    5  A    between atoms: C_13  and  C_14 
REMARK    6  A    between atoms: C_15  and  O_16 
REMARK    7  A    between atoms: C_22  and  C_23 
ROOT
HETATM    1  N   UNL     1      42.143 -14.627   3.726  1.00  0.00    -0.343 N 
HETATM    2  C   UNL     1      41.038 -14.355   2.915  1.00  0.00     0.235 C 
HETATM    3  O   UNL     1      39.941 -14.095   3.416  1.00  0.00    -0.272 OA
ENDROOT
BRANCH   2   4
HETATM    4  C   UNL     1      41.214 -14.361   1.412  1.00  0.00     0.195 C 
HETATM    5  C   UNL     1      40.168 -15.087   0.624  1.00  0.00     0.247 C 
HETATM    6  O   UNL     1      39.571 -16.106   0.925  1.00  0.00    -0.271 OA
HETATM    7  N   UNL     1      40.094 -14.457  -0.607  1.00  0.00    -0.290 N 
HETATM    8  N   UNL     1      40.876 -13.299  -0.694  1.00  0.00    -0.228 NA
HETATM    9  H   UNL     1      39.471 -14.788  -1.337  1.00  0.00     0.183 HD
HETATM   10  C   UNL     1      41.242 -12.983   0.718  1.00  0.00     0.134 C 
HETATM   11  H   UNL     1      40.308 -12.533  -1.071  1.00  0.00     0.147 HD
BRANCH  10  12
HETATM   12  C   UNL     1      40.383 -11.821   1.204  1.00  0.00    -0.004 A 
HETATM   13  C   UNL     1      40.942 -10.667   1.785  1.00  0.00     0.073 A 
HETATM   14  C   UNL     1      40.146  -9.583   2.167  1.00  0.00     0.037 A 
HETATM   15  C   UNL     1      38.772  -9.610   1.959  1.00  0.00     0.003 A 
HETATM   16  C   UNL     1      38.195 -10.722   1.361  1.00  0.00     0.001 A 
HETATM   17  C   UNL     1      38.991 -11.807   0.979  1.00  0.00     0.012 A 
BRANCH  13  18
HETATM   18  O   UNL     1      42.280 -10.481   1.999  1.00  0.00    -0.360 OA
HETATM   19  H   UNL     1      42.750 -10.300   1.171  1.00  0.00     0.217 HD
ENDBRANCH  13  18
ENDBRANCH  10  12
ENDBRANCH   2   4
BRANCH   1  20
HETATM   20  C   UNL     1      41.941 -14.625   5.179  1.00  0.00     0.164 C 
BRANCH  20  21
HETATM   21  C   UNL     1      42.498 -13.385   5.846  1.00  0.00    -0.040 A 
HETATM   22  C   UNL     1      41.808 -12.165   5.772  1.00  0.00     0.009 A 
HETATM   23  C   UNL     1      42.329 -11.018   6.374  1.00  0.00     0.001 A 
HETATM   24  C   UNL     1      43.541 -11.078   7.060  1.00  0.00     0.000 A 
HETATM   25  C   UNL     1      44.231 -12.285   7.149  1.00  0.00     0.001 A 
HETATM   26  C   UNL     1      43.711 -13.433   6.548  1.00  0.00     0.009 A 
ENDBRANCH  20  21
ENDBRANCH   1  20
BRANCH   1  27
HETATM   27  C   UNL     1      43.408 -15.195   3.251  1.00  0.00     0.164 C 
BRANCH  27  28
HETATM   28  C   UNL     1      43.463 -16.703   3.288  1.00  0.00    -0.040 A 
HETATM   29  C   UNL     1      43.009 -17.480   2.212  1.00  0.00     0.009 A 
HETATM   30  C   UNL     1      43.110 -18.872   2.249  1.00  0.00     0.001 A 
HETATM   31  C   UNL     1      43.673 -19.503   3.356  1.00  0.00     0.000 A 
HETATM   32  C   UNL     1      44.141 -18.744   4.425  1.00  0.00     0.001 A 
HETATM   33  C   UNL     1      44.043 -17.352   4.390  1.00  0.00     0.009 A 
ENDBRANCH  27  28
ENDBRANCH   1  27
TORSDOF 7
ENDMDL
MODEL 5
REMARK VINA RESULT:      -8.7      2.239      5.648
REMARK  7 active torsions:
REMARK  status: ('A' for Active; 'I' for Inactive)
REMARK    1  A    between atoms: C_4  and  C_5 
REMARK    2  A    between atoms: C_5  and  N_6 
REMARK       I    between atoms: N_6  and  C_7 
REMARK    3  A    between atoms: N_6  and  C_22 
REMARK    4  A    between atoms: C_7  and  C_8 
REMARK    5  A    between atoms: C_13  and  C_14 
REMARK    6  A    between atoms: C_15  and  O_16 
REMARK    7  A    between atoms: C_22  and  C_23 
ROOT
HETATM    1  N   UNL     1      41.734 -14.493   2.612  1.00  0.00    -0.343 N 
HETATM    2  C   UNL     1      42.134 -13.390   3.369  1.00  0.00     0.235 C 
HETATM    3  O   UNL     1      42.771 -12.470   2.849  1.00  0.00    -0.272 OA
ENDROOT
BRANCH   2   4
HETATM    4  C   UNL     1      41.753 -13.328   4.832  1.00  0.00     0.195 C 
HETATM    5  C   UNL     1      42.601 -12.454   5.703  1.00  0.00     0.247 C 
HETATM    6  O   UNL     1      43.802 -12.258   5.630  1.00  0.00    -0.271 OA
HETATM    7  N   UNL     1      41.783 -12.001   6.723  1.00  0.00    -0.290 N 
HETATM    8  N   UNL     1      40.438 -12.360   6.568  1.00  0.00    -0.228 NA
HETATM    9  H   UNL     1      42.138 -11.409   7.468  1.00  0.00     0.183 HD
HETATM   10  C   UNL     1      40.331 -12.819   5.151  1.00  0.00     0.134 C 
HETATM   11  H   UNL     1      39.848 -11.530   6.695  1.00  0.00     0.147 HD
BRANCH  10  12
HETATM   12  C   UNL     1      39.666 -11.724   4.325  1.00  0.00    -0.004 A 
HETATM   13  C   UNL     1      38.881 -12.013   3.192  1.00  0.00     0.073 A 
HETATM   14  C   UNL     1      38.225 -11.003   2.482  1.00  0.00     0.037 A 
HETATM   15  C   UNL     1      38.314  -9.679   2.896  1.00  0.00     0.003 A 
HETATM   16  C   UNL     1      39.056  -9.367   4.027  1.00  0.00     0.001 A 
HETATM   17  C   UNL     1      39.713 -10.377   4.738  1.00  0.00     0.012 A 
BRANCH  13  18
HETATM   18  O   UNL     1      38.662 -13.272   2.705  1.00  0.00    -0.360 OA
HETATM   19  H   UNL     1      38.376 -13.249   1.780  1.00  0.00     0.217 HD
ENDBRANCH  13  18
ENDBRANCH  10  12
ENDBRANCH   2   4
BRANCH   1  20
HETATM   20  C   UNL     1      42.125 -14.532   1.199  1.00  0.00     0.164 C 
BRANCH  20  21
HETATM   21  C   UNL     1      41.061 -13.971   0.280  1.00  0.00    -0.040 A 
HETATM   22  C   UNL     1      40.964 -12.587   0.062  1.00  0.00     0.009 A 
HETATM   23  C   UNL     1      39.974 -12.068  -0.773  1.00  0.00     0.001 A 
HETATM   24  C   UNL     1      39.072 -12.924  -1.404  1.00  0.00     0.000 A 
HETATM   25  C   UNL     1      39.163 -14.300  -1.203  1.00  0.00     0.001 A 
HETATM   26  C   UNL     1      40.155 -14.821  -0.369  1.00  0.00     0.009 A 
ENDBRANCH  20  21
ENDBRANCH   1  20
BRANCH   1  27
HETATM   27  C   UNL     1      41.210 -15.743   3.170  1.00  0.00     0.164 C 
BRANCH  27  28
HETATM   28  C   UNL     1      42.252 -16.816   3.373  1.00  0.00    -0.040 A 
HETATM   29  C   UNL     1      42.477 -17.811   2.410  1.00  0.00     0.009 A 
HETATM   30  C   UNL     1      43.475 -18.768   2.598  1.00  0.00     0.001 A 
HETATM   31  C   UNL     1      44.267 -18.738   3.745  1.00  0.00     0.000 A 
HETATM   32  C   UNL     1      44.064 -17.747   4.702  1.00  0.00     0.001 A 
HETATM   33  C   UNL     1      43.068 -16.788   4.515  1.00  0.00     0.009 A 
ENDBRANCH  27  28
ENDBRANCH   1  27
TORSDOF 7
ENDMDL
MODEL 6
REMARK VINA RESULT:      -8.5      1.918      6.096
REMARK  7 active torsions:
REMARK  status: ('A' for Active; 'I' for Inactive)
REMARK    1  A    between atoms: C_4  and  C_5 
REMARK    2  A    between atoms: C_5  and  N_6 
REMARK       I    between atoms: N_6  and  C_7 
REMARK    3  A    between atoms: N_6  and  C_22 
REMARK    4  A    between atoms: C_7  and  C_8 
REMARK    5  A    between atoms: C_13  and  C_14 
REMARK    6  A    between atoms: C_15  and  O_16 
REMARK    7  A    between atoms: C_22  and  C_23 
ROOT
HETATM    1  N   UNL     1      41.294 -15.056   3.476  1.00  0.00    -0.343 N 
HETATM    2  C   UNL     1      41.518 -15.884   4.578  1.00  0.00     0.235 C 
HETATM    3  O   UNL     1      40.665 -16.703   4.930  1.00  0.00    -0.272 OA
ENDROOT
BRANCH   2   4
HETATM    4  C   UNL     1      42.833 -15.780   5.319  1.00  0.00     0.195 C 
HETATM    5  C   UNL     1      42.821 -16.198   6.756  1.00  0.00     0.247 C 
HETATM    6  O   UNL     1      41.929 -16.053   7.575  1.00  0.00    -0.271 OA
HETATM    7  N   UNL     1      44.091 -16.668   7.041  1.00  0.00    -0.290 N 
HETATM    8  N   UNL     1      44.928 -16.742   5.921  1.00  0.00    -0.228 NA
HETATM    9  H   UNL     1      44.346 -16.984   7.972  1.00  0.00     0.183 HD
HETATM   10  C   UNL     1      44.009 -16.605   4.753  1.00  0.00     0.134 C 
HETATM   11  H   UNL     1      45.371 -17.667   5.889  1.00  0.00     0.147 HD
BRANCH  10  12
HETATM   12  C   UNL     1      43.797 -17.977   4.124  1.00  0.00    -0.004 A 
HETATM   13  C   UNL     1      43.458 -18.135   2.767  1.00  0.00     0.073 A 
HETATM   14  C   UNL     1      43.331 -19.402   2.189  1.00  0.00     0.037 A 
HETATM   15  C   UNL     1      43.560 -20.547   2.944  1.00  0.00     0.003 A 
HETATM   16  C   UNL     1      43.924 -20.422   4.277  1.00  0.00     0.001 A 
HETATM   17  C   UNL     1      44.052 -19.155   4.856  1.00  0.00     0.012 A 
BRANCH  13  18
HETATM   18  O   UNL     1      43.258 -17.100   1.895  1.00  0.00    -0.360 OA
HETATM   19  H   UNL     1      43.059 -16.276   2.364  1.00  0.00     0.217 HD
ENDBRANCH  13  18
ENDBRANCH  10  12
ENDBRANCH   2   4
BRANCH   1  20
HETATM   20  C   UNL     1      40.007 -15.172   2.783  1.00  0.00     0.164 C 
BRANCH  20  21
HETATM   21  C   UNL     1      39.938 -14.328   1.528  1.00  0.00    -0.040 A 
HETATM   22  C   UNL     1      39.510 -12.992   1.589  1.00  0.00     0.009 A 
HETATM   23  C   UNL     1      39.432 -12.218   0.430  1.00  0.00     0.001 A 
HETATM   24  C   UNL     1      39.783 -12.768  -0.802  1.00  0.00     0.000 A 
HETATM   25  C   UNL     1      40.217 -14.089  -0.875  1.00  0.00     0.001 A 
HETATM   26  C   UNL     1      40.298 -14.864   0.284  1.00  0.00     0.009 A 
ENDBRANCH  20  21
ENDBRANCH   1  20
BRANCH   1  27
HETATM   27  C   UNL     1      42.110 -13.888   3.130  1.00  0.00     0.164 C 
BRANCH  27  28
HETATM   28  C   UNL     1      42.184 -12.841   4.215  1.00  0.00    -0.040 A 
HETATM   29  C   UNL     1      43.396 -12.221   4.553  1.00  0.00     0.009 A 
HETATM   30  C   UNL     1      43.435 -11.223   5.529  1.00  0.00     0.001 A 
HETATM   31  C   UNL     1      42.264 -10.827   6.171  1.00  0.00     0.000 A 
HETATM   32  C   UNL     1      41.051 -11.423   5.835  1.00  0.00     0.001 A 
HETATM   33  C   UNL     1      41.010 -12.419   4.858  1.00  0.00     0.009 A 
ENDBRANCH  27  28
ENDBRANCH   1  27
TORSDOF 7
ENDMDL
MODEL 7
REMARK VINA RESULT:      -8.4      2.473      3.544
REMARK  7 active torsions:
REMARK  status: ('A' for Active; 'I' for Inactive)
REMARK    1  A    between atoms: C_4  and  C_5 
REMARK    2  A    between atoms: C_5  and  N_6 
REMARK       I    between atoms: N_6  and  C_7 
REMARK    3  A    between atoms: N_6  and  C_22 
REMARK    4  A    between atoms: C_7  and  C_8 
REMARK    5  A    between atoms: C_13  and  C_14 
REMARK    6  A    between atoms: C_15  and  O_16 
REMARK    7  A    between atoms: C_22  and  C_23 
ROOT
HETATM    1  N   UNL     1      40.431 -13.749   2.094  1.00  0.00    -0.343 N 
HETATM    2  C   UNL     1      40.081 -12.771   3.029  1.00  0.00     0.235 C 
HETATM    3  O   UNL     1      39.487 -13.080   4.066  1.00  0.00    -0.272 OA
ENDROOT
BRANCH   2   4
HETATM    4  C   UNL     1      40.464 -11.332   2.763  1.00  0.00     0.195 C 
HETATM    5  C   UNL     1      39.608 -10.287   3.410  1.00  0.00     0.247 C 
HETATM    6  O   UNL     1      38.406 -10.315   3.606  1.00  0.00    -0.271 OA
HETATM    7  N   UNL     1      40.424  -9.190   3.629  1.00  0.00    -0.290 N 
HETATM    8  N   UNL     1      41.772  -9.422   3.327  1.00  0.00    -0.228 NA
HETATM    9  H   UNL     1      40.064  -8.332   4.034  1.00  0.00     0.183 HD
HETATM   10  C   UNL     1      41.881 -10.905   3.200  1.00  0.00     0.134 C 
HETATM   11  H   UNL     1      42.354  -9.110   4.112  1.00  0.00     0.147 HD
BRANCH  10  12
HETATM   12  C   UNL     1      42.535 -11.463   4.460  1.00  0.00    -0.004 A 
HETATM   13  C   UNL     1      42.582 -10.735   5.664  1.00  0.00     0.073 A 
HETATM   14  C   UNL     1      43.127 -11.285   6.828  1.00  0.00     0.037 A 
HETATM   15  C   UNL     1      43.620 -12.584   6.829  1.00  0.00     0.003 A 
HETATM   16  C   UNL     1      43.561 -13.337   5.665  1.00  0.00     0.001 A 
HETATM   17  C   UNL     1      43.015 -12.787   4.499  1.00  0.00     0.012 A 
BRANCH  13  18
HETATM   18  O   UNL     1      42.086  -9.470   5.822  1.00  0.00    -0.360 OA
HETATM   19  H   UNL     1      42.764  -8.800   5.653  1.00  0.00     0.217 HD
ENDBRANCH  13  18
ENDBRANCH  10  12
ENDBRANCH   2   4
BRANCH   1  20
HETATM   20  C   UNL     1      40.039 -15.134   2.373  1.00  0.00     0.164 C 
BRANCH  20  21
HETATM   21  C   UNL     1      41.164 -15.953   2.970  1.00  0.00    -0.040 A 
HETATM   22  C   UNL     1      41.291 -16.083   4.362  1.00  0.00     0.009 A 
HETATM   23  C   UNL     1      42.337 -16.825   4.913  1.00  0.00     0.001 A 
HETATM   24  C   UNL     1      43.265 -17.450   4.081  1.00  0.00     0.000 A 
HETATM   25  C   UNL     1      43.144 -17.337   2.698  1.00  0.00     0.001 A 
HETATM   26  C   UNL     1      42.097 -16.596   2.145  1.00  0.00     0.009 A 
ENDBRANCH  20  21
ENDBRANCH   1  20
BRANCH   1  27
HETATM   27  C   UNL     1      40.898 -13.472   0.733  1.00  0.00     0.164 C 
BRANCH  27  28
HETATM   28  C   UNL     1      39.805 -13.472  -0.309  1.00  0.00    -0.040 A 
HETATM   29  C   UNL     1      38.907 -12.401  -0.428  1.00  0.00     0.009 A 
HETATM   30  C   UNL     1      37.931 -12.401  -1.427  1.00  0.00     0.001 A 
HETATM   31  C   UNL     1      37.847 -13.465  -2.323  1.00  0.00     0.000 A 
HETATM   32  C   UNL     1      38.741 -14.527  -2.225  1.00  0.00     0.001 A 
HETATM   33  C   UNL     1      39.719 -14.529  -1.229  1.00  0.00     0.009 A 
ENDBRANCH  27  28
ENDBRANCH   1  27
TORSDOF 7
ENDMDL
MODEL 8
REMARK VINA RESULT:      -8.4      2.854      6.566
REMARK  7 active torsions:
REMARK  status: ('A' for Active; 'I' for Inactive)
REMARK    1  A    between atoms: C_4  and  C_5 
REMARK    2  A    between atoms: C_5  and  N_6 
REMARK       I    between atoms: N_6  and  C_7 
REMARK    3  A    between atoms: N_6  and  C_22 
REMARK    4  A    between atoms: C_7  and  C_8 
REMARK    5  A    between atoms: C_13  and  C_14 
REMARK    6  A    between atoms: C_15  and  O_16 
REMARK    7  A    between atoms: C_22  and  C_23 
ROOT
HETATM    1  N   UNL     1      41.751 -14.007   3.466  1.00  0.00    -0.343 N 
HETATM    2  C   UNL     1      40.718 -13.881   2.533  1.00  0.00     0.235 C 
HETATM    3  O   UNL     1      39.553 -13.721   2.906  1.00  0.00    -0.272 OA
ENDROOT
BRANCH   2   4
HETATM    4  C   UNL     1      41.054 -13.918   1.058  1.00  0.00     0.195 C 
HETATM    5  C   UNL     1      40.205 -14.807   0.206  1.00  0.00     0.247 C 
HETATM    6  O   UNL     1      39.718 -15.887   0.496  1.00  0.00    -0.271 OA
HETATM    7  N   UNL     1      40.182 -14.239  -1.056  1.00  0.00    -0.290 N 
HETATM    8  N   UNL     1      40.810 -12.990  -1.122  1.00  0.00    -0.228 NA
HETATM    9  H   UNL     1      39.691 -14.678  -1.829  1.00  0.00     0.183 HD
HETATM   10  C   UNL     1      40.976 -12.574   0.302  1.00  0.00     0.134 C 
HETATM   11  H   UNL     1      40.190 -12.322  -1.593  1.00  0.00     0.147 HD
BRANCH  10  12
HETATM   12  C   UNL     1      39.924 -11.524   0.638  1.00  0.00    -0.004 A 
HETATM   13  C   UNL     1      38.581 -11.655   0.237  1.00  0.00     0.073 A 
HETATM   14  C   UNL     1      37.614 -10.716   0.607  1.00  0.00     0.037 A 
HETATM   15  C   UNL     1      37.955  -9.631   1.408  1.00  0.00     0.003 A 
HETATM   16  C   UNL     1      39.265  -9.491   1.843  1.00  0.00     0.001 A 
HETATM   17  C   UNL     1      40.234 -10.431   1.473  1.00  0.00     0.012 A 
BRANCH  13  18
HETATM   18  O   UNL     1      38.094 -12.696  -0.504  1.00  0.00    -0.360 OA
HETATM   19  H   UNL     1      38.463 -13.543  -0.211  1.00  0.00     0.217 HD
ENDBRANCH  13  18
ENDBRANCH  10  12
ENDBRANCH   2   4
BRANCH   1  20
HETATM   20  C   UNL     1      41.394 -13.978   4.889  1.00  0.00     0.164 C 
BRANCH  20  21
HETATM   21  C   UNL     1      42.192 -12.957   5.672  1.00  0.00    -0.040 A 
HETATM   22  C   UNL     1      43.221 -13.366   6.535  1.00  0.00     0.009 A 
HETATM   23  C   UNL     1      43.947 -12.426   7.270  1.00  0.00     0.001 A 
HETATM   24  C   UNL     1      43.655 -11.068   7.148  1.00  0.00     0.000 A 
HETATM   25  C   UNL     1      42.643 -10.649   6.288  1.00  0.00     0.001 A 
HETATM   26  C   UNL     1      41.917 -11.588   5.551  1.00  0.00     0.009 A 
ENDBRANCH  20  21
ENDBRANCH   1  20
BRANCH   1  27
HETATM   27  C   UNL     1      43.110 -14.453   3.151  1.00  0.00     0.164 C 
BRANCH  27  28
HETATM   28  C   UNL     1      43.318 -15.944   3.272  1.00  0.00    -0.040 A 
HETATM   29  C   UNL     1      43.710 -16.534   4.482  1.00  0.00     0.009 A 
HETATM   30  C   UNL     1      43.854 -17.918   4.584  1.00  0.00     0.001 A 
HETATM   31  C   UNL     1      43.599 -18.731   3.480  1.00  0.00     0.000 A 
HETATM   32  C   UNL     1      43.195 -18.160   2.277  1.00  0.00     0.001 A 
HETATM   33  C   UNL     1      43.048 -16.776   2.173  1.00  0.00     0.009 A 
ENDBRANCH  27  28
ENDBRANCH   1  27
TORSDOF 7
ENDMDL
MODEL 9
REMARK VINA RESULT:      -8.3     14.579     16.468
REMARK  7 active torsions:
REMARK  status: ('A' for Active; 'I' for Inactive)
REMARK    1  A    between atoms: C_4  and  C_5 
REMARK    2  A    between atoms: C_5  and  N_6 
REMARK       I    between atoms: N_6  and  C_7 
REMARK    3  A    between atoms: N_6  and  C_22 
REMARK    4  A    between atoms: C_7  and  C_8 
REMARK    5  A    between atoms: C_13  and  C_14 
REMARK    6  A    between atoms: C_15  and  O_16 
REMARK    7  A    between atoms: C_22  and  C_23 
ROOT
HETATM    1  N   UNL     1      45.332 -31.887  -0.624  1.00  0.00    -0.343 N 
HETATM    2  C   UNL     1      45.354 -31.990   0.769  1.00  0.00     0.235 C 
HETATM    3  O   UNL     1      46.246 -32.627   1.336  1.00  0.00    -0.272 OA
ENDROOT
BRANCH   2   4
HETATM    4  C   UNL     1      44.281 -31.289   1.573  1.00  0.00     0.195 C 
HETATM    5  C   UNL     1      43.740 -32.036   2.752  1.00  0.00     0.247 C 
HETATM    6  O   UNL     1      43.552 -33.235   2.861  1.00  0.00    -0.271 OA
HETATM    7  N   UNL     1      43.347 -31.083   3.676  1.00  0.00    -0.290 N 
HETATM    8  N   UNL     1      43.686 -29.774   3.312  1.00  0.00    -0.228 NA
HETATM    9  H   UNL     1      42.915 -31.342   4.557  1.00  0.00     0.183 HD
HETATM   10  C   UNL     1      44.668 -29.932   2.199  1.00  0.00     0.134 C 
HETATM   11  H   UNL     1      44.149 -29.311   4.102  1.00  0.00     0.147 HD
BRANCH  10  12
HETATM   12  C   UNL     1      46.070 -29.666   2.734  1.00  0.00    -0.004 A 
HETATM   13  C   UNL     1      46.890 -28.647   2.213  1.00  0.00     0.073 A 
HETATM   14  C   UNL     1      48.148 -28.372   2.756  1.00  0.00     0.037 A 
HETATM   15  C   UNL     1      48.615 -29.091   3.851  1.00  0.00     0.003 A 
HETATM   16  C   UNL     1      47.817 -30.083   4.405  1.00  0.00     0.001 A 
HETATM   17  C   UNL     1      46.558 -30.358   3.862  1.00  0.00     0.012 A 
BRANCH  13  18
HETATM   18  O   UNL     1      46.537 -27.827   1.176  1.00  0.00    -0.360 OA
HETATM   19  H   UNL     1      45.870 -28.240   0.608  1.00  0.00     0.217 HD
ENDBRANCH  13  18
ENDBRANCH  10  12
ENDBRANCH   2   4
BRANCH   1  20
HETATM   20  C   UNL     1      46.378 -32.585  -1.379  1.00  0.00     0.164 C 
BRANCH  20  21
HETATM   21  C   UNL     1      47.627 -31.748  -1.562  1.00  0.00    -0.040 A 
HETATM   22  C   UNL     1      48.700 -32.227  -2.330  1.00  0.00     0.009 A 
HETATM   23  C   UNL     1      49.858 -31.463  -2.486  1.00  0.00     0.001 A 
HETATM   24  C   UNL     1      49.955 -30.210  -1.882  1.00  0.00     0.000 A 
HETATM   25  C   UNL     1      48.894 -29.719  -1.125  1.00  0.00     0.001 A 
HETATM   26  C   UNL     1      47.734 -30.483  -0.969  1.00  0.00     0.009 A 
ENDBRANCH  20  21
ENDBRANCH   1  20
BRANCH   1  27
HETATM   27  C   UNL     1      44.199 -31.386  -1.407  1.00  0.00     0.164 C 
BRANCH  27  28
HETATM   28  C   UNL     1      44.493 -30.129  -2.189  1.00  0.00    -0.040 A 
HETATM   29  C   UNL     1      44.729 -28.904  -1.548  1.00  0.00     0.009 A 
HETATM   30  C   UNL     1      45.042 -27.763  -2.289  1.00  0.00     0.001 A 
HETATM   31  C   UNL     1      45.133 -27.834  -3.678  1.00  0.00     0.000 A 
HETATM   32  C   UNL     1      44.916 -29.047  -4.327  1.00  0.00     0.001 A 
HETATM   33  C   UNL     1      44.604 -30.189  -3.588  1.00  0.00     0.009 A 
ENDBRANCH  27  28
ENDBRANCH   1  27
TORSDOF 7
ENDMDL
MODEL 10
REMARK VINA RESULT:      -8.2     15.182     16.948
REMARK  7 active torsions:
REMARK  status: ('A' for Active; 'I' for Inactive)
REMARK    1  A    between atoms: C_4  and  C_5 
REMARK    2  A    between atoms: C_5  and  N_6 
REMARK       I    between atoms: N_6  and  C_7 
REMARK    3  A    between atoms: N_6  and  C_22 
REMARK    4  A    between atoms: C_7  and  C_8 
REMARK    5  A    between atoms: C_13  and  C_14 
REMARK    6  A    between atoms: C_15  and  O_16 
REMARK    7  A    between atoms: C_22  and  C_23 
ROOT
HETATM    1  N   UNL     1      45.145 -31.074   0.024  1.00  0.00    -0.343 N 
HETATM    2  C   UNL     1      46.153 -30.958   0.984  1.00  0.00     0.235 C 
HETATM    3  O   UNL     1      46.770 -31.955   1.368  1.00  0.00    -0.272 OA
ENDROOT
BRANCH   2   4
HETATM    4  C   UNL     1      46.492 -29.588   1.529  1.00  0.00     0.195 C 
HETATM    5  C   UNL     1      47.028 -29.543   2.926  1.00  0.00     0.247 C 
HETATM    6  O   UNL     1      46.721 -30.246   3.873  1.00  0.00    -0.271 OA
HETATM    7  N   UNL     1      47.860 -28.438   2.994  1.00  0.00    -0.290 N 
HETATM    8  N   UNL     1      48.055 -27.804   1.761  1.00  0.00    -0.228 NA
HETATM    9  H   UNL     1      48.324 -28.174   3.857  1.00  0.00     0.183 HD
HETATM   10  C   UNL     1      47.553 -28.781   0.750  1.00  0.00     0.134 C 
HETATM   11  H   UNL     1      49.059 -27.656   1.610  1.00  0.00     0.147 HD
BRANCH  10  12
HETATM   12  C   UNL     1      48.744 -29.458   0.081  1.00  0.00    -0.004 A 
HETATM   13  C   UNL     1      49.759 -30.092   0.822  1.00  0.00     0.073 A 
HETATM   14  C   UNL     1      50.811 -30.764   0.193  1.00  0.00     0.037 A 
HETATM   15  C   UNL     1      50.867 -30.843  -1.194  1.00  0.00     0.003 A 
HETATM   16  C   UNL     1      49.865 -30.252  -1.951  1.00  0.00     0.001 A 
HETATM   17  C   UNL     1      48.812 -29.580  -1.322  1.00  0.00     0.012 A 
BRANCH  13  18
HETATM   18  O   UNL     1      49.801 -30.142   2.188  1.00  0.00    -0.360 OA
HETATM   19  H   UNL     1      50.491 -29.561   2.543  1.00  0.00     0.217 HD
ENDBRANCH  13  18
ENDBRANCH  10  12
ENDBRANCH   2   4
BRANCH   1  20
HETATM   20  C   UNL     1      44.830 -32.415  -0.480  1.00  0.00     0.164 C 
BRANCH  20  21
HETATM   21  C   UNL     1      45.222 -32.604  -1.930  1.00  0.00    -0.040 A 
HETATM   22  C   UNL     1      46.497 -32.227  -2.379  1.00  0.00     0.009 A 
HETATM   23  C   UNL     1      46.853 -32.387  -3.720  1.00  0.00     0.001 A 
HETATM   24  C   UNL     1      45.942 -32.929  -4.625  1.00  0.00     0.000 A 
HETATM   25  C   UNL     1      44.676 -33.316  -4.190  1.00  0.00     0.001 A 
HETATM   26  C   UNL     1      44.319 -33.158  -2.848  1.00  0.00     0.009 A 
ENDBRANCH  20  21
ENDBRANCH   1  20
BRANCH   1  27
HETATM   27  C   UNL     1      44.185 -30.018  -0.311  1.00  0.00     0.164 C 
BRANCH  27  28
HETATM   28  C   UNL     1      44.439 -29.348  -1.640  1.00  0.00    -0.040 A 
HETATM   29  C   UNL     1      45.432 -28.368  -1.789  1.00  0.00     0.009 A 
HETATM   30  C   UNL     1      45.679 -27.792  -3.036  1.00  0.00     0.001 A 
HETATM   31  C   UNL     1      44.945 -28.194  -4.151  1.00  0.00     0.000 A 
HETATM   32  C   UNL     1      43.967 -29.176  -4.020  1.00  0.00     0.001 A 
HETATM   33  C   UNL     1      43.719 -29.755  -2.774  1.00  0.00     0.009 A 
ENDBRANCH  27  28
ENDBRANCH   1  27
TORSDOF 7
ENDMDL
