MODEL 1
REMARK VINA RESULT:      -8.4      0.000      0.000
REMARK  9 active torsions:
REMARK  status: ('A' for Active; 'I' for Inactive)
REMARK    1  A    between atoms: C_2  and  N_3 
REMARK    2  A    between atoms: C_2  and  C_23 
REMARK       I    between atoms: N_3  and  C_4 
REMARK       I    between atoms: C_4  and  N_5 
REMARK    3  A    between atoms: N_5  and  C_6 
REMARK    4  A    between atoms: C_6  and  C_7 
REMARK    5  A    between atoms: C_7  and  N_8 
REMARK    6  A    between atoms: C_7  and  C_14 
REMARK    7  A    between atoms: C_16  and  O_17 
REMARK    8  A    between atoms: C_23  and  C_24 
REMARK    9  A    between atoms: C_27  and  O_28 
ROOT
HETATM    1  N   UNL     1      41.899 -14.433   2.080  1.00  0.00    -0.339 N 
HETATM    2  C   UNL     1      40.970 -13.988   1.183  1.00  0.00     0.316 C 
HETATM    3  N   UNL     1      41.138 -12.654   0.902  1.00  0.00    -0.341 N 
HETATM    4  O   UNL     1      40.143 -14.681   0.610  1.00  0.00    -0.248 OA
HETATM    5  H   UNL     1      42.332 -13.726   2.655  1.00  0.00     0.164 HD
HETATM    6  H   UNL     1      41.566 -12.103   1.635  1.00  0.00     0.164 HD
ENDROOT
BRANCH   3   7
HETATM    7  C   UNL     1      40.237 -11.967  -0.013  1.00  0.00     0.162 C 
BRANCH   7   8
HETATM    8  C   UNL     1      40.697 -11.973  -1.503  1.00  0.00     0.238 C 
BRANCH   8   9
HETATM    9  N   UNL     1      39.710 -12.567  -2.497  1.00  0.00    -0.061 N 
HETATM   10  H   UNL     1      39.978 -12.138  -3.392  1.00  0.00     0.280 HD
HETATM   11  C   UNL     1      38.240 -12.236  -2.353  1.00  0.00     0.236 C 
HETATM   12  C   UNL     1      37.509 -13.545  -2.613  1.00  0.00     0.029 C 
HETATM   13  C   UNL     1      38.496 -14.391  -3.391  1.00  0.00     0.029 C 
HETATM   14  C   UNL     1      39.820 -14.050  -2.746  1.00  0.00     0.236 C 
ENDBRANCH   8   9
BRANCH   8  15
HETATM   15  C   UNL     1      41.170 -10.609  -1.987  1.00  0.00    -0.023 A 
HETATM   16  C   UNL     1      42.006  -9.782  -1.210  1.00  0.00     0.046 A 
HETATM   17  C   UNL     1      42.407  -8.528  -1.680  1.00  0.00     0.068 A 
HETATM   18  C   UNL     1      41.951  -8.082  -2.921  1.00  0.00     0.037 A 
HETATM   19  C   UNL     1      41.114  -8.878  -3.696  1.00  0.00     0.003 A 
HETATM   20  C   UNL     1      40.724 -10.134  -3.234  1.00  0.00     0.009 A 
BRANCH  17  21
HETATM   21  O   UNL     1      43.220  -7.649  -1.023  1.00  0.00    -0.356 OA
HETATM   22  C   UNL     1      43.607  -6.467  -1.713  1.00  0.00     0.210 C 
ENDBRANCH  17  21
ENDBRANCH   8  15
ENDBRANCH   7   8
ENDBRANCH   3   7
BRANCH   1  23
HETATM   23  C   UNL     1      41.844 -15.749   2.730  1.00  0.00     0.086 C 
HETATM   24  C   UNL     1      40.697 -15.887   3.731  1.00  0.00     0.032 C 
BRANCH  23  25
HETATM   25  C   UNL     1      43.197 -16.136   3.368  1.00  0.00     0.063 C 
BRANCH  25  26
HETATM   26  C   UNL     1      43.421 -17.634   3.395  1.00  0.00    -0.056 A 
HETATM   27  C   UNL     1      43.972 -18.247   4.531  1.00  0.00     0.010 A 
HETATM   28  C   UNL     1      44.211 -19.625   4.550  1.00  0.00     0.037 A 
HETATM   29  C   UNL     1      43.902 -20.387   3.430  1.00  0.00     0.065 A 
HETATM   30  C   UNL     1      43.350 -19.800   2.299  1.00  0.00     0.037 A 
HETATM   31  C   UNL     1      43.100 -18.427   2.283  1.00  0.00     0.010 A 
BRANCH  29  32
HETATM   32  O   UNL     1      44.127 -21.730   3.399  1.00  0.00    -0.361 OA
HETATM   33  H   UNL     1      43.440 -22.178   3.921  1.00  0.00     0.217 HD
ENDBRANCH  29  32
ENDBRANCH  25  26
ENDBRANCH  23  25
ENDBRANCH   1  23
TORSDOF 9
ENDMDL
MODEL 2
REMARK VINA RESULT:      -8.3      5.478      8.220
REMARK  9 active torsions:
REMARK  status: ('A' for Active; 'I' for Inactive)
REMARK    1  A    between atoms: C_2  and  N_3 
REMARK    2  A    between atoms: C_2  and  C_23 
REMARK       I    between atoms: N_3  and  C_4 
REMARK       I    between atoms: C_4  and  N_5 
REMARK    3  A    between atoms: N_5  and  C_6 
REMARK    4  A    between atoms: C_6  and  C_7 
REMARK    5  A    between atoms: C_7  and  N_8 
REMARK    6  A    between atoms: C_7  and  C_14 
REMARK    7  A    between atoms: C_16  and  O_17 
REMARK    8  A    between atoms: C_23  and  C_24 
REMARK    9  A    between atoms: C_27  and  O_28 
ROOT
HETATM    1  N   UNL     1      44.128 -16.727   5.257  1.00  0.00    -0.339 N 
HETATM    2  C   UNL     1      43.450 -15.619   5.683  1.00  0.00     0.316 C 
HETATM    3  N   UNL     1      44.258 -14.781   6.411  1.00  0.00    -0.341 N 
HETATM    4  O   UNL     1      42.298 -15.333   5.390  1.00  0.00    -0.248 OA
HETATM    5  H   UNL     1      44.961 -16.961   5.777  1.00  0.00     0.164 HD
HETATM    6  H   UNL     1      45.029 -15.225   6.892  1.00  0.00     0.164 HD
ENDROOT
BRANCH   3   7
HETATM    7  C   UNL     1      43.729 -13.551   6.984  1.00  0.00     0.162 C 
BRANCH   7   8
HETATM    8  C   UNL     1      44.314 -12.243   6.367  1.00  0.00     0.238 C 
BRANCH   8   9
HETATM    9  N   UNL     1      43.452 -11.566   5.312  1.00  0.00    -0.061 N 
HETATM   10  H   UNL     1      43.539 -10.566   5.531  1.00  0.00     0.280 HD
HETATM   11  C   UNL     1      41.958 -11.818   5.319  1.00  0.00     0.236 C 
HETATM   12  C   UNL     1      41.576 -11.988   3.857  1.00  0.00     0.029 C 
HETATM   13  C   UNL     1      42.695 -11.319   3.083  1.00  0.00     0.029 C 
HETATM   14  C   UNL     1      43.925 -11.680   3.885  1.00  0.00     0.236 C 
ENDBRANCH   8   9
BRANCH   8  15
HETATM   15  C   UNL     1      44.748 -11.230   7.418  1.00  0.00    -0.023 A 
HETATM   16  C   UNL     1      44.016 -11.012   8.602  1.00  0.00     0.046 A 
HETATM   17  C   UNL     1      44.436 -10.062   9.537  1.00  0.00     0.068 A 
HETATM   18  C   UNL     1      45.577  -9.302   9.278  1.00  0.00     0.037 A 
HETATM   19  C   UNL     1      46.305  -9.493   8.107  1.00  0.00     0.003 A 
HETATM   20  C   UNL     1      45.895 -10.450   7.181  1.00  0.00     0.009 A 
BRANCH  17  21
HETATM   21  O   UNL     1      43.818  -9.774  10.719  1.00  0.00    -0.356 OA
HETATM   22  C   UNL     1      43.336  -8.449  10.906  1.00  0.00     0.210 C 
ENDBRANCH  17  21
ENDBRANCH   8  15
ENDBRANCH   7   8
ENDBRANCH   3   7
BRANCH   1  23
HETATM   23  C   UNL     1      43.484 -17.896   4.645  1.00  0.00     0.086 C 
HETATM   24  C   UNL     1      43.946 -19.227   5.236  1.00  0.00     0.032 C 
BRANCH  23  25
HETATM   25  C   UNL     1      43.616 -17.888   3.105  1.00  0.00     0.063 C 
BRANCH  25  26
HETATM   26  C   UNL     1      42.778 -16.805   2.454  1.00  0.00    -0.056 A 
HETATM   27  C   UNL     1      43.392 -15.669   1.905  1.00  0.00     0.010 A 
HETATM   28  C   UNL     1      42.622 -14.652   1.332  1.00  0.00     0.037 A 
HETATM   29  C   UNL     1      41.238 -14.772   1.313  1.00  0.00     0.065 A 
HETATM   30  C   UNL     1      40.612 -15.892   1.845  1.00  0.00     0.037 A 
HETATM   31  C   UNL     1      41.380 -16.913   2.406  1.00  0.00     0.010 A 
BRANCH  29  32
HETATM   32  O   UNL     1      40.446 -13.803   0.775  1.00  0.00    -0.361 OA
HETATM   33  H   UNL     1      40.154 -13.203   1.482  1.00  0.00     0.217 HD
ENDBRANCH  29  32
ENDBRANCH  25  26
ENDBRANCH  23  25
ENDBRANCH   1  23
TORSDOF 9
ENDMDL
MODEL 3
REMARK VINA RESULT:      -8.1      7.436     10.880
REMARK  9 active torsions:
REMARK  status: ('A' for Active; 'I' for Inactive)
REMARK    1  A    between atoms: C_2  and  N_3 
REMARK    2  A    between atoms: C_2  and  C_23 
REMARK       I    between atoms: N_3  and  C_4 
REMARK       I    between atoms: C_4  and  N_5 
REMARK    3  A    between atoms: N_5  and  C_6 
REMARK    4  A    between atoms: C_6  and  C_7 
REMARK    5  A    between atoms: C_7  and  N_8 
REMARK    6  A    between atoms: C_7  and  C_14 
REMARK    7  A    between atoms: C_16  and  O_17 
REMARK    8  A    between atoms: C_23  and  C_24 
REMARK    9  A    between atoms: C_27  and  O_28 
ROOT
HETATM    1  N   UNL     1      43.597 -10.996   8.656  1.00  0.00    -0.339 N 
HETATM    2  C   UNL     1      44.145 -11.759   7.663  1.00  0.00     0.316 C 
HETATM    3  N   UNL     1      43.432 -12.915   7.462  1.00  0.00    -0.341 N 
HETATM    4  O   UNL     1      45.091 -11.438   6.959  1.00  0.00    -0.248 OA
HETATM    5  H   UNL     1      43.005 -11.485   9.311  1.00  0.00     0.164 HD
HETATM    6  H   UNL     1      42.927 -13.263   8.267  1.00  0.00     0.164 HD
ENDROOT
BRANCH   3   7
HETATM    7  C   UNL     1      43.858 -13.888   6.466  1.00  0.00     0.162 C 
BRANCH   7   8
HETATM    8  C   UNL     1      42.767 -14.265   5.418  1.00  0.00     0.238 C 
BRANCH   8   9
HETATM    9  N   UNL     1      42.419 -13.184   4.406  1.00  0.00    -0.061 N 
HETATM   10  H   UNL     1      42.227 -13.709   3.544  1.00  0.00     0.280 HD
HETATM   11  C   UNL     1      43.490 -12.191   4.003  1.00  0.00     0.236 C 
HETATM   12  C   UNL     1      42.784 -10.844   3.947  1.00  0.00     0.029 C 
HETATM   13  C   UNL     1      41.315 -11.183   3.789  1.00  0.00     0.029 C 
HETATM   14  C   UNL     1      41.152 -12.407   4.662  1.00  0.00     0.236 C 
ENDBRANCH   8   9
BRANCH   8  15
HETATM   15  C   UNL     1      43.054 -15.579   4.703  1.00  0.00    -0.023 A 
HETATM   16  C   UNL     1      43.489 -16.731   5.389  1.00  0.00     0.046 A 
HETATM   17  C   UNL     1      43.759 -17.915   4.697  1.00  0.00     0.068 A 
HETATM   18  C   UNL     1      43.622 -17.944   3.309  1.00  0.00     0.037 A 
HETATM   19  C   UNL     1      43.208 -16.813   2.613  1.00  0.00     0.003 A 
HETATM   20  C   UNL     1      42.926 -15.636   3.303  1.00  0.00     0.009 A 
BRANCH  17  21
HETATM   21  O   UNL     1      44.172 -19.091   5.253  1.00  0.00    -0.356 OA
HETATM   22  C   UNL     1      44.112 -20.260   4.446  1.00  0.00     0.210 C 
ENDBRANCH  17  21
ENDBRANCH   8  15
ENDBRANCH   7   8
ENDBRANCH   3   7
BRANCH   1  23
HETATM   23  C   UNL     1      44.251  -9.818   9.238  1.00  0.00     0.086 C 
HETATM   24  C   UNL     1      45.200 -10.152  10.388  1.00  0.00     0.032 C 
BRANCH  23  25
HETATM   25  C   UNL     1      43.229  -8.733   9.648  1.00  0.00     0.063 C 
BRANCH  25  26
HETATM   26  C   UNL     1      42.846  -8.818  11.112  1.00  0.00    -0.056 A 
HETATM   27  C   UNL     1      41.965  -9.815  11.557  1.00  0.00     0.010 A 
HETATM   28  C   UNL     1      41.582  -9.878  12.900  1.00  0.00     0.037 A 
HETATM   29  C   UNL     1      42.079  -8.939  13.796  1.00  0.00     0.065 A 
HETATM   30  C   UNL     1      42.957  -7.948  13.377  1.00  0.00     0.037 A 
HETATM   31  C   UNL     1      43.349  -7.892  12.039  1.00  0.00     0.010 A 
BRANCH  29  32
HETATM   32  O   UNL     1      41.726  -8.955  15.112  1.00  0.00    -0.361 OA
HETATM   33  H   UNL     1      40.807  -9.258  15.190  1.00  0.00     0.217 HD
ENDBRANCH  29  32
ENDBRANCH  25  26
ENDBRANCH  23  25
ENDBRANCH   1  23
TORSDOF 9
ENDMDL
MODEL 4
REMARK VINA RESULT:      -8.1      1.670      2.405
REMARK  9 active torsions:
REMARK  status: ('A' for Active; 'I' for Inactive)
REMARK    1  A    between atoms: C_2  and  N_3 
REMARK    2  A    between atoms: C_2  and  C_23 
REMARK       I    between atoms: N_3  and  C_4 
REMARK       I    between atoms: C_4  and  N_5 
REMARK    3  A    between atoms: N_5  and  C_6 
REMARK    4  A    between atoms: C_6  and  C_7 
REMARK    5  A    between atoms: C_7  and  N_8 
REMARK    6  A    between atoms: C_7  and  C_14 
REMARK    7  A    between atoms: C_16  and  O_17 
REMARK    8  A    between atoms: C_23  and  C_24 
REMARK    9  A    between atoms: C_27  and  O_28 
ROOT
HETATM    1  N   UNL     1      40.371 -15.461   4.017  1.00  0.00    -0.339 N 
HETATM    2  C   UNL     1      40.344 -14.204   3.481  1.00  0.00     0.316 C 
HETATM    3  N   UNL     1      39.204 -13.993   2.746  1.00  0.00    -0.341 N 
HETATM    4  O   UNL     1      41.165 -13.323   3.690  1.00  0.00    -0.248 OA
HETATM    5  H   UNL     1      39.788 -16.147   3.561  1.00  0.00     0.164 HD
HETATM    6  H   UNL     1      38.787 -14.819   2.339  1.00  0.00     0.164 HD
ENDROOT
BRANCH   3   7
HETATM    7  C   UNL     1      38.984 -12.725   2.064  1.00  0.00     0.162 C 
BRANCH   7   8
HETATM    8  C   UNL     1      39.647 -12.621   0.656  1.00  0.00     0.238 C 
BRANCH   8   9
HETATM    9  N   UNL     1      38.873 -13.258  -0.488  1.00  0.00    -0.061 N 
HETATM   10  H   UNL     1      38.155 -13.821  -0.014  1.00  0.00     0.280 HD
HETATM   11  C   UNL     1      39.584 -14.247  -1.389  1.00  0.00     0.236 C 
HETATM   12  C   UNL     1      39.119 -13.910  -2.797  1.00  0.00     0.029 C 
HETATM   13  C   UNL     1      37.820 -13.154  -2.606  1.00  0.00     0.029 C 
HETATM   14  C   UNL     1      38.090 -12.320  -1.372  1.00  0.00     0.236 C 
ENDBRANCH   8   9
BRANCH   8  15
HETATM   15  C   UNL     1      40.048 -11.198   0.289  1.00  0.00    -0.023 A 
HETATM   16  C   UNL     1      41.300 -10.893  -0.283  1.00  0.00     0.046 A 
HETATM   17  C   UNL     1      41.641  -9.573  -0.593  1.00  0.00     0.068 A 
HETATM   18  C   UNL     1      40.741  -8.547  -0.304  1.00  0.00     0.037 A 
HETATM   19  C   UNL     1      39.506  -8.827   0.274  1.00  0.00     0.003 A 
HETATM   20  C   UNL     1      39.160 -10.144   0.570  1.00  0.00     0.009 A 
BRANCH  17  21
HETATM   21  O   UNL     1      42.813  -9.160  -1.157  1.00  0.00    -0.356 OA
HETATM   22  C   UNL     1      42.868  -7.834  -1.667  1.00  0.00     0.210 C 
ENDBRANCH  17  21
ENDBRANCH   8  15
ENDBRANCH   7   8
ENDBRANCH   3   7
BRANCH   1  23
HETATM   23  C   UNL     1      41.549 -16.048   4.668  1.00  0.00     0.086 C 
HETATM   24  C   UNL     1      41.979 -15.307   5.934  1.00  0.00     0.032 C 
BRANCH  23  25
HETATM   25  C   UNL     1      42.729 -16.215   3.685  1.00  0.00     0.063 C 
BRANCH  25  26
HETATM   26  C   UNL     1      43.156 -17.661   3.527  1.00  0.00    -0.056 A 
HETATM   27  C   UNL     1      42.897 -18.349   2.332  1.00  0.00     0.010 A 
HETATM   28  C   UNL     1      43.258 -19.692   2.191  1.00  0.00     0.037 A 
HETATM   29  C   UNL     1      43.876 -20.347   3.251  1.00  0.00     0.065 A 
HETATM   30  C   UNL     1      44.147 -19.681   4.439  1.00  0.00     0.037 A 
HETATM   31  C   UNL     1      43.797 -18.338   4.575  1.00  0.00     0.010 A 
BRANCH  29  32
HETATM   32  O   UNL     1      44.237 -21.658   3.164  1.00  0.00    -0.361 OA
HETATM   33  H   UNL     1      43.961 -22.006   2.300  1.00  0.00     0.217 HD
ENDBRANCH  29  32
ENDBRANCH  25  26
ENDBRANCH  23  25
ENDBRANCH   1  23
TORSDOF 9
ENDMDL
MODEL 5
REMARK VINA RESULT:      -8.0      2.949      9.083
REMARK  9 active torsions:
REMARK  status: ('A' for Active; 'I' for Inactive)
REMARK    1  A    between atoms: C_2  and  N_3 
REMARK    2  A    between atoms: C_2  and  C_23 
REMARK       I    between atoms: N_3  and  C_4 
REMARK       I    between atoms: C_4  and  N_5 
REMARK    3  A    between atoms: N_5  and  C_6 
REMARK    4  A    between atoms: C_6  and  C_7 
REMARK    5  A    between atoms: C_7  and  N_8 
REMARK    6  A    between atoms: C_7  and  C_14 
REMARK    7  A    between atoms: C_16  and  O_17 
REMARK    8  A    between atoms: C_23  and  C_24 
REMARK    9  A    between atoms: C_27  and  O_28 
ROOT
HETATM    1  N   UNL     1      38.861 -12.716   1.412  1.00  0.00    -0.339 N 
HETATM    2  C   UNL     1      39.665 -12.941   2.494  1.00  0.00     0.316 C 
HETATM    3  N   UNL     1      39.773 -14.282   2.773  1.00  0.00    -0.341 N 
HETATM    4  O   UNL     1      40.300 -12.091   3.099  1.00  0.00    -0.248 OA
HETATM    5  H   UNL     1      38.211 -13.454   1.185  1.00  0.00     0.164 HD
HETATM    6  H   UNL     1      38.987 -14.852   2.489  1.00  0.00     0.164 HD
ENDROOT
BRANCH   3   7
HETATM    7  C   UNL     1      40.564 -14.745   3.904  1.00  0.00     0.162 C 
BRANCH   7   8
HETATM    8  C   UNL     1      42.107 -14.653   3.699  1.00  0.00     0.238 C 
BRANCH   8   9
HETATM    9  N   UNL     1      42.835 -13.659   4.591  1.00  0.00    -0.061 N 
HETATM   10  H   UNL     1      43.628 -14.198   4.962  1.00  0.00     0.280 HD
HETATM   11  C   UNL     1      42.132 -13.137   5.827  1.00  0.00     0.236 C 
HETATM   12  C   UNL     1      42.460 -11.652   5.876  1.00  0.00     0.029 C 
HETATM   13  C   UNL     1      43.710 -11.504   5.031  1.00  0.00     0.029 C 
HETATM   14  C   UNL     1      43.475 -12.481   3.901  1.00  0.00     0.236 C 
ENDBRANCH   8   9
BRANCH   8  15
HETATM   15  C   UNL     1      42.799 -16.009   3.752  1.00  0.00    -0.023 A 
HETATM   16  C   UNL     1      42.630 -16.981   2.746  1.00  0.00     0.046 A 
HETATM   17  C   UNL     1      43.268 -18.221   2.836  1.00  0.00     0.068 A 
HETATM   18  C   UNL     1      44.057 -18.506   3.950  1.00  0.00     0.037 A 
HETATM   19  C   UNL     1      44.225 -17.565   4.961  1.00  0.00     0.003 A 
HETATM   20  C   UNL     1      43.600 -16.323   4.865  1.00  0.00     0.009 A 
BRANCH  17  21
HETATM   21  O   UNL     1      43.188 -19.231   1.921  1.00  0.00    -0.356 OA
HETATM   22  C   UNL     1      43.702 -20.503   2.297  1.00  0.00     0.210 C 
ENDBRANCH  17  21
ENDBRANCH   8  15
ENDBRANCH   7   8
ENDBRANCH   3   7
BRANCH   1  23
HETATM   23  C   UNL     1      38.388 -11.386   1.008  1.00  0.00     0.086 C 
HETATM   24  C   UNL     1      36.873 -11.215   1.125  1.00  0.00     0.032 C 
BRANCH  23  25
HETATM   25  C   UNL     1      38.891 -10.998  -0.401  1.00  0.00     0.063 C 
BRANCH  25  26
HETATM   26  C   UNL     1      38.719 -12.116  -1.410  1.00  0.00    -0.056 A 
HETATM   27  C   UNL     1      37.466 -12.357  -1.993  1.00  0.00     0.010 A 
HETATM   28  C   UNL     1      37.295 -13.407  -2.900  1.00  0.00     0.037 A 
HETATM   29  C   UNL     1      38.377 -14.218  -3.218  1.00  0.00     0.065 A 
HETATM   30  C   UNL     1      39.627 -13.991  -2.657  1.00  0.00     0.037 A 
HETATM   31  C   UNL     1      39.802 -12.936  -1.761  1.00  0.00     0.010 A 
BRANCH  29  32
HETATM   32  O   UNL     1      38.256 -15.259  -4.089  1.00  0.00    -0.361 OA
HETATM   33  H   UNL     1      38.502 -16.082  -3.634  1.00  0.00     0.217 HD
ENDBRANCH  29  32
ENDBRANCH  25  26
ENDBRANCH  23  25
ENDBRANCH   1  23
TORSDOF 9
ENDMDL
MODEL 6
REMARK VINA RESULT:      -7.9      4.311      7.710
REMARK  9 active torsions:
REMARK  status: ('A' for Active; 'I' for Inactive)
REMARK    1  A    between atoms: C_2  and  N_3 
REMARK    2  A    between atoms: C_2  and  C_23 
REMARK       I    between atoms: N_3  and  C_4 
REMARK       I    between atoms: C_4  and  N_5 
REMARK    3  A    between atoms: N_5  and  C_6 
REMARK    4  A    between atoms: C_6  and  C_7 
REMARK    5  A    between atoms: C_7  and  N_8 
REMARK    6  A    between atoms: C_7  and  C_14 
REMARK    7  A    between atoms: C_16  and  O_17 
REMARK    8  A    between atoms: C_23  and  C_24 
REMARK    9  A    between atoms: C_27  and  O_28 
ROOT
HETATM    1  N   UNL     1      43.621 -16.029   4.650  1.00  0.00    -0.339 N 
HETATM    2  C   UNL     1      43.163 -15.407   5.778  1.00  0.00     0.316 C 
HETATM    3  N   UNL     1      43.831 -14.230   6.012  1.00  0.00    -0.341 N 
HETATM    4  O   UNL     1      42.217 -15.774   6.459  1.00  0.00    -0.248 OA
HETATM    5  H   UNL     1      44.548 -15.768   4.349  1.00  0.00     0.164 HD
HETATM    6  H   UNL     1      44.775 -14.183   5.651  1.00  0.00     0.164 HD
ENDROOT
BRANCH   3   7
HETATM    7  C   UNL     1      43.518 -13.418   7.179  1.00  0.00     0.162 C 
BRANCH   7   8
HETATM    8  C   UNL     1      43.069 -11.959   6.854  1.00  0.00     0.238 C 
BRANCH   8   9
HETATM    9  N   UNL     1      44.168 -10.908   6.878  1.00  0.00    -0.061 N 
HETATM   10  H   UNL     1      43.994 -10.353   6.031  1.00  0.00     0.280 HD
HETATM   11  C   UNL     1      45.609 -11.355   6.738  1.00  0.00     0.236 C 
HETATM   12  C   UNL     1      46.385 -10.518   7.744  1.00  0.00     0.029 C 
HETATM   13  C   UNL     1      45.504  -9.314   8.009  1.00  0.00     0.029 C 
HETATM   14  C   UNL     1      44.111  -9.904   8.002  1.00  0.00     0.236 C 
ENDBRANCH   8   9
BRANCH   8  15
HETATM   15  C   UNL     1      42.272 -11.854   5.561  1.00  0.00    -0.023 A 
HETATM   16  C   UNL     1      42.829 -11.338   4.373  1.00  0.00     0.046 A 
HETATM   17  C   UNL     1      42.062 -11.241   3.208  1.00  0.00     0.068 A 
HETATM   18  C   UNL     1      40.724 -11.634   3.233  1.00  0.00     0.037 A 
HETATM   19  C   UNL     1      40.153 -12.133   4.400  1.00  0.00     0.003 A 
HETATM   20  C   UNL     1      40.920 -12.243   5.558  1.00  0.00     0.009 A 
BRANCH  17  21
HETATM   21  O   UNL     1      42.494 -10.770   2.002  1.00  0.00    -0.356 OA
HETATM   22  C   UNL     1      41.509 -10.451   1.027  1.00  0.00     0.210 C 
ENDBRANCH  17  21
ENDBRANCH   8  15
ENDBRANCH   7   8
ENDBRANCH   3   7
BRANCH   1  23
HETATM   23  C   UNL     1      43.253 -17.396   4.264  1.00  0.00     0.086 C 
HETATM   24  C   UNL     1      44.259 -18.452   4.721  1.00  0.00     0.032 C 
BRANCH  23  25
HETATM   25  C   UNL     1      42.965 -17.511   2.750  1.00  0.00     0.063 C 
BRANCH  25  26
HETATM   26  C   UNL     1      41.990 -16.459   2.260  1.00  0.00    -0.056 A 
HETATM   27  C   UNL     1      40.651 -16.485   2.679  1.00  0.00     0.010 A 
HETATM   28  C   UNL     1      39.739 -15.537   2.206  1.00  0.00     0.037 A 
HETATM   29  C   UNL     1      40.168 -14.566   1.309  1.00  0.00     0.065 A 
HETATM   30  C   UNL     1      41.491 -14.519   0.888  1.00  0.00     0.037 A 
HETATM   31  C   UNL     1      42.404 -15.458   1.369  1.00  0.00     0.010 A 
BRANCH  29  32
HETATM   32  O   UNL     1      39.314 -13.627   0.813  1.00  0.00    -0.361 OA
HETATM   33  H   UNL     1      38.429 -13.778   1.184  1.00  0.00     0.217 HD
ENDBRANCH  29  32
ENDBRANCH  25  26
ENDBRANCH  23  25
ENDBRANCH   1  23
TORSDOF 9
ENDMDL
MODEL 7
REMARK VINA RESULT:      -7.8      7.025     10.591
REMARK  9 active torsions:
REMARK  status: ('A' for Active; 'I' for Inactive)
REMARK    1  A    between atoms: C_2  and  N_3 
REMARK    2  A    between atoms: C_2  and  C_23 
REMARK       I    between atoms: N_3  and  C_4 
REMARK       I    between atoms: C_4  and  N_5 
REMARK    3  A    between atoms: N_5  and  C_6 
REMARK    4  A    between atoms: C_6  and  C_7 
REMARK    5  A    between atoms: C_7  and  N_8 
REMARK    6  A    between atoms: C_7  and  C_14 
REMARK    7  A    between atoms: C_16  and  O_17 
REMARK    8  A    between atoms: C_23  and  C_24 
REMARK    9  A    between atoms: C_27  and  O_28 
ROOT
HETATM    1  N   UNL     1      43.687 -10.655   8.871  1.00  0.00    -0.339 N 
HETATM    2  C   UNL     1      44.027 -11.253   7.690  1.00  0.00     0.316 C 
HETATM    3  N   UNL     1      43.511 -12.522   7.600  1.00  0.00    -0.341 N 
HETATM    4  O   UNL     1      44.629 -10.721   6.770  1.00  0.00    -0.248 OA
HETATM    5  H   UNL     1      43.430 -11.277   9.622  1.00  0.00     0.164 HD
HETATM    6  H   UNL     1      43.356 -12.995   8.481  1.00  0.00     0.164 HD
ENDROOT
BRANCH   3   7
HETATM    7  C   UNL     1      43.774 -13.350   6.432  1.00  0.00     0.162 C 
BRANCH   7   8
HETATM    8  C   UNL     1      42.614 -14.319   6.048  1.00  0.00     0.238 C 
BRANCH   8   9
HETATM    9  N   UNL     1      41.481 -13.706   5.239  1.00  0.00    -0.061 N 
HETATM   10  H   UNL     1      41.289 -14.410   4.515  1.00  0.00     0.280 HD
HETATM   11  C   UNL     1      41.745 -12.435   4.459  1.00  0.00     0.236 C 
HETATM   12  C   UNL     1      40.510 -11.573   4.671  1.00  0.00     0.029 C 
HETATM   13  C   UNL     1      39.423 -12.547   5.080  1.00  0.00     0.029 C 
HETATM   14  C   UNL     1      40.163 -13.536   5.953  1.00  0.00     0.236 C 
ENDBRANCH   8   9
BRANCH   8  15
HETATM   15  C   UNL     1      43.100 -15.599   5.380  1.00  0.00    -0.023 A 
HETATM   16  C   UNL     1      42.534 -16.088   4.186  1.00  0.00     0.046 A 
HETATM   17  C   UNL     1      42.996 -17.275   3.610  1.00  0.00     0.068 A 
HETATM   18  C   UNL     1      44.008 -17.996   4.243  1.00  0.00     0.037 A 
HETATM   19  C   UNL     1      44.570 -17.537   5.431  1.00  0.00     0.003 A 
HETATM   20  C   UNL     1      44.120 -16.346   5.998  1.00  0.00     0.009 A 
BRANCH  17  21
HETATM   21  O   UNL     1      42.534 -17.837   2.455  1.00  0.00    -0.356 OA
HETATM   22  C   UNL     1      42.979 -19.149   2.136  1.00  0.00     0.210 C 
ENDBRANCH  17  21
ENDBRANCH   8  15
ENDBRANCH   7   8
ENDBRANCH   3   7
BRANCH   1  23
HETATM   23  C   UNL     1      44.263  -9.389   9.343  1.00  0.00     0.086 C 
HETATM   24  C   UNL     1      45.407  -9.573  10.340  1.00  0.00     0.032 C 
BRANCH  23  25
HETATM   25  C   UNL     1      43.183  -8.433   9.896  1.00  0.00     0.063 C 
BRANCH  25  26
HETATM   26  C   UNL     1      42.228  -9.121  10.850  1.00  0.00    -0.056 A 
HETATM   27  C   UNL     1      40.889  -9.331  10.484  1.00  0.00     0.010 A 
HETATM   28  C   UNL     1      39.996  -9.936  11.373  1.00  0.00     0.037 A 
HETATM   29  C   UNL     1      40.442 -10.327  12.629  1.00  0.00     0.065 A 
HETATM   30  C   UNL     1      41.765 -10.135  13.008  1.00  0.00     0.037 A 
HETATM   31  C   UNL     1      42.660  -9.542  12.117  1.00  0.00     0.010 A 
BRANCH  29  32
HETATM   32  O   UNL     1      39.606 -10.912  13.532  1.00  0.00    -0.361 OA
HETATM   33  H   UNL     1      38.724 -11.002  13.134  1.00  0.00     0.217 HD
ENDBRANCH  29  32
ENDBRANCH  25  26
ENDBRANCH  23  25
ENDBRANCH   1  23
TORSDOF 9
ENDMDL
MODEL 8
REMARK VINA RESULT:      -7.8      2.651      4.092
REMARK  9 active torsions:
REMARK  status: ('A' for Active; 'I' for Inactive)
REMARK    1  A    between atoms: C_2  and  N_3 
REMARK    2  A    between atoms: C_2  and  C_23 
REMARK       I    between atoms: N_3  and  C_4 
REMARK       I    between atoms: C_4  and  N_5 
REMARK    3  A    between atoms: N_5  and  C_6 
REMARK    4  A    between atoms: C_6  and  C_7 
REMARK    5  A    between atoms: C_7  and  N_8 
REMARK    6  A    between atoms: C_7  and  C_14 
REMARK    7  A    between atoms: C_16  and  O_17 
REMARK    8  A    between atoms: C_23  and  C_24 
REMARK    9  A    between atoms: C_27  and  O_28 
ROOT
HETATM    1  N   UNL     1      42.192 -14.516   4.864  1.00  0.00    -0.339 N 
HETATM    2  C   UNL     1      42.139 -14.193   3.537  1.00  0.00     0.316 C 
HETATM    3  N   UNL     1      41.914 -12.850   3.353  1.00  0.00    -0.341 N 
HETATM    4  O   UNL     1      42.356 -14.956   2.608  1.00  0.00    -0.248 OA
HETATM    5  H   UNL     1      41.743 -13.868   5.494  1.00  0.00     0.164 HD
HETATM    6  H   UNL     1      41.411 -12.385   4.097  1.00  0.00     0.164 HD
ENDROOT
BRANCH   3   7
HETATM    7  C   UNL     1      41.796 -12.293   2.013  1.00  0.00     0.162 C 
BRANCH   7   8
HETATM    8  C   UNL     1      40.394 -12.477   1.355  1.00  0.00     0.238 C 
BRANCH   8   9
HETATM    9  N   UNL     1      39.316 -11.507   1.813  1.00  0.00    -0.061 N 
HETATM   10  H   UNL     1      39.099 -11.818   2.769  1.00  0.00     0.280 HD
HETATM   11  C   UNL     1      37.976 -11.519   1.107  1.00  0.00     0.236 C 
HETATM   12  C   UNL     1      37.595 -10.055   0.949  1.00  0.00     0.029 C 
HETATM   13  C   UNL     1      38.413  -9.327   1.997  1.00  0.00     0.029 C 
HETATM   14  C   UNL     1      39.732 -10.067   1.974  1.00  0.00     0.236 C 
ENDBRANCH   8   9
BRANCH   8  15
HETATM   15  C   UNL     1      40.450 -12.516  -0.167  1.00  0.00    -0.023 A 
HETATM   16  C   UNL     1      39.961 -13.609  -0.911  1.00  0.00     0.046 A 
HETATM   17  C   UNL     1      40.044 -13.618  -2.306  1.00  0.00     0.068 A 
HETATM   18  C   UNL     1      40.643 -12.544  -2.964  1.00  0.00     0.037 A 
HETATM   19  C   UNL     1      41.144 -11.462  -2.247  1.00  0.00     0.003 A 
HETATM   20  C   UNL     1      41.049 -11.446  -0.856  1.00  0.00     0.009 A 
BRANCH  17  21
HETATM   21  O   UNL     1      39.596 -14.612  -3.128  1.00  0.00    -0.356 OA
HETATM   22  C   UNL     1      38.221 -14.600  -3.488  1.00  0.00     0.210 C 
ENDBRANCH  17  21
ENDBRANCH   8  15
ENDBRANCH   7   8
ENDBRANCH   3   7
BRANCH   1  23
HETATM   23  C   UNL     1      42.205 -15.894   5.369  1.00  0.00     0.086 C 
HETATM   24  C   UNL     1      41.468 -16.065   6.697  1.00  0.00     0.032 C 
BRANCH  23  25
HETATM   25  C   UNL     1      43.638 -16.469   5.443  1.00  0.00     0.063 C 
BRANCH  25  26
HETATM   26  C   UNL     1      43.735 -17.870   4.872  1.00  0.00    -0.056 A 
HETATM   27  C   UNL     1      43.835 -18.977   5.728  1.00  0.00     0.010 A 
HETATM   28  C   UNL     1      43.957 -20.269   5.207  1.00  0.00     0.037 A 
HETATM   29  C   UNL     1      43.983 -20.450   3.830  1.00  0.00     0.065 A 
HETATM   30  C   UNL     1      43.878 -19.367   2.966  1.00  0.00     0.037 A 
HETATM   31  C   UNL     1      43.744 -18.079   3.485  1.00  0.00     0.010 A 
BRANCH  29  32
HETATM   32  O   UNL     1      44.110 -21.689   3.277  1.00  0.00    -0.361 OA
HETATM   33  H   UNL     1      44.632 -22.250   3.875  1.00  0.00     0.217 HD
ENDBRANCH  29  32
ENDBRANCH  25  26
ENDBRANCH  23  25
ENDBRANCH   1  23
TORSDOF 9
ENDMDL
MODEL 9
REMARK VINA RESULT:      -7.7      6.453      8.613
REMARK  9 active torsions:
REMARK  status: ('A' for Active; 'I' for Inactive)
REMARK    1  A    between atoms: C_2  and  N_3 
REMARK    2  A    between atoms: C_2  and  C_23 
REMARK       I    between atoms: N_3  and  C_4 
REMARK       I    between atoms: C_4  and  N_5 
REMARK    3  A    between atoms: N_5  and  C_6 
REMARK    4  A    between atoms: C_6  and  C_7 
REMARK    5  A    between atoms: C_7  and  N_8 
REMARK    6  A    between atoms: C_7  and  C_14 
REMARK    7  A    between atoms: C_16  and  O_17 
REMARK    8  A    between atoms: C_23  and  C_24 
REMARK    9  A    between atoms: C_27  and  O_28 
ROOT
HETATM    1  N   UNL     1      42.923 -14.424   6.200  1.00  0.00    -0.339 N 
HETATM    2  C   UNL     1      43.013 -13.241   5.522  1.00  0.00     0.316 C 
HETATM    3  N   UNL     1      43.043 -12.169   6.380  1.00  0.00    -0.341 N 
HETATM    4  O   UNL     1      43.150 -13.121   4.314  1.00  0.00    -0.248 OA
HETATM    5  H   UNL     1      42.558 -14.367   7.139  1.00  0.00     0.164 HD
HETATM    6  H   UNL     1      42.584 -12.308   7.270  1.00  0.00     0.164 HD
ENDROOT
BRANCH   3   7
HETATM    7  C   UNL     1      43.111 -10.808   5.866  1.00  0.00     0.162 C 
BRANCH   7   8
HETATM    8  C   UNL     1      42.797  -9.700   6.917  1.00  0.00     0.238 C 
BRANCH   8   9
HETATM    9  N   UNL     1      41.333  -9.553   7.305  1.00  0.00    -0.061 N 
HETATM   10  H   UNL     1      41.268 -10.046   8.205  1.00  0.00     0.280 HD
HETATM   11  C   UNL     1      40.279 -10.217   6.443  1.00  0.00     0.236 C 
HETATM   12  C   UNL     1      39.152  -9.200   6.337  1.00  0.00     0.029 C 
HETATM   13  C   UNL     1      39.352  -8.276   7.522  1.00  0.00     0.029 C 
HETATM   14  C   UNL     1      40.857  -8.155   7.610  1.00  0.00     0.236 C 
ENDBRANCH   8   9
BRANCH   8  15
HETATM   15  C   UNL     1      43.662  -9.799   8.167  1.00  0.00    -0.023 A 
HETATM   16  C   UNL     1      43.177 -10.329   9.379  1.00  0.00     0.046 A 
HETATM   17  C   UNL     1      43.995 -10.389  10.511  1.00  0.00     0.068 A 
HETATM   18  C   UNL     1      45.297  -9.892  10.443  1.00  0.00     0.037 A 
HETATM   19  C   UNL     1      45.789  -9.352   9.259  1.00  0.00     0.003 A 
HETATM   20  C   UNL     1      44.978  -9.304   8.127  1.00  0.00     0.009 A 
BRANCH  17  21
HETATM   21  O   UNL     1      43.640 -10.889  11.730  1.00  0.00    -0.356 OA
HETATM   22  C   UNL     1      42.671 -10.169  12.482  1.00  0.00     0.210 C 
ENDBRANCH  17  21
ENDBRANCH   8  15
ENDBRANCH   7   8
ENDBRANCH   3   7
BRANCH   1  23
HETATM   23  C   UNL     1      42.659 -15.717   5.557  1.00  0.00     0.086 C 
HETATM   24  C   UNL     1      41.491 -16.482   6.179  1.00  0.00     0.032 C 
BRANCH  23  25
HETATM   25  C   UNL     1      43.929 -16.595   5.482  1.00  0.00     0.063 C 
BRANCH  25  26
HETATM   26  C   UNL     1      43.795 -17.730   4.487  1.00  0.00    -0.056 A 
HETATM   27  C   UNL     1      44.166 -19.035   4.847  1.00  0.00     0.010 A 
HETATM   28  C   UNL     1      44.075 -20.081   3.924  1.00  0.00     0.037 A 
HETATM   29  C   UNL     1      43.616 -19.819   2.639  1.00  0.00     0.065 A 
HETATM   30  C   UNL     1      43.237 -18.536   2.265  1.00  0.00     0.037 A 
HETATM   31  C   UNL     1      43.316 -17.494   3.190  1.00  0.00     0.010 A 
BRANCH  29  32
HETATM   32  O   UNL     1      43.520 -20.804   1.703  1.00  0.00    -0.361 OA
HETATM   33  H   UNL     1      42.584 -20.934   1.476  1.00  0.00     0.217 HD
ENDBRANCH  29  32
ENDBRANCH  25  26
ENDBRANCH  23  25
ENDBRANCH   1  23
TORSDOF 9
ENDMDL
MODEL 10
REMARK VINA RESULT:      -7.6      3.341      5.174
REMARK  9 active torsions:
REMARK  status: ('A' for Active; 'I' for Inactive)
REMARK    1  A    between atoms: C_2  and  N_3 
REMARK    2  A    between atoms: C_2  and  C_23 
REMARK       I    between atoms: N_3  and  C_4 
REMARK       I    between atoms: C_4  and  N_5 
REMARK    3  A    between atoms: N_5  and  C_6 
REMARK    4  A    between atoms: C_6  and  C_7 
REMARK    5  A    between atoms: C_7  and  N_8 
REMARK    6  A    between atoms: C_7  and  C_14 
REMARK    7  A    between atoms: C_16  and  O_17 
REMARK    8  A    between atoms: C_23  and  C_24 
REMARK    9  A    between atoms: C_27  and  O_28 
ROOT
HETATM    1  N   UNL     1      41.500 -15.903   5.796  1.00  0.00    -0.339 N 
HETATM    2  C   UNL     1      41.693 -15.116   4.695  1.00  0.00     0.316 C 
HETATM    3  N   UNL     1      40.530 -14.944   3.986  1.00  0.00    -0.341 N 
HETATM    4  O   UNL     1      42.732 -14.543   4.403  1.00  0.00    -0.248 OA
HETATM    5  H   UNL     1      40.692 -16.507   5.769  1.00  0.00     0.164 HD
HETATM    6  H   UNL     1      39.853 -15.692   4.069  1.00  0.00     0.164 HD
ENDROOT
BRANCH   3   7
HETATM    7  C   UNL     1      40.515 -14.159   2.761  1.00  0.00     0.162 C 
BRANCH   7   8
HETATM    8  C   UNL     1      39.950 -12.714   2.921  1.00  0.00     0.238 C 
BRANCH   8   9
HETATM    9  N   UNL     1      40.974 -11.635   3.240  1.00  0.00    -0.061 N 
HETATM   10  H   UNL     1      40.519 -10.767   2.930  1.00  0.00     0.280 HD
HETATM   11  C   UNL     1      42.297 -11.644   2.502  1.00  0.00     0.236 C 
HETATM   12  C   UNL     1      43.344 -11.321   3.557  1.00  0.00     0.029 C 
HETATM   13  C   UNL     1      42.575 -10.637   4.670  1.00  0.00     0.029 C 
HETATM   14  C   UNL     1      41.270 -11.401   4.700  1.00  0.00     0.236 C 
ENDBRANCH   8   9
BRANCH   8  15
HETATM   15  C   UNL     1      39.079 -12.279   1.750  1.00  0.00    -0.023 A 
HETATM   16  C   UNL     1      39.336 -12.692   0.427  1.00  0.00     0.046 A 
HETATM   17  C   UNL     1      38.524 -12.260  -0.626  1.00  0.00     0.068 A 
HETATM   18  C   UNL     1      37.467 -11.389  -0.364  1.00  0.00     0.037 A 
HETATM   19  C   UNL     1      37.207 -10.959   0.933  1.00  0.00     0.003 A 
HETATM   20  C   UNL     1      38.007 -11.400   1.986  1.00  0.00     0.009 A 
BRANCH  17  21
HETATM   21  O   UNL     1      38.668 -12.601  -1.940  1.00  0.00    -0.356 OA
HETATM   22  C   UNL     1      39.104 -13.922  -2.235  1.00  0.00     0.210 C 
ENDBRANCH  17  21
ENDBRANCH   8  15
ENDBRANCH   7   8
ENDBRANCH   3   7
BRANCH   1  23
HETATM   23  C   UNL     1      42.590 -16.436   6.622  1.00  0.00     0.086 C 
HETATM   24  C   UNL     1      42.881 -15.596   7.865  1.00  0.00     0.032 C 
BRANCH  23  25
HETATM   25  C   UNL     1      43.873 -16.683   5.797  1.00  0.00     0.063 C 
BRANCH  25  26
HETATM   26  C   UNL     1      43.882 -18.041   5.125  1.00  0.00    -0.056 A 
HETATM   27  C   UNL     1      43.833 -19.213   5.896  1.00  0.00     0.010 A 
HETATM   28  C   UNL     1      43.873 -20.469   5.284  1.00  0.00     0.037 A 
HETATM   29  C   UNL     1      43.967 -20.551   3.900  1.00  0.00     0.065 A 
HETATM   30  C   UNL     1      44.010 -19.404   3.119  1.00  0.00     0.037 A 
HETATM   31  C   UNL     1      43.957 -18.149   3.728  1.00  0.00     0.010 A 
BRANCH  29  32
HETATM   32  O   UNL     1      44.020 -21.753   3.260  1.00  0.00    -0.361 OA
HETATM   33  H   UNL     1      43.143 -22.170   3.298  1.00  0.00     0.217 HD
ENDBRANCH  29  32
ENDBRANCH  25  26
ENDBRANCH  23  25
ENDBRANCH   1  23
TORSDOF 9
ENDMDL
