MODEL 1
REMARK VINA RESULT:      -7.8      0.000      0.000
REMARK  7 active torsions:
REMARK  status: ('A' for Active; 'I' for Inactive)
REMARK    1  A    between atoms: C_2  and  C_3 
REMARK    2  A    between atoms: C_3  and  N_4 
REMARK    3  A    between atoms: C_7  and  C_8 
REMARK    4  A    between atoms: C_8  and  N_9 
REMARK       I    between atoms: N_9  and  C_10 
REMARK       I    between atoms: C_10  and  N_11 
REMARK    5  A    between atoms: N_11  and  C_12 
REMARK    6  A    between atoms: C_16  and  N_17 
REMARK       I    between atoms: N_17  and  C_18 
REMARK    7  A    between atoms: C_18  and  C_19 
ROOT
HETATM    1  C   UNL     1      40.625 -13.865   3.960  1.00  0.00     0.036 A 
HETATM    2  C   UNL     1      41.203 -12.625   3.683  1.00  0.00     0.038 A 
HETATM    3  C   UNL     1      41.876 -11.894   4.685  1.00  0.00    -0.033 A 
HETATM    4  C   UNL     1      42.471 -10.558   4.320  1.00  0.00     0.050 C 
HETATM    5  C   UNL     1      41.992 -12.436   5.981  1.00  0.00     0.041 A 
HETATM    6  C   UNL     1      41.345 -13.644   6.261  1.00  0.00     0.032 A 
HETATM    7  C   UNL     1      40.651 -14.341   5.269  1.00  0.00     0.032 A 
ENDROOT
BRANCH   1   8
HETATM    8  N   UNL     1      39.983 -14.663   2.997  1.00  0.00    -0.309 N 
HETATM    9  C   UNL     1      40.399 -15.758   2.305  1.00  0.00     0.320 C 
HETATM   10  N   UNL     1      41.550 -16.361   2.727  1.00  0.00    -0.342 N 
HETATM   11  O   UNL     1      39.725 -16.191   1.375  1.00  0.00    -0.247 OA
HETATM   12  H   UNL     1      41.761 -16.120   3.689  1.00  0.00     0.164 HD
HETATM   13  H   UNL     1      39.002 -14.462   2.828  1.00  0.00     0.170 HD
BRANCH  10  14
HETATM   14  C   UNL     1      41.951 -17.711   2.369  1.00  0.00     0.130 C 
BRANCH  14  15
HETATM   15  C   UNL     1      43.452 -18.039   2.316  1.00  0.00     0.031 C 
HETATM   16  C   UNL     1      44.229 -17.615   3.554  1.00  0.00     0.241 C 
HETATM   17  N   UNL     1      44.223 -18.831   4.478  1.00  0.00    -0.071 N 
HETATM   18  H   UNL     1      45.211 -19.047   4.667  1.00  0.00     0.279 HD
HETATM   19  C   UNL     1      43.640 -19.989   3.699  1.00  0.00     0.235 C 
HETATM   20  C   UNL     1      43.709 -19.541   2.254  1.00  0.00     0.035 C 
BRANCH  17  21
HETATM   21  C   UNL     1      43.564 -18.554   5.804  1.00  0.00     0.234 C 
BRANCH  21  22
HETATM   22  C   UNL     1      43.240 -17.072   5.940  1.00  0.00     0.023 C 
HETATM   23  C   UNL     1      44.178 -16.401   6.931  1.00  0.00     0.007 C 
ENDBRANCH  21  22
ENDBRANCH  17  21
ENDBRANCH  14  15
ENDBRANCH  10  14
ENDBRANCH   1   8
BRANCH   5  24
HETATM   24  N   UNL     1      42.761 -11.752   6.945  1.00  0.00    -0.321 N 
HETATM   25  C   UNL     1      44.107 -11.907   7.236  1.00  0.00     0.279 C 
HETATM   26  O   UNL     1      44.859 -12.723   6.714  1.00  0.00    -0.265 OA
HETATM   27  H   UNL     1      42.328 -10.978   7.437  1.00  0.00     0.169 HD
BRANCH  25  28
HETATM   28  C   UNL     1      44.578 -10.951   8.224  1.00  0.00     0.142 A 
HETATM   29  O   UNL     1      44.150 -11.059   9.525  1.00  0.00    -0.317 OA
HETATM   30  C   UNL     1      44.733 -10.047  10.220  1.00  0.00     0.143 A 
HETATM   31  C   UNL     1      45.518  -9.280   9.392  1.00  0.00     0.027 A 
HETATM   32  C   UNL     1      45.421  -9.864   8.106  1.00  0.00     0.045 A 
ENDBRANCH  25  28
ENDBRANCH   5  24
TORSDOF 7
ENDMDL
MODEL 2
REMARK VINA RESULT:      -7.8      2.397      7.962
REMARK  7 active torsions:
REMARK  status: ('A' for Active; 'I' for Inactive)
REMARK    1  A    between atoms: C_2  and  C_3 
REMARK    2  A    between atoms: C_3  and  N_4 
REMARK    3  A    between atoms: C_7  and  C_8 
REMARK    4  A    between atoms: C_8  and  N_9 
REMARK       I    between atoms: N_9  and  C_10 
REMARK       I    between atoms: C_10  and  N_11 
REMARK    5  A    between atoms: N_11  and  C_12 
REMARK    6  A    between atoms: C_16  and  N_17 
REMARK       I    between atoms: N_17  and  C_18 
REMARK    7  A    between atoms: C_18  and  C_19 
ROOT
HETATM    1  C   UNL     1      40.449 -12.809   5.439  1.00  0.00     0.036 A 
HETATM    2  C   UNL     1      41.178 -12.823   4.248  1.00  0.00     0.038 A 
HETATM    3  C   UNL     1      41.778 -14.009   3.774  1.00  0.00    -0.033 A 
HETATM    4  C   UNL     1      42.557 -13.953   2.485  1.00  0.00     0.050 C 
HETATM    5  C   UNL     1      41.615 -15.207   4.499  1.00  0.00     0.041 A 
HETATM    6  C   UNL     1      40.946 -15.162   5.726  1.00  0.00     0.032 A 
HETATM    7  C   UNL     1      40.388 -13.972   6.202  1.00  0.00     0.032 A 
ENDROOT
BRANCH   1   8
HETATM    8  N   UNL     1      39.791 -11.673   5.941  1.00  0.00    -0.309 N 
HETATM    9  C   UNL     1      40.209 -10.677   6.769  1.00  0.00     0.320 C 
HETATM   10  N   UNL     1      41.550 -10.595   7.018  1.00  0.00    -0.342 N 
HETATM   11  O   UNL     1      39.400  -9.871   7.220  1.00  0.00    -0.247 OA
HETATM   12  H   UNL     1      42.087 -11.071   6.302  1.00  0.00     0.164 HD
HETATM   13  H   UNL     1      38.863 -11.491   5.572  1.00  0.00     0.170 HD
BRANCH  10  14
HETATM   14  C   UNL     1      42.217  -9.422   7.556  1.00  0.00     0.130 C 
BRANCH  14  15
HETATM   15  C   UNL     1      42.904  -9.536   8.927  1.00  0.00     0.031 C 
HETATM   16  C   UNL     1      43.911 -10.672   9.030  1.00  0.00     0.241 C 
HETATM   17  N   UNL     1      45.259 -10.060   8.655  1.00  0.00    -0.071 N 
HETATM   18  H   UNL     1      45.882 -10.236   9.454  1.00  0.00     0.279 HD
HETATM   19  C   UNL     1      45.062  -8.564   8.546  1.00  0.00     0.235 C 
HETATM   20  C   UNL     1      43.746  -8.306   9.250  1.00  0.00     0.035 C 
BRANCH  17  21
HETATM   21  C   UNL     1      45.883 -10.713   7.450  1.00  0.00     0.234 C 
BRANCH  21  22
HETATM   22  C   UNL     1      44.998 -11.843   6.938  1.00  0.00     0.023 C 
HETATM   23  C   UNL     1      44.571 -11.588   5.500  1.00  0.00     0.007 C 
ENDBRANCH  21  22
ENDBRANCH  17  21
ENDBRANCH  14  15
ENDBRANCH  10  14
ENDBRANCH   1   8
BRANCH   5  24
HETATM   24  N   UNL     1      42.122 -16.408   3.961  1.00  0.00    -0.321 N 
HETATM   25  C   UNL     1      43.310 -17.053   4.270  1.00  0.00     0.279 C 
HETATM   26  O   UNL     1      44.158 -16.643   5.056  1.00  0.00    -0.265 OA
HETATM   27  H   UNL     1      41.525 -16.941   3.338  1.00  0.00     0.169 HD
BRANCH  25  28
HETATM   28  C   UNL     1      43.448 -18.327   3.586  1.00  0.00     0.142 A 
HETATM   29  O   UNL     1      43.925 -19.415   4.275  1.00  0.00    -0.317 OA
HETATM   30  C   UNL     1      43.955 -20.456   3.401  1.00  0.00     0.143 A 
HETATM   31  C   UNL     1      43.522 -20.058   2.159  1.00  0.00     0.027 A 
HETATM   32  C   UNL     1      43.192 -18.687   2.278  1.00  0.00     0.045 A 
ENDBRANCH  25  28
ENDBRANCH   5  24
TORSDOF 7
ENDMDL
MODEL 3
REMARK VINA RESULT:      -7.7      2.943      8.500
REMARK  7 active torsions:
REMARK  status: ('A' for Active; 'I' for Inactive)
REMARK    1  A    between atoms: C_2  and  C_3 
REMARK    2  A    between atoms: C_3  and  N_4 
REMARK    3  A    between atoms: C_7  and  C_8 
REMARK    4  A    between atoms: C_8  and  N_9 
REMARK       I    between atoms: N_9  and  C_10 
REMARK       I    between atoms: C_10  and  N_11 
REMARK    5  A    between atoms: N_11  and  C_12 
REMARK    6  A    between atoms: C_16  and  N_17 
REMARK       I    between atoms: N_17  and  C_18 
REMARK    7  A    between atoms: C_18  and  C_19 
ROOT
HETATM    1  C   UNL     1      40.959 -14.992   4.723  1.00  0.00     0.036 A 
HETATM    2  C   UNL     1      40.266 -13.834   4.364  1.00  0.00     0.038 A 
HETATM    3  C   UNL     1      39.801 -13.641   3.046  1.00  0.00    -0.033 A 
HETATM    4  C   UNL     1      39.067 -12.365   2.724  1.00  0.00     0.050 C 
HETATM    5  C   UNL     1      40.014 -14.646   2.080  1.00  0.00     0.041 A 
HETATM    6  C   UNL     1      40.773 -15.766   2.436  1.00  0.00     0.032 A 
HETATM    7  C   UNL     1      41.259 -15.928   3.736  1.00  0.00     0.032 A 
ENDROOT
BRANCH   1   8
HETATM    8  N   UNL     1      41.407 -15.264   6.027  1.00  0.00    -0.309 N 
HETATM    9  C   UNL     1      42.500 -14.835   6.716  1.00  0.00     0.320 C 
HETATM   10  N   UNL     1      43.206 -13.796   6.180  1.00  0.00    -0.342 N 
HETATM   11  O   UNL     1      42.788 -15.347   7.794  1.00  0.00    -0.247 OA
HETATM   12  H   UNL     1      42.642 -13.269   5.522  1.00  0.00     0.164 HD
HETATM   13  H   UNL     1      40.782 -15.808   6.613  1.00  0.00     0.170 HD
BRANCH  10  14
HETATM   14  C   UNL     1      44.151 -12.975   6.918  1.00  0.00     0.130 C 
BRANCH  14  15
HETATM   15  C   UNL     1      44.494 -11.581   6.369  1.00  0.00     0.031 C 
HETATM   16  C   UNL     1      43.606 -10.464   6.899  1.00  0.00     0.241 C 
HETATM   17  N   UNL     1      44.329  -9.914   8.127  1.00  0.00    -0.071 N 
HETATM   18  H   UNL     1      44.463  -8.909   7.950  1.00  0.00     0.279 HD
HETATM   19  C   UNL     1      45.697 -10.558   8.173  1.00  0.00     0.235 C 
HETATM   20  C   UNL     1      45.890 -11.129   6.783  1.00  0.00     0.035 C 
BRANCH  17  21
HETATM   21  C   UNL     1      43.518 -10.042   9.389  1.00  0.00     0.234 C 
BRANCH  21  22
HETATM   22  C   UNL     1      44.431 -10.254  10.590  1.00  0.00     0.023 C 
HETATM   23  C   UNL     1      43.684 -10.937  11.725  1.00  0.00     0.007 C 
ENDBRANCH  21  22
ENDBRANCH  17  21
ENDBRANCH  14  15
ENDBRANCH  10  14
ENDBRANCH   1   8
BRANCH   5  24
HETATM   24  N   UNL     1      39.450 -14.495   0.797  1.00  0.00    -0.321 N 
HETATM   25  C   UNL     1      39.941 -13.769  -0.277  1.00  0.00     0.279 C 
HETATM   26  O   UNL     1      40.958 -13.083  -0.266  1.00  0.00    -0.265 OA
HETATM   27  H   UNL     1      38.632 -15.050   0.568  1.00  0.00     0.169 HD
BRANCH  25  28
HETATM   28  C   UNL     1      39.137 -13.931  -1.475  1.00  0.00     0.142 A 
HETATM   29  O   UNL     1      38.009 -13.164  -1.640  1.00  0.00    -0.317 OA
HETATM   30  C   UNL     1      37.455 -13.523  -2.829  1.00  0.00     0.143 A 
HETATM   31  C   UNL     1      38.194 -14.515  -3.428  1.00  0.00     0.027 A 
HETATM   32  C   UNL     1      39.280 -14.776  -2.558  1.00  0.00     0.045 A 
ENDBRANCH  25  28
ENDBRANCH   5  24
TORSDOF 7
ENDMDL
MODEL 4
REMARK VINA RESULT:      -7.4      4.013      7.813
REMARK  7 active torsions:
REMARK  status: ('A' for Active; 'I' for Inactive)
REMARK    1  A    between atoms: C_2  and  C_3 
REMARK    2  A    between atoms: C_3  and  N_4 
REMARK    3  A    between atoms: C_7  and  C_8 
REMARK    4  A    between atoms: C_8  and  N_9 
REMARK       I    between atoms: N_9  and  C_10 
REMARK       I    between atoms: C_10  and  N_11 
REMARK    5  A    between atoms: N_11  and  C_12 
REMARK    6  A    between atoms: C_16  and  N_17 
REMARK       I    between atoms: N_17  and  C_18 
REMARK    7  A    between atoms: C_18  and  C_19 
ROOT
HETATM    1  C   UNL     1      42.083 -13.014   2.939  1.00  0.00     0.036 A 
HETATM    2  C   UNL     1      41.336 -13.787   3.830  1.00  0.00     0.038 A 
HETATM    3  C   UNL     1      41.608 -15.160   4.010  1.00  0.00    -0.033 A 
HETATM    4  C   UNL     1      40.758 -15.938   4.981  1.00  0.00     0.050 C 
HETATM    5  C   UNL     1      42.671 -15.756   3.301  1.00  0.00     0.041 A 
HETATM    6  C   UNL     1      43.362 -14.987   2.360  1.00  0.00     0.032 A 
HETATM    7  C   UNL     1      43.058 -13.637   2.165  1.00  0.00     0.032 A 
ENDROOT
BRANCH   1   8
HETATM    8  N   UNL     1      41.892 -11.635   2.749  1.00  0.00    -0.309 N 
HETATM    9  C   UNL     1      41.189 -10.940   1.813  1.00  0.00     0.320 C 
HETATM   10  N   UNL     1      40.328 -11.650   1.025  1.00  0.00    -0.342 N 
HETATM   11  O   UNL     1      41.308  -9.720   1.734  1.00  0.00    -0.247 OA
HETATM   12  H   UNL     1      40.080 -12.534   1.455  1.00  0.00     0.164 HD
HETATM   13  H   UNL     1      42.262 -11.024   3.470  1.00  0.00     0.170 HD
BRANCH  10  14
HETATM   14  C   UNL     1      39.251 -11.064   0.246  1.00  0.00     0.130 C 
BRANCH  14  15
HETATM   15  C   UNL     1      39.398 -11.012  -1.284  1.00  0.00     0.031 C 
HETATM   16  C   UNL     1      40.101 -12.220  -1.886  1.00  0.00     0.241 C 
HETATM   17  N   UNL     1      38.990 -13.202  -2.250  1.00  0.00    -0.071 N 
HETATM   18  H   UNL     1      39.097 -13.391  -3.256  1.00  0.00     0.279 HD
HETATM   19  C   UNL     1      37.672 -12.486  -2.055  1.00  0.00     0.235 C 
HETATM   20  C   UNL     1      38.047 -11.020  -1.991  1.00  0.00     0.035 C 
BRANCH  17  21
HETATM   21  C   UNL     1      39.115 -14.519  -1.532  1.00  0.00     0.234 C 
BRANCH  21  22
HETATM   22  C   UNL     1      40.308 -14.499  -0.584  1.00  0.00     0.023 C 
HETATM   23  C   UNL     1      39.997 -15.258   0.696  1.00  0.00     0.007 C 
ENDBRANCH  21  22
ENDBRANCH  17  21
ENDBRANCH  14  15
ENDBRANCH  10  14
ENDBRANCH   1   8
BRANCH   5  24
HETATM   24  N   UNL     1      43.008 -17.099   3.571  1.00  0.00    -0.321 N 
HETATM   25  C   UNL     1      43.896 -17.587   4.516  1.00  0.00     0.279 C 
HETATM   26  O   UNL     1      44.587 -16.904   5.264  1.00  0.00    -0.265 OA
HETATM   27  H   UNL     1      42.483 -17.825   3.096  1.00  0.00     0.169 HD
BRANCH  25  28
HETATM   28  C   UNL     1      43.907 -19.039   4.573  1.00  0.00     0.142 A 
HETATM   29  O   UNL     1      43.921 -19.761   3.404  1.00  0.00    -0.317 OA
HETATM   30  C   UNL     1      43.922 -21.076   3.750  1.00  0.00     0.143 A 
HETATM   31  C   UNL     1      43.894 -21.217   5.117  1.00  0.00     0.027 A 
HETATM   32  C   UNL     1      43.887 -19.905   5.648  1.00  0.00     0.045 A 
ENDBRANCH  25  28
ENDBRANCH   5  24
TORSDOF 7
ENDMDL
MODEL 5
REMARK VINA RESULT:      -7.3      3.104      5.463
REMARK  7 active torsions:
REMARK  status: ('A' for Active; 'I' for Inactive)
REMARK    1  A    between atoms: C_2  and  C_3 
REMARK    2  A    between atoms: C_3  and  N_4 
REMARK    3  A    between atoms: C_7  and  C_8 
REMARK    4  A    between atoms: C_8  and  N_9 
REMARK       I    between atoms: N_9  and  C_10 
REMARK       I    between atoms: C_10  and  N_11 
REMARK    5  A    between atoms: N_11  and  C_12 
REMARK    6  A    between atoms: C_16  and  N_17 
REMARK       I    between atoms: N_17  and  C_18 
REMARK    7  A    between atoms: C_18  and  C_19 
ROOT
HETATM    1  C   UNL     1      43.250 -10.490   7.307  1.00  0.00     0.036 A 
HETATM    2  C   UNL     1      44.269 -10.577   8.258  1.00  0.00     0.038 A 
HETATM    3  C   UNL     1      44.150  -9.943   9.513  1.00  0.00    -0.033 A 
HETATM    4  C   UNL     1      45.289 -10.070  10.491  1.00  0.00     0.050 C 
HETATM    5  C   UNL     1      42.972  -9.233   9.824  1.00  0.00     0.041 A 
HETATM    6  C   UNL     1      41.994  -9.094   8.835  1.00  0.00     0.032 A 
HETATM    7  C   UNL     1      42.140  -9.696   7.582  1.00  0.00     0.032 A 
ENDROOT
BRANCH   1   8
HETATM    8  N   UNL     1      43.288 -11.134   6.058  1.00  0.00    -0.309 N 
HETATM    9  C   UNL     1      42.887 -12.375   5.668  1.00  0.00     0.320 C 
HETATM   10  N   UNL     1      42.113 -13.084   6.544  1.00  0.00    -0.342 N 
HETATM   11  O   UNL     1      43.181 -12.795   4.552  1.00  0.00    -0.247 OA
HETATM   12  H   UNL     1      41.668 -12.473   7.219  1.00  0.00     0.164 HD
HETATM   13  H   UNL     1      43.585 -10.570   5.268  1.00  0.00     0.170 HD
BRANCH  10  14
HETATM   14  C   UNL     1      41.302 -14.233   6.181  1.00  0.00     0.130 C 
BRANCH  14  15
HETATM   15  C   UNL     1      41.655 -15.599   6.792  1.00  0.00     0.031 C 
HETATM   16  C   UNL     1      41.755 -16.731   5.779  1.00  0.00     0.241 C 
HETATM   17  N   UNL     1      43.225 -16.784   5.368  1.00  0.00    -0.071 N 
HETATM   18  H   UNL     1      43.541 -17.742   5.572  1.00  0.00     0.279 HD
HETATM   19  C   UNL     1      43.984 -15.847   6.281  1.00  0.00     0.235 C 
HETATM   20  C   UNL     1      43.037 -15.599   7.437  1.00  0.00     0.035 C 
BRANCH  17  21
HETATM   21  C   UNL     1      43.429 -16.549   3.895  1.00  0.00     0.234 C 
BRANCH  21  22
HETATM   22  C   UNL     1      43.504 -17.875   3.149  1.00  0.00     0.023 C 
HETATM   23  C   UNL     1      44.358 -18.878   3.910  1.00  0.00     0.007 C 
ENDBRANCH  21  22
ENDBRANCH  17  21
ENDBRANCH  14  15
ENDBRANCH  10  14
ENDBRANCH   1   8
BRANCH   5  24
HETATM   24  N   UNL     1      42.815  -8.698  11.120  1.00  0.00    -0.321 N 
HETATM   25  C   UNL     1      41.999  -9.154  12.143  1.00  0.00     0.279 C 
HETATM   26  O   UNL     1      41.224 -10.102  12.066  1.00  0.00    -0.265 OA
HETATM   27  H   UNL     1      43.431  -7.944  11.401  1.00  0.00     0.169 HD
BRANCH  25  28
HETATM   28  C   UNL     1      42.179  -8.407  13.376  1.00  0.00     0.142 A 
HETATM   29  O   UNL     1      41.311  -8.609  14.421  1.00  0.00    -0.317 OA
HETATM   30  C   UNL     1      41.706  -7.787  15.429  1.00  0.00     0.143 A 
HETATM   31  C   UNL     1      42.803  -7.049  15.051  1.00  0.00     0.027 A 
HETATM   32  C   UNL     1      43.110  -7.450  13.729  1.00  0.00     0.045 A 
ENDBRANCH  25  28
ENDBRANCH   5  24
TORSDOF 7
ENDMDL
MODEL 6
REMARK VINA RESULT:      -7.3      4.400      8.423
REMARK  7 active torsions:
REMARK  status: ('A' for Active; 'I' for Inactive)
REMARK    1  A    between atoms: C_2  and  C_3 
REMARK    2  A    between atoms: C_3  and  N_4 
REMARK    3  A    between atoms: C_7  and  C_8 
REMARK    4  A    between atoms: C_8  and  N_9 
REMARK       I    between atoms: N_9  and  C_10 
REMARK       I    between atoms: C_10  and  N_11 
REMARK    5  A    between atoms: N_11  and  C_12 
REMARK    6  A    between atoms: C_16  and  N_17 
REMARK       I    between atoms: N_17  and  C_18 
REMARK    7  A    between atoms: C_18  and  C_19 
ROOT
HETATM    1  C   UNL     1      41.462 -12.384   2.176  1.00  0.00     0.036 A 
HETATM    2  C   UNL     1      40.591 -13.432   1.873  1.00  0.00     0.038 A 
HETATM    3  C   UNL     1      41.030 -14.773   1.891  1.00  0.00    -0.033 A 
HETATM    4  C   UNL     1      40.040 -15.856   1.547  1.00  0.00     0.050 C 
HETATM    5  C   UNL     1      42.363 -15.063   2.248  1.00  0.00     0.041 A 
HETATM    6  C   UNL     1      43.241 -14.000   2.477  1.00  0.00     0.032 A 
HETATM    7  C   UNL     1      42.802 -12.674   2.420  1.00  0.00     0.032 A 
ENDROOT
BRANCH   1   8
HETATM    8  N   UNL     1      41.077 -11.033   2.220  1.00  0.00    -0.309 N 
HETATM    9  C   UNL     1      41.057 -10.066   1.263  1.00  0.00     0.320 C 
HETATM   10  N   UNL     1      41.226 -10.468  -0.032  1.00  0.00    -0.342 N 
HETATM   11  O   UNL     1      40.846  -8.897   1.573  1.00  0.00    -0.247 OA
HETATM   12  H   UNL     1      41.013 -11.453  -0.143  1.00  0.00     0.164 HD
HETATM   13  H   UNL     1      40.654 -10.713   3.086  1.00  0.00     0.170 HD
BRANCH  10  14
HETATM   14  C   UNL     1      40.878  -9.668  -1.195  1.00  0.00     0.130 C 
BRANCH  14  15
HETATM   15  C   UNL     1      40.969 -10.319  -2.584  1.00  0.00     0.031 C 
HETATM   16  C   UNL     1      40.984 -11.841  -2.562  1.00  0.00     0.241 C 
HETATM   17  N   UNL     1      39.525 -12.268  -2.703  1.00  0.00    -0.071 N 
HETATM   18  H   UNL     1      39.488 -12.878  -3.531  1.00  0.00     0.279 HD
HETATM   19  C   UNL     1      38.718 -11.027  -3.010  1.00  0.00     0.235 C 
HETATM   20  C   UNL     1      39.749 -10.006  -3.445  1.00  0.00     0.035 C 
BRANCH  17  21
HETATM   21  C   UNL     1      39.037 -13.076  -1.529  1.00  0.00     0.234 C 
BRANCH  21  22
HETATM   22  C   UNL     1      39.172 -14.566  -1.815  1.00  0.00     0.023 C 
HETATM   23  C   UNL     1      38.507 -14.928  -3.133  1.00  0.00     0.007 C 
ENDBRANCH  21  22
ENDBRANCH  17  21
ENDBRANCH  14  15
ENDBRANCH  10  14
ENDBRANCH   1   8
BRANCH   5  24
HETATM   24  N   UNL     1      42.762 -16.410   2.372  1.00  0.00    -0.321 N 
HETATM   25  C   UNL     1      43.286 -17.051   3.484  1.00  0.00     0.279 C 
HETATM   26  O   UNL     1      43.535 -16.518   4.561  1.00  0.00    -0.265 OA
HETATM   27  H   UNL     1      42.567 -17.038   1.600  1.00  0.00     0.169 HD
BRANCH  25  28
HETATM   28  C   UNL     1      43.483 -18.474   3.267  1.00  0.00     0.142 A 
HETATM   29  O   UNL     1      43.911 -19.263   4.307  1.00  0.00    -0.317 OA
HETATM   30  C   UNL     1      44.015 -20.530   3.828  1.00  0.00     0.143 A 
HETATM   31  C   UNL     1      43.676 -20.573   2.496  1.00  0.00     0.027 A 
HETATM   32  C   UNL     1      43.330 -19.249   2.135  1.00  0.00     0.045 A 
ENDBRANCH  25  28
ENDBRANCH   5  24
TORSDOF 7
ENDMDL
MODEL 7
REMARK VINA RESULT:      -7.3      3.575      6.463
REMARK  7 active torsions:
REMARK  status: ('A' for Active; 'I' for Inactive)
REMARK    1  A    between atoms: C_2  and  C_3 
REMARK    2  A    between atoms: C_3  and  N_4 
REMARK    3  A    between atoms: C_7  and  C_8 
REMARK    4  A    between atoms: C_8  and  N_9 
REMARK       I    between atoms: N_9  and  C_10 
REMARK       I    between atoms: C_10  and  N_11 
REMARK    5  A    between atoms: N_11  and  C_12 
REMARK    6  A    between atoms: C_16  and  N_17 
REMARK       I    between atoms: N_17  and  C_18 
REMARK    7  A    between atoms: C_18  and  C_19 
ROOT
HETATM    1  C   UNL     1      44.567  -9.858   8.473  1.00  0.00     0.036 A 
HETATM    2  C   UNL     1      43.307  -9.266   8.583  1.00  0.00     0.038 A 
HETATM    3  C   UNL     1      42.805  -8.847   9.833  1.00  0.00    -0.033 A 
HETATM    4  C   UNL     1      41.435  -8.222   9.883  1.00  0.00     0.050 C 
HETATM    5  C   UNL     1      43.600  -9.001  10.988  1.00  0.00     0.041 A 
HETATM    6  C   UNL     1      44.827  -9.662  10.872  1.00  0.00     0.032 A 
HETATM    7  C   UNL     1      45.296 -10.105   9.633  1.00  0.00     0.032 A 
ENDROOT
BRANCH   1   8
HETATM    8  N   UNL     1      45.141 -10.255   7.253  1.00  0.00    -0.309 N 
HETATM    9  C   UNL     1      45.168 -11.457   6.614  1.00  0.00     0.320 C 
HETATM   10  N   UNL     1      44.331 -12.431   7.083  1.00  0.00    -0.342 N 
HETATM   11  O   UNL     1      45.887 -11.617   5.633  1.00  0.00    -0.247 OA
HETATM   12  H   UNL     1      43.570 -12.033   7.623  1.00  0.00     0.164 HD
HETATM   13  H   UNL     1      45.543  -9.518   6.683  1.00  0.00     0.170 HD
BRANCH  10  14
HETATM   14  C   UNL     1      43.950 -13.618   6.337  1.00  0.00     0.130 C 
BRANCH  14  15
HETATM   15  C   UNL     1      42.714 -14.407   6.799  1.00  0.00     0.031 C 
HETATM   16  C   UNL     1      42.136 -15.338   5.743  1.00  0.00     0.241 C 
HETATM   17  N   UNL     1      42.808 -16.689   5.973  1.00  0.00    -0.071 N 
HETATM   18  H   UNL     1      42.046 -17.363   6.124  1.00  0.00     0.279 HD
HETATM   19  C   UNL     1      43.594 -16.589   7.262  1.00  0.00     0.235 C 
HETATM   20  C   UNL     1      43.037 -15.358   7.947  1.00  0.00     0.035 C 
BRANCH  17  21
HETATM   21  C   UNL     1      43.594 -17.162   4.779  1.00  0.00     0.234 C 
BRANCH  21  22
HETATM   22  C   UNL     1      43.224 -16.353   3.542  1.00  0.00     0.023 C 
HETATM   23  C   UNL     1      42.726 -17.261   2.429  1.00  0.00     0.007 C 
ENDBRANCH  21  22
ENDBRANCH  17  21
ENDBRANCH  14  15
ENDBRANCH  10  14
ENDBRANCH   1   8
BRANCH   5  24
HETATM   24  N   UNL     1      43.138  -8.478  12.214  1.00  0.00    -0.321 N 
HETATM   25  C   UNL     1      42.329  -9.091  13.158  1.00  0.00     0.279 C 
HETATM   26  O   UNL     1      41.834 -10.208  13.052  1.00  0.00    -0.265 OA
HETATM   27  H   UNL     1      43.501  -7.581  12.515  1.00  0.00     0.169 HD
BRANCH  25  28
HETATM   28  C   UNL     1      42.146  -8.279  14.348  1.00  0.00     0.142 A 
HETATM   29  O   UNL     1      41.171  -8.619  15.254  1.00  0.00    -0.317 OA
HETATM   30  C   UNL     1      41.218  -7.697  16.252  1.00  0.00     0.143 A 
HETATM   31  C   UNL     1      42.193  -6.761  16.001  1.00  0.00     0.027 A 
HETATM   32  C   UNL     1      42.794  -7.137  14.776  1.00  0.00     0.045 A 
ENDBRANCH  25  28
ENDBRANCH   5  24
TORSDOF 7
ENDMDL
MODEL 8
REMARK VINA RESULT:      -7.3      2.727      7.175
REMARK  7 active torsions:
REMARK  status: ('A' for Active; 'I' for Inactive)
REMARK    1  A    between atoms: C_2  and  C_3 
REMARK    2  A    between atoms: C_3  and  N_4 
REMARK    3  A    between atoms: C_7  and  C_8 
REMARK    4  A    between atoms: C_8  and  N_9 
REMARK       I    between atoms: N_9  and  C_10 
REMARK       I    between atoms: C_10  and  N_11 
REMARK    5  A    between atoms: N_11  and  C_12 
REMARK    6  A    between atoms: C_16  and  N_17 
REMARK       I    between atoms: N_17  and  C_18 
REMARK    7  A    between atoms: C_18  and  C_19 
ROOT
HETATM    1  C   UNL     1      42.536 -11.871   4.479  1.00  0.00     0.036 A 
HETATM    2  C   UNL     1      41.169 -11.593   4.418  1.00  0.00     0.038 A 
HETATM    3  C   UNL     1      40.447 -11.741   3.215  1.00  0.00    -0.033 A 
HETATM    4  C   UNL     1      38.976 -11.417   3.217  1.00  0.00     0.050 C 
HETATM    5  C   UNL     1      41.110 -12.205   2.060  1.00  0.00     0.041 A 
HETATM    6  C   UNL     1      42.493 -12.409   2.118  1.00  0.00     0.032 A 
HETATM    7  C   UNL     1      43.202 -12.223   3.308  1.00  0.00     0.032 A 
ENDROOT
BRANCH   1   8
HETATM    8  N   UNL     1      43.301 -11.788   5.655  1.00  0.00    -0.309 N 
HETATM    9  C   UNL     1      43.365 -12.592   6.752  1.00  0.00     0.320 C 
HETATM   10  N   UNL     1      42.768 -13.817   6.662  1.00  0.00    -0.342 N 
HETATM   11  O   UNL     1      43.982 -12.225   7.748  1.00  0.00    -0.247 OA
HETATM   12  H   UNL     1      42.646 -14.097   5.695  1.00  0.00     0.164 HD
HETATM   13  H   UNL     1      44.000 -11.053   5.686  1.00  0.00     0.170 HD
BRANCH  10  14
HETATM   14  C   UNL     1      43.035 -14.931   7.557  1.00  0.00     0.130 C 
BRANCH  14  15
HETATM   15  C   UNL     1      42.483 -16.317   7.184  1.00  0.00     0.031 C 
HETATM   16  C   UNL     1      41.805 -16.375   5.823  1.00  0.00     0.241 C 
HETATM   17  N   UNL     1      42.896 -16.791   4.839  1.00  0.00    -0.071 N 
HETATM   18  H   UNL     1      42.552 -17.645   4.379  1.00  0.00     0.279 HD
HETATM   19  C   UNL     1      44.117 -17.167   5.649  1.00  0.00     0.235 C 
HETATM   20  C   UNL     1      43.589 -17.359   7.056  1.00  0.00     0.035 C 
BRANCH  17  21
HETATM   21  C   UNL     1      43.133 -15.766   3.761  1.00  0.00     0.234 C 
BRANCH  21  22
HETATM   22  C   UNL     1      43.329 -16.447   2.412  1.00  0.00     0.023 C 
HETATM   23  C   UNL     1      42.610 -17.786   2.371  1.00  0.00     0.007 C 
ENDBRANCH  21  22
ENDBRANCH  17  21
ENDBRANCH  14  15
ENDBRANCH  10  14
ENDBRANCH   1   8
BRANCH   5  24
HETATM   24  N   UNL     1      40.360 -12.457   0.893  1.00  0.00    -0.321 N 
HETATM   25  C   UNL     1      40.251 -13.642   0.182  1.00  0.00     0.279 C 
HETATM   26  O   UNL     1      40.845 -14.684   0.440  1.00  0.00    -0.265 OA
HETATM   27  H   UNL     1      39.738 -11.729   0.560  1.00  0.00     0.169 HD
BRANCH  25  28
HETATM   28  C   UNL     1      39.302 -13.550  -0.914  1.00  0.00     0.142 A 
HETATM   29  O   UNL     1      38.503 -12.438  -1.023  1.00  0.00    -0.317 OA
HETATM   30  C   UNL     1      37.719 -12.618  -2.119  1.00  0.00     0.143 A 
HETATM   31  C   UNL     1      37.985 -13.830  -2.711  1.00  0.00     0.027 A 
HETATM   32  C   UNL     1      39.007 -14.430  -1.937  1.00  0.00     0.045 A 
ENDBRANCH  25  28
ENDBRANCH   5  24
TORSDOF 7
ENDMDL
MODEL 9
REMARK VINA RESULT:      -7.2      2.517      8.130
REMARK  7 active torsions:
REMARK  status: ('A' for Active; 'I' for Inactive)
REMARK    1  A    between atoms: C_2  and  C_3 
REMARK    2  A    between atoms: C_3  and  N_4 
REMARK    3  A    between atoms: C_7  and  C_8 
REMARK    4  A    between atoms: C_8  and  N_9 
REMARK       I    between atoms: N_9  and  C_10 
REMARK       I    between atoms: C_10  and  N_11 
REMARK    5  A    between atoms: N_11  and  C_12 
REMARK    6  A    between atoms: C_16  and  N_17 
REMARK       I    between atoms: N_17  and  C_18 
REMARK    7  A    between atoms: C_18  and  C_19 
ROOT
HETATM    1  C   UNL     1      40.717 -12.842   4.966  1.00  0.00     0.036 A 
HETATM    2  C   UNL     1      41.622 -12.922   3.906  1.00  0.00     0.038 A 
HETATM    3  C   UNL     1      42.190 -14.156   3.524  1.00  0.00    -0.033 A 
HETATM    4  C   UNL     1      43.165 -14.172   2.376  1.00  0.00     0.050 C 
HETATM    5  C   UNL     1      41.816 -15.333   4.205  1.00  0.00     0.041 A 
HETATM    6  C   UNL     1      40.967 -15.226   5.310  1.00  0.00     0.032 A 
HETATM    7  C   UNL     1      40.440 -13.992   5.701  1.00  0.00     0.032 A 
ENDROOT
BRANCH   1   8
HETATM    8  N   UNL     1      40.083 -11.653   5.367  1.00  0.00    -0.309 N 
HETATM    9  C   UNL     1      40.365 -10.768   6.361  1.00  0.00     0.320 C 
HETATM   10  N   UNL     1      41.580 -10.886   6.975  1.00  0.00    -0.342 N 
HETATM   11  O   UNL     1      39.563  -9.882   6.643  1.00  0.00    -0.247 OA
HETATM   12  H   UNL     1      42.238 -11.394   6.394  1.00  0.00     0.164 HD
HETATM   13  H   UNL     1      39.326 -11.325   4.775  1.00  0.00     0.170 HD
BRANCH  10  14
HETATM   14  C   UNL     1      42.202  -9.845   7.776  1.00  0.00     0.130 C 
BRANCH  14  15
HETATM   15  C   UNL     1      43.675  -9.497   7.507  1.00  0.00     0.031 C 
HETATM   16  C   UNL     1      44.273  -8.501   8.490  1.00  0.00     0.241 C 
HETATM   17  N   UNL     1      44.906  -9.345   9.595  1.00  0.00    -0.071 N 
HETATM   18  H   UNL     1      45.895  -9.064   9.634  1.00  0.00     0.279 HD
HETATM   19  C   UNL     1      44.856 -10.789   9.146  1.00  0.00     0.235 C 
HETATM   20  C   UNL     1      44.588 -10.710   7.657  1.00  0.00     0.035 C 
BRANCH  17  21
HETATM   21  C   UNL     1      44.310  -9.075  10.951  1.00  0.00     0.234 C 
BRANCH  21  22
HETATM   22  C   UNL     1      43.497 -10.273  11.424  1.00  0.00     0.023 C 
HETATM   23  C   UNL     1      42.029  -9.906  11.579  1.00  0.00     0.007 C 
ENDBRANCH  21  22
ENDBRANCH  17  21
ENDBRANCH  14  15
ENDBRANCH  10  14
ENDBRANCH   1   8
BRANCH   5  24
HETATM   24  N   UNL     1      42.301 -16.575   3.745  1.00  0.00    -0.321 N 
HETATM   25  C   UNL     1      43.394 -17.293   4.205  1.00  0.00     0.279 C 
HETATM   26  O   UNL     1      44.164 -16.929   5.088  1.00  0.00    -0.265 OA
HETATM   27  H   UNL     1      41.750 -17.076   3.056  1.00  0.00     0.169 HD
BRANCH  25  28
HETATM   28  C   UNL     1      43.527 -18.585   3.554  1.00  0.00     0.142 A 
HETATM   29  O   UNL     1      43.964 -19.666   4.281  1.00  0.00    -0.317 OA
HETATM   30  C   UNL     1      44.000 -20.727   3.433  1.00  0.00     0.143 A 
HETATM   31  C   UNL     1      43.608 -20.351   2.170  1.00  0.00     0.027 A 
HETATM   32  C   UNL     1      43.300 -18.971   2.248  1.00  0.00     0.045 A 
ENDBRANCH  25  28
ENDBRANCH   5  24
TORSDOF 7
ENDMDL
MODEL 10
REMARK VINA RESULT:      -7.2      2.879      8.817
REMARK  7 active torsions:
REMARK  status: ('A' for Active; 'I' for Inactive)
REMARK    1  A    between atoms: C_2  and  C_3 
REMARK    2  A    between atoms: C_3  and  N_4 
REMARK    3  A    between atoms: C_7  and  C_8 
REMARK    4  A    between atoms: C_8  and  N_9 
REMARK       I    between atoms: N_9  and  C_10 
REMARK       I    between atoms: C_10  and  N_11 
REMARK    5  A    between atoms: N_11  and  C_12 
REMARK    6  A    between atoms: C_16  and  N_17 
REMARK       I    between atoms: N_17  and  C_18 
REMARK    7  A    between atoms: C_18  and  C_19 
ROOT
HETATM    1  C   UNL     1      41.693 -10.073   7.106  1.00  0.00     0.036 A 
HETATM    2  C   UNL     1      42.963 -10.651   7.169  1.00  0.00     0.038 A 
HETATM    3  C   UNL     1      43.263 -11.832   6.457  1.00  0.00    -0.033 A 
HETATM    4  C   UNL     1      44.650 -12.407   6.575  1.00  0.00     0.050 C 
HETATM    5  C   UNL     1      42.273 -12.423   5.644  1.00  0.00     0.041 A 
HETATM    6  C   UNL     1      40.987 -11.874   5.649  1.00  0.00     0.032 A 
HETATM    7  C   UNL     1      40.693 -10.725   6.388  1.00  0.00     0.032 A 
ENDROOT
BRANCH   1   8
HETATM    8  N   UNL     1      41.345  -8.876   7.755  1.00  0.00    -0.309 N 
HETATM    9  C   UNL     1      40.859  -8.631   9.003  1.00  0.00     0.320 C 
HETATM   10  N   UNL     1      40.896  -9.662   9.899  1.00  0.00    -0.342 N 
HETATM   11  O   UNL     1      40.456  -7.509   9.297  1.00  0.00    -0.247 OA
HETATM   12  H   UNL     1      41.575 -10.363   9.626  1.00  0.00     0.164 HD
HETATM   13  H   UNL     1      41.562  -8.016   7.260  1.00  0.00     0.170 HD
BRANCH  10  14
HETATM   14  C   UNL     1      40.774  -9.505  11.339  1.00  0.00     0.130 C 
BRANCH  14  15
HETATM   15  C   UNL     1      41.894 -10.063  12.232  1.00  0.00     0.031 C 
HETATM   16  C   UNL     1      43.132 -10.518  11.472  1.00  0.00     0.241 C 
HETATM   17  N   UNL     1      44.063  -9.308  11.442  1.00  0.00    -0.071 N 
HETATM   18  H   UNL     1      44.946  -9.619  11.870  1.00  0.00     0.279 HD
HETATM   19  C   UNL     1      43.463  -8.253  12.345  1.00  0.00     0.235 C 
HETATM   20  C   UNL     1      42.450  -9.007  13.181  1.00  0.00     0.035 C 
BRANCH  17  21
HETATM   21  C   UNL     1      44.381  -8.849  10.044  1.00  0.00     0.234 C 
BRANCH  21  22
HETATM   22  C   UNL     1      45.511  -9.683   9.453  1.00  0.00     0.023 C 
HETATM   23  C   UNL     1      46.079  -9.020   8.208  1.00  0.00     0.007 C 
ENDBRANCH  21  22
ENDBRANCH  17  21
ENDBRANCH  14  15
ENDBRANCH  10  14
ENDBRANCH   1   8
BRANCH   5  24
HETATM   24  N   UNL     1      42.614 -13.536   4.849  1.00  0.00    -0.321 N 
HETATM   25  C   UNL     1      42.341 -14.875   5.084  1.00  0.00     0.279 C 
HETATM   26  O   UNL     1      41.778 -15.322   6.078  1.00  0.00    -0.265 OA
HETATM   27  H   UNL     1      43.028 -13.363   3.939  1.00  0.00     0.169 HD
BRANCH  25  28
HETATM   28  C   UNL     1      42.759 -15.731   3.988  1.00  0.00     0.142 A 
HETATM   29  O   UNL     1      42.938 -15.189   2.738  1.00  0.00    -0.317 OA
HETATM   30  C   UNL     1      43.319 -16.203   1.917  1.00  0.00     0.143 A 
HETATM   31  C   UNL     1      43.375 -17.390   2.607  1.00  0.00     0.027 A 
HETATM   32  C   UNL     1      43.018 -17.087   3.942  1.00  0.00     0.045 A 
ENDBRANCH  25  28
ENDBRANCH   5  24
TORSDOF 7
ENDMDL
