MODEL 1
REMARK VINA RESULT:      -9.0      0.000      0.000
REMARK  5 active torsions:
REMARK  status: ('A' for Active; 'I' for Inactive)
REMARK    1  A    between atoms: C_8  and  C_9 
REMARK    2  A    between atoms: C_9  and  N_10 
REMARK    3  A    between atoms: N_13  and  C_15 
REMARK    4  A    between atoms: C_15  and  C_16 
REMARK    5  A    between atoms: C_19  and  C_20 
ROOT
HETATM    1  N   UNL     1      42.233 -13.205   3.260  1.00  0.00    -0.405 N 
HETATM    2  C   UNL     1      43.086 -12.633   4.310  1.00  0.00     0.150 C 
HETATM    3  C   UNL     1      42.466 -12.170   5.662  1.00  0.00     0.206 C 
HETATM    4  N   UNL     1      42.243 -13.322   6.641  1.00  0.00    -0.059 N 
HETATM    5  H   UNL     1      41.894 -12.859   7.492  1.00  0.00     0.280 HD
HETATM    6  C   UNL     1      41.157 -14.284   6.233  1.00  0.00     0.242 C 
HETATM    7  C   UNL     1      40.397 -13.811   4.992  1.00  0.00     0.029 C 
HETATM    8  C   UNL     1      41.174 -14.118   3.695  1.00  0.00     0.123 C 
HETATM    9  C   UNL     1      41.134 -11.429   5.516  1.00  0.00     0.035 C 
HETATM   10  C   UNL     1      39.979 -12.344   5.114  1.00  0.00     0.010 C 
ENDROOT
BRANCH   4  11
HETATM   11  C   UNL     1      43.497 -14.049   7.131  1.00  0.00     0.302 C 
BRANCH  11  12
HETATM   12  C   UNL     1      43.601 -15.440   6.651  1.00  0.00     0.107 A 
HETATM   13  O   UNL     1      43.385 -16.395   7.590  1.00  0.00    -0.216 OA
HETATM   14  N   UNL     1      43.379 -17.630   6.998  1.00  0.00    -0.128 NA
HETATM   15  C   UNL     1      43.665 -17.442   5.698  1.00  0.00     0.097 A 
HETATM   16  C   UNL     1      43.820 -16.048   5.440  1.00  0.00     0.071 A 
BRANCH  15  17
HETATM   17  C   UNL     1      43.738 -18.554   4.752  1.00  0.00    -0.005 A 
HETATM   18  C   UNL     1      43.946 -19.866   5.212  1.00  0.00     0.014 A 
HETATM   19  C   UNL     1      43.989 -20.937   4.317  1.00  0.00     0.001 A 
HETATM   20  C   UNL     1      43.831 -20.711   2.951  1.00  0.00     0.000 A 
HETATM   21  C   UNL     1      43.635 -19.415   2.480  1.00  0.00     0.001 A 
HETATM   22  C   UNL     1      43.588 -18.342   3.374  1.00  0.00     0.014 A 
ENDBRANCH  15  17
ENDBRANCH  11  12
ENDBRANCH   4  11
BRANCH   1  23
HETATM   23  C   UNL     1      41.806 -12.241   2.223  1.00  0.00     0.176 C 
BRANCH  23  24
HETATM   24  C   UNL     1      40.855 -12.830   1.226  1.00  0.00     0.050 A 
HETATM   25  C   UNL     1      39.497 -12.649   1.019  1.00  0.00     0.030 A 
HETATM   26  C   UNL     1      38.502 -11.804   1.704  1.00  0.00     0.070 C 
HETATM   27  N   UNL     1      39.165 -13.486  -0.039  1.00  0.00    -0.354 N 
HETATM   28  H   UNL     1      38.228 -13.592  -0.427  1.00  0.00     0.166 HD
HETATM   29  C   UNL     1      40.226 -14.167  -0.475  1.00  0.00     0.180 A 
HETATM   30  N   UNL     1      41.253 -13.767   0.275  1.00  0.00    -0.353 N 
HETATM   31  H   UNL     1      42.209 -14.108   0.192  1.00  0.00     0.166 HD
ENDBRANCH  23  24
ENDBRANCH   1  23
TORSDOF 5
ENDMDL
MODEL 2
REMARK VINA RESULT:      -8.9      2.318      3.386
REMARK  5 active torsions:
REMARK  status: ('A' for Active; 'I' for Inactive)
REMARK    1  A    between atoms: C_8  and  C_9 
REMARK    2  A    between atoms: C_9  and  N_10 
REMARK    3  A    between atoms: N_13  and  C_15 
REMARK    4  A    between atoms: C_15  and  C_16 
REMARK    5  A    between atoms: C_19  and  C_20 
ROOT
HETATM    1  N   UNL     1      40.127 -12.825   0.674  1.00  0.00    -0.405 N 
HETATM    2  C   UNL     1      41.335 -12.066   1.029  1.00  0.00     0.150 C 
HETATM    3  C   UNL     1      41.450 -11.376   2.421  1.00  0.00     0.206 C 
HETATM    4  N   UNL     1      41.876 -12.338   3.529  1.00  0.00    -0.059 N 
HETATM    5  H   UNL     1      41.965 -11.735   4.360  1.00  0.00     0.280 HD
HETATM    6  C   UNL     1      40.837 -13.368   3.892  1.00  0.00     0.242 C 
HETATM    7  C   UNL     1      39.507 -13.131   3.175  1.00  0.00     0.029 C 
HETATM    8  C   UNL     1      39.538 -13.656   1.725  1.00  0.00     0.123 C 
HETATM    9  C   UNL     1      40.163 -10.687   2.883  1.00  0.00     0.035 C 
HETATM   10  C   UNL     1      39.063 -11.670   3.280  1.00  0.00     0.010 C 
ENDROOT
BRANCH   4  11
HETATM   11  C   UNL     1      43.270 -12.954   3.395  1.00  0.00     0.302 C 
BRANCH  11  12
HETATM   12  C   UNL     1      43.253 -14.399   3.101  1.00  0.00     0.107 A 
HETATM   13  O   UNL     1      43.218 -14.723   1.784  1.00  0.00    -0.216 OA
HETATM   14  N   UNL     1      43.339 -16.080   1.639  1.00  0.00    -0.128 NA
HETATM   15  C   UNL     1      43.374 -16.603   2.877  1.00  0.00     0.097 A 
HETATM   16  C   UNL     1      43.315 -15.554   3.842  1.00  0.00     0.071 A 
BRANCH  15  17
HETATM   17  C   UNL     1      43.504 -18.042   3.108  1.00  0.00    -0.005 A 
HETATM   18  C   UNL     1      43.143 -18.956   2.105  1.00  0.00     0.014 A 
HETATM   19  C   UNL     1      43.291 -20.330   2.306  1.00  0.00     0.001 A 
HETATM   20  C   UNL     1      43.795 -20.807   3.514  1.00  0.00     0.000 A 
HETATM   21  C   UNL     1      44.147 -19.913   4.521  1.00  0.00     0.001 A 
HETATM   22  C   UNL     1      44.004 -18.537   4.320  1.00  0.00     0.014 A 
ENDBRANCH  15  17
ENDBRANCH  11  12
ENDBRANCH   4  11
BRANCH   1  23
HETATM   23  C   UNL     1      39.137 -12.064  -0.117  1.00  0.00     0.176 C 
BRANCH  23  24
HETATM   24  C   UNL     1      38.812 -12.709  -1.431  1.00  0.00     0.050 A 
HETATM   25  C   UNL     1      39.542 -12.854  -2.599  1.00  0.00     0.030 A 
HETATM   26  C   UNL     1      40.906 -12.432  -2.965  1.00  0.00     0.070 C 
HETATM   27  N   UNL     1      38.703 -13.519  -3.485  1.00  0.00    -0.354 N 
HETATM   28  H   UNL     1      38.945 -13.767  -4.443  1.00  0.00     0.166 HD
HETATM   29  C   UNL     1      37.514 -13.773  -2.933  1.00  0.00     0.180 A 
HETATM   30  N   UNL     1      37.577 -13.299  -1.690  1.00  0.00    -0.353 N 
HETATM   31  H   UNL     1      36.820 -13.334  -1.009  1.00  0.00     0.166 HD
ENDBRANCH  23  24
ENDBRANCH   1  23
TORSDOF 5
ENDMDL
MODEL 3
REMARK VINA RESULT:      -8.4      2.739      6.208
REMARK  5 active torsions:
REMARK  status: ('A' for Active; 'I' for Inactive)
REMARK    1  A    between atoms: C_8  and  C_9 
REMARK    2  A    between atoms: C_9  and  N_10 
REMARK    3  A    between atoms: N_13  and  C_15 
REMARK    4  A    between atoms: C_15  and  C_16 
REMARK    5  A    between atoms: C_19  and  C_20 
ROOT
HETATM    1  N   UNL     1      40.714 -14.329   1.547  1.00  0.00    -0.405 N 
HETATM    2  C   UNL     1      40.224 -15.109   2.692  1.00  0.00     0.150 C 
HETATM    3  C   UNL     1      41.127 -16.195   3.349  1.00  0.00     0.206 C 
HETATM    4  N   UNL     1      42.139 -15.612   4.335  1.00  0.00    -0.059 N 
HETATM    5  H   UNL     1      42.611 -16.441   4.725  1.00  0.00     0.280 HD
HETATM    6  C   UNL     1      43.230 -14.792   3.696  1.00  0.00     0.242 C 
HETATM    7  C   UNL     1      43.180 -14.848   2.168  1.00  0.00     0.029 C 
HETATM    8  C   UNL     1      42.112 -13.895   1.596  1.00  0.00     0.123 C 
HETATM    9  C   UNL     1      41.907 -17.048   2.345  1.00  0.00     0.035 C 
HETATM   10  C   UNL     1      43.042 -16.286   1.662  1.00  0.00     0.010 C 
ENDROOT
BRANCH   4  11
HETATM   11  C   UNL     1      41.560 -14.927   5.575  1.00  0.00     0.302 C 
BRANCH  11  12
HETATM   12  C   UNL     1      42.187 -13.627   5.880  1.00  0.00     0.107 A 
HETATM   13  O   UNL     1      41.516 -12.539   5.429  1.00  0.00    -0.216 OA
HETATM   14  N   UNL     1      42.123 -11.399   5.885  1.00  0.00    -0.128 NA
HETATM   15  C   UNL     1      43.220 -11.785   6.561  1.00  0.00     0.097 A 
HETATM   16  C   UNL     1      43.296 -13.210   6.574  1.00  0.00     0.071 A 
BRANCH  15  17
HETATM   17  C   UNL     1      44.117 -10.822   7.198  1.00  0.00    -0.005 A 
HETATM   18  C   UNL     1      43.599  -9.679   7.829  1.00  0.00     0.014 A 
HETATM   19  C   UNL     1      44.446  -8.769   8.464  1.00  0.00     0.001 A 
HETATM   20  C   UNL     1      45.823  -8.987   8.472  1.00  0.00     0.000 A 
HETATM   21  C   UNL     1      46.352 -10.110   7.842  1.00  0.00     0.001 A 
HETATM   22  C   UNL     1      45.505 -11.024   7.209  1.00  0.00     0.014 A 
ENDBRANCH  15  17
ENDBRANCH  11  12
ENDBRANCH   4  11
BRANCH   1  23
HETATM   23  C   UNL     1      40.290 -14.845   0.228  1.00  0.00     0.176 C 
BRANCH  23  24
HETATM   24  C   UNL     1      39.360 -13.918  -0.495  1.00  0.00     0.050 A 
HETATM   25  C   UNL     1      38.784 -13.977  -1.753  1.00  0.00     0.030 A 
HETATM   26  C   UNL     1      38.874 -14.981  -2.830  1.00  0.00     0.070 C 
HETATM   27  N   UNL     1      38.033 -12.815  -1.876  1.00  0.00    -0.354 N 
HETATM   28  H   UNL     1      37.492 -12.554  -2.700  1.00  0.00     0.166 HD
HETATM   29  C   UNL     1      38.127 -12.055  -0.783  1.00  0.00     0.180 A 
HETATM   30  N   UNL     1      38.916 -12.720   0.060  1.00  0.00    -0.353 N 
HETATM   31  H   UNL     1      39.188 -12.398   0.987  1.00  0.00     0.166 HD
ENDBRANCH  23  24
ENDBRANCH   1  23
TORSDOF 5
ENDMDL
MODEL 4
REMARK VINA RESULT:      -8.3      1.994      2.583
REMARK  5 active torsions:
REMARK  status: ('A' for Active; 'I' for Inactive)
REMARK    1  A    between atoms: C_8  and  C_9 
REMARK    2  A    between atoms: C_9  and  N_10 
REMARK    3  A    between atoms: N_13  and  C_15 
REMARK    4  A    between atoms: C_15  and  C_16 
REMARK    5  A    between atoms: C_19  and  C_20 
ROOT
HETATM    1  N   UNL     1      41.269 -12.412   0.996  1.00  0.00    -0.405 N 
HETATM    2  C   UNL     1      42.047 -11.825   2.096  1.00  0.00     0.150 C 
HETATM    3  C   UNL     1      41.359 -11.482   3.451  1.00  0.00     0.206 C 
HETATM    4  N   UNL     1      41.210 -12.696   4.367  1.00  0.00    -0.059 N 
HETATM    5  H   UNL     1      40.803 -12.307   5.230  1.00  0.00     0.280 HD
HETATM    6  C   UNL     1      40.218 -13.722   3.883  1.00  0.00     0.242 C 
HETATM    7  C   UNL     1      39.450 -13.252   2.646  1.00  0.00     0.029 C 
HETATM    8  C   UNL     1      40.280 -13.429   1.358  1.00  0.00     0.123 C 
HETATM    9  C   UNL     1      39.974 -10.847   3.303  1.00  0.00     0.035 C 
HETATM   10  C   UNL     1      38.908 -11.832   2.826  1.00  0.00     0.010 C 
ENDROOT
BRANCH   4  11
HETATM   11  C   UNL     1      42.508 -13.342   4.856  1.00  0.00     0.302 C 
BRANCH  11  12
HETATM   12  C   UNL     1      42.778 -14.660   4.253  1.00  0.00     0.107 A 
HETATM   13  O   UNL     1      43.202 -14.634   2.965  1.00  0.00    -0.216 OA
HETATM   14  N   UNL     1      43.542 -15.899   2.564  1.00  0.00    -0.128 NA
HETATM   15  C   UNL     1      43.256 -16.722   3.588  1.00  0.00     0.097 A 
HETATM   16  C   UNL     1      42.757 -15.963   4.688  1.00  0.00     0.071 A 
BRANCH  15  17
HETATM   17  C   UNL     1      43.498 -18.163   3.515  1.00  0.00    -0.005 A 
HETATM   18  C   UNL     1      44.018 -18.852   4.623  1.00  0.00     0.014 A 
HETATM   19  C   UNL     1      44.225 -20.232   4.572  1.00  0.00     0.001 A 
HETATM   20  C   UNL     1      43.921 -20.939   3.411  1.00  0.00     0.000 A 
HETATM   21  C   UNL     1      43.415 -20.268   2.301  1.00  0.00     0.001 A 
HETATM   22  C   UNL     1      43.203 -18.888   2.351  1.00  0.00     0.014 A 
ENDBRANCH  15  17
ENDBRANCH  11  12
ENDBRANCH   4  11
BRANCH   1  23
HETATM   23  C   UNL     1      40.789 -11.435  -0.004  1.00  0.00     0.176 C 
BRANCH  23  24
HETATM   24  C   UNL     1      40.177 -12.080  -1.211  1.00  0.00     0.050 A 
HETATM   25  C   UNL     1      38.865 -12.181  -1.645  1.00  0.00     0.030 A 
HETATM   26  C   UNL     1      37.600 -11.680  -1.075  1.00  0.00     0.070 C 
HETATM   27  N   UNL     1      38.915 -12.919  -2.821  1.00  0.00    -0.354 N 
HETATM   28  H   UNL     1      38.104 -13.177  -3.383  1.00  0.00     0.166 HD
HETATM   29  C   UNL     1      40.165 -13.278  -3.118  1.00  0.00     0.180 A 
HETATM   30  N   UNL     1      40.934 -12.765  -2.158  1.00  0.00    -0.353 N 
HETATM   31  H   UNL     1      41.945 -12.870  -2.097  1.00  0.00     0.166 HD
ENDBRANCH  23  24
ENDBRANCH   1  23
TORSDOF 5
ENDMDL
MODEL 5
REMARK VINA RESULT:      -8.2      5.268      8.338
REMARK  5 active torsions:
REMARK  status: ('A' for Active; 'I' for Inactive)
REMARK    1  A    between atoms: C_8  and  C_9 
REMARK    2  A    between atoms: C_9  and  N_10 
REMARK    3  A    between atoms: N_13  and  C_15 
REMARK    4  A    between atoms: C_15  and  C_16 
REMARK    5  A    between atoms: C_19  and  C_20 
ROOT
HETATM    1  N   UNL     1      42.976  -9.732  10.499  1.00  0.00    -0.405 N 
HETATM    2  C   UNL     1      42.449  -8.988   9.346  1.00  0.00     0.150 C 
HETATM    3  C   UNL     1      43.375  -8.640   8.144  1.00  0.00     0.206 C 
HETATM    4  N   UNL     1      43.542  -9.801   7.164  1.00  0.00    -0.059 N 
HETATM    5  H   UNL     1      44.119  -9.406   6.408  1.00  0.00     0.280 HD
HETATM    6  C   UNL     1      44.332 -10.964   7.706  1.00  0.00     0.242 C 
HETATM    7  C   UNL     1      44.938 -10.667   9.079  1.00  0.00     0.029 C 
HETATM    8  C   UNL     1      43.900 -10.830  10.208  1.00  0.00     0.123 C 
HETATM    9  C   UNL     1      44.778  -8.179   8.550  1.00  0.00     0.035 C 
HETATM   10  C   UNL     1      45.646  -9.311   9.100  1.00  0.00     0.010 C 
ENDROOT
BRANCH   4  11
HETATM   11  C   UNL     1      42.278 -10.259   6.433  1.00  0.00     0.302 C 
BRANCH  11  12
HETATM   12  C   UNL     1      42.530 -11.274   5.393  1.00  0.00     0.107 A 
HETATM   13  O   UNL     1      43.275 -10.855   4.340  1.00  0.00    -0.216 OA
HETATM   14  N   UNL     1      43.548 -11.915   3.517  1.00  0.00    -0.128 NA
HETATM   15  C   UNL     1      42.906 -12.981   4.026  1.00  0.00     0.097 A 
HETATM   16  C   UNL     1      42.236 -12.605   5.228  1.00  0.00     0.071 A 
BRANCH  15  17
HETATM   17  C   UNL     1      42.978 -14.301   3.401  1.00  0.00    -0.005 A 
HETATM   18  C   UNL     1      43.417 -14.435   2.073  1.00  0.00     0.014 A 
HETATM   19  C   UNL     1      43.517 -15.694   1.479  1.00  0.00     0.001 A 
HETATM   20  C   UNL     1      43.172 -16.835   2.201  1.00  0.00     0.000 A 
HETATM   21  C   UNL     1      42.725 -16.717   3.514  1.00  0.00     0.001 A 
HETATM   22  C   UNL     1      42.629 -15.458   4.113  1.00  0.00     0.014 A 
ENDBRANCH  15  17
ENDBRANCH  11  12
ENDBRANCH   4  11
BRANCH   1  23
HETATM   23  C   UNL     1      43.391  -8.884  11.637  1.00  0.00     0.176 C 
BRANCH  23  24
HETATM   24  C   UNL     1      42.378  -8.846  12.742  1.00  0.00     0.050 A 
HETATM   25  C   UNL     1      42.300  -8.095  13.903  1.00  0.00     0.030 A 
HETATM   26  C   UNL     1      43.184  -7.057  14.464  1.00  0.00     0.070 C 
HETATM   27  N   UNL     1      41.144  -8.519  14.547  1.00  0.00    -0.354 N 
HETATM   28  H   UNL     1      40.810  -8.164  15.442  1.00  0.00     0.166 HD
HETATM   29  C   UNL     1      40.528  -9.482  13.858  1.00  0.00     0.180 A 
HETATM   30  N   UNL     1      41.260  -9.675  12.761  1.00  0.00    -0.353 N 
HETATM   31  H   UNL     1      41.055 -10.355  12.030  1.00  0.00     0.166 HD
ENDBRANCH  23  24
ENDBRANCH   1  23
TORSDOF 5
ENDMDL
MODEL 6
REMARK VINA RESULT:      -8.0      3.078      5.655
REMARK  5 active torsions:
REMARK  status: ('A' for Active; 'I' for Inactive)
REMARK    1  A    between atoms: C_8  and  C_9 
REMARK    2  A    between atoms: C_9  and  N_10 
REMARK    3  A    between atoms: N_13  and  C_15 
REMARK    4  A    between atoms: C_15  and  C_16 
REMARK    5  A    between atoms: C_19  and  C_20 
ROOT
HETATM    1  N   UNL     1      42.132 -10.201   6.046  1.00  0.00    -0.405 N 
HETATM    2  C   UNL     1      42.602 -11.589   5.946  1.00  0.00     0.150 C 
HETATM    3  C   UNL     1      41.643 -12.712   5.450  1.00  0.00     0.206 C 
HETATM    4  N   UNL     1      41.530 -12.769   3.927  1.00  0.00    -0.059 N 
HETATM    5  H   UNL     1      40.922 -13.583   3.754  1.00  0.00     0.280 HD
HETATM    6  C   UNL     1      40.814 -11.595   3.311  1.00  0.00     0.242 C 
HETATM    7  C   UNL     1      40.210 -10.664   4.365  1.00  0.00     0.029 C 
HETATM    8  C   UNL     1      41.269  -9.719   4.966  1.00  0.00     0.123 C 
HETATM    9  C   UNL     1      40.222 -12.609   6.011  1.00  0.00     0.035 C 
HETATM   10  C   UNL     1      39.426 -11.445   5.422  1.00  0.00     0.010 C 
ENDROOT
BRANCH   4  11
HETATM   11  C   UNL     1      42.809 -13.123   3.165  1.00  0.00     0.302 C 
BRANCH  11  12
HETATM   12  C   UNL     1      42.971 -14.568   2.918  1.00  0.00     0.107 A 
HETATM   13  O   UNL     1      43.266 -14.909   1.638  1.00  0.00    -0.216 OA
HETATM   14  N   UNL     1      43.519 -16.253   1.565  1.00  0.00    -0.128 NA
HETATM   15  C   UNL     1      43.307 -16.758   2.793  1.00  0.00     0.097 A 
HETATM   16  C   UNL     1      42.947 -15.705   3.687  1.00  0.00     0.071 A 
BRANCH  15  17
HETATM   17  C   UNL     1      43.489 -18.178   3.090  1.00  0.00    -0.005 A 
HETATM   18  C   UNL     1      43.148 -19.151   2.136  1.00  0.00     0.014 A 
HETATM   19  C   UNL     1      43.345 -20.508   2.400  1.00  0.00     0.001 A 
HETATM   20  C   UNL     1      43.879 -20.910   3.622  1.00  0.00     0.000 A 
HETATM   21  C   UNL     1      44.212 -19.957   4.582  1.00  0.00     0.001 A 
HETATM   22  C   UNL     1      44.020 -18.598   4.318  1.00  0.00     0.014 A 
ENDBRANCH  15  17
ENDBRANCH  11  12
ENDBRANCH   4  11
BRANCH   1  23
HETATM   23  C   UNL     1      41.685  -9.801   7.397  1.00  0.00     0.176 C 
BRANCH  23  24
HETATM   24  C   UNL     1      42.599  -8.809   8.051  1.00  0.00     0.050 A 
HETATM   25  C   UNL     1      43.914  -8.899   8.476  1.00  0.00     0.030 A 
HETATM   26  C   UNL     1      44.889 -10.005   8.430  1.00  0.00     0.070 C 
HETATM   27  N   UNL     1      44.214  -7.661   9.030  1.00  0.00    -0.354 N 
HETATM   28  H   UNL     1      45.110  -7.410   9.446  1.00  0.00     0.166 HD
HETATM   29  C   UNL     1      43.167  -6.836   8.977  1.00  0.00     0.180 A 
HETATM   30  N   UNL     1      42.192  -7.517   8.376  1.00  0.00    -0.353 N 
HETATM   31  H   UNL     1      41.256  -7.162   8.190  1.00  0.00     0.166 HD
ENDBRANCH  23  24
ENDBRANCH   1  23
TORSDOF 5
ENDMDL
MODEL 7
REMARK VINA RESULT:      -8.0      4.177      6.284
REMARK  5 active torsions:
REMARK  status: ('A' for Active; 'I' for Inactive)
REMARK    1  A    between atoms: C_8  and  C_9 
REMARK    2  A    between atoms: C_9  and  N_10 
REMARK    3  A    between atoms: N_13  and  C_15 
REMARK    4  A    between atoms: C_15  and  C_16 
REMARK    5  A    between atoms: C_19  and  C_20 
ROOT
HETATM    1  N   UNL     1      40.201 -10.899  -2.369  1.00  0.00    -0.405 N 
HETATM    2  C   UNL     1      39.435 -10.866  -1.116  1.00  0.00     0.150 C 
HETATM    3  C   UNL     1      38.516 -12.061  -0.724  1.00  0.00     0.206 C 
HETATM    4  N   UNL     1      39.283 -13.217  -0.082  1.00  0.00    -0.059 N 
HETATM    5  H   UNL     1      38.547 -13.891   0.172  1.00  0.00     0.280 HD
HETATM    6  C   UNL     1      40.197 -13.957  -1.025  1.00  0.00     0.242 C 
HETATM    7  C   UNL     1      40.043 -13.487  -2.473  1.00  0.00     0.029 C 
HETATM    8  C   UNL     1      40.814 -12.177  -2.734  1.00  0.00     0.123 C 
HETATM    9  C   UNL     1      37.712 -12.638  -1.892  1.00  0.00     0.035 C 
HETATM   10  C   UNL     1      38.571 -13.415  -2.888  1.00  0.00     0.010 C 
ENDROOT
BRANCH   4  11
HETATM   11  C   UNL     1      39.962 -12.921   1.257  1.00  0.00     0.302 C 
BRANCH  11  12
HETATM   12  C   UNL     1      40.505 -14.120   1.923  1.00  0.00     0.107 A 
HETATM   13  O   UNL     1      39.579 -14.999   2.381  1.00  0.00    -0.216 OA
HETATM   14  N   UNL     1      40.204 -16.121   2.856  1.00  0.00    -0.128 NA
HETATM   15  C   UNL     1      41.527 -15.902   2.760  1.00  0.00     0.097 A 
HETATM   16  C   UNL     1      41.758 -14.624   2.170  1.00  0.00     0.071 A 
BRANCH  15  17
HETATM   17  C   UNL     1      42.510 -16.901   3.175  1.00  0.00    -0.005 A 
HETATM   18  C   UNL     1      42.798 -18.001   2.349  1.00  0.00     0.014 A 
HETATM   19  C   UNL     1      43.757 -18.944   2.725  1.00  0.00     0.001 A 
HETATM   20  C   UNL     1      44.435 -18.804   3.934  1.00  0.00     0.000 A 
HETATM   21  C   UNL     1      44.153 -17.725   4.769  1.00  0.00     0.001 A 
HETATM   22  C   UNL     1      43.197 -16.778   4.392  1.00  0.00     0.014 A 
ENDBRANCH  15  17
ENDBRANCH  11  12
ENDBRANCH   4  11
BRANCH   1  23
HETATM   23  C   UNL     1      39.557 -10.197  -3.500  1.00  0.00     0.176 C 
BRANCH  23  24
HETATM   24  C   UNL     1      40.413  -9.115  -4.086  1.00  0.00     0.050 A 
HETATM   25  C   UNL     1      40.334  -8.412  -5.277  1.00  0.00     0.030 A 
HETATM   26  C   UNL     1      39.373  -8.475  -6.394  1.00  0.00     0.070 C 
HETATM   27  N   UNL     1      41.425  -7.552  -5.278  1.00  0.00    -0.354 N 
HETATM   28  H   UNL     1      41.657  -6.903  -6.029  1.00  0.00     0.166 HD
HETATM   29  C   UNL     1      42.160  -7.697  -4.174  1.00  0.00     0.180 A 
HETATM   30  N   UNL     1      41.549  -8.628  -3.443  1.00  0.00    -0.353 N 
HETATM   31  H   UNL     1      41.870  -8.970  -2.539  1.00  0.00     0.166 HD
ENDBRANCH  23  24
ENDBRANCH   1  23
TORSDOF 5
ENDMDL
MODEL 8
REMARK VINA RESULT:      -7.7      2.899      5.873
REMARK  5 active torsions:
REMARK  status: ('A' for Active; 'I' for Inactive)
REMARK    1  A    between atoms: C_8  and  C_9 
REMARK    2  A    between atoms: C_9  and  N_10 
REMARK    3  A    between atoms: N_13  and  C_15 
REMARK    4  A    between atoms: C_15  and  C_16 
REMARK    5  A    between atoms: C_19  and  C_20 
ROOT
HETATM    1  N   UNL     1      42.206 -10.627   6.777  1.00  0.00    -0.405 N 
HETATM    2  C   UNL     1      40.771 -10.936   6.709  1.00  0.00     0.150 C 
HETATM    3  C   UNL     1      39.933 -10.510   5.467  1.00  0.00     0.206 C 
HETATM    4  N   UNL     1      40.073 -11.478   4.293  1.00  0.00    -0.059 N 
HETATM    5  H   UNL     1      39.426 -11.103   3.584  1.00  0.00     0.280 HD
HETATM    6  C   UNL     1      41.431 -11.472   3.640  1.00  0.00     0.242 C 
HETATM    7  C   UNL     1      42.340 -10.375   4.198  1.00  0.00     0.029 C 
HETATM    8  C   UNL     1      42.974 -10.787   5.542  1.00  0.00     0.123 C 
HETATM    9  C   UNL     1      40.260  -9.108   4.946  1.00  0.00     0.035 C 
HETATM   10  C   UNL     1      41.622  -9.025   4.257  1.00  0.00     0.010 C 
ENDROOT
BRANCH   4  11
HETATM   11  C   UNL     1      39.554 -12.899   4.519  1.00  0.00     0.302 C 
BRANCH  11  12
HETATM   12  C   UNL     1      40.605 -13.932   4.453  1.00  0.00     0.107 A 
HETATM   13  O   UNL     1      41.487 -13.929   5.483  1.00  0.00    -0.216 OA
HETATM   14  N   UNL     1      42.326 -15.007   5.375  1.00  0.00    -0.128 NA
HETATM   15  C   UNL     1      42.007 -15.637   4.231  1.00  0.00     0.097 A 
HETATM   16  C   UNL     1      40.910 -14.971   3.608  1.00  0.00     0.071 A 
BRANCH  15  17
HETATM   17  C   UNL     1      42.702 -16.846   3.792  1.00  0.00    -0.005 A 
HETATM   18  C   UNL     1      43.644 -17.467   4.629  1.00  0.00     0.014 A 
HETATM   19  C   UNL     1      44.291 -18.638   4.229  1.00  0.00     0.001 A 
HETATM   20  C   UNL     1      44.010 -19.200   2.986  1.00  0.00     0.000 A 
HETATM   21  C   UNL     1      43.086 -18.590   2.141  1.00  0.00     0.001 A 
HETATM   22  C   UNL     1      42.434 -17.420   2.541  1.00  0.00     0.014 A 
ENDBRANCH  15  17
ENDBRANCH  11  12
ENDBRANCH   4  11
BRANCH   1  23
HETATM   23  C   UNL     1      42.533  -9.399   7.533  1.00  0.00     0.176 C 
BRANCH  23  24
HETATM   24  C   UNL     1      43.331  -9.666   8.774  1.00  0.00     0.050 A 
HETATM   25  C   UNL     1      44.677  -9.513   9.062  1.00  0.00     0.030 A 
HETATM   26  C   UNL     1      45.807  -9.024   8.250  1.00  0.00     0.070 C 
HETATM   27  N   UNL     1      44.833  -9.951  10.371  1.00  0.00    -0.354 N 
HETATM   28  H   UNL     1      45.717  -9.976  10.878  1.00  0.00     0.166 HD
HETATM   29  C   UNL     1      43.674 -10.367  10.886  1.00  0.00     0.180 A 
HETATM   30  N   UNL     1      42.761 -10.186   9.933  1.00  0.00    -0.353 N 
HETATM   31  H   UNL     1      41.772 -10.415  10.016  1.00  0.00     0.166 HD
ENDBRANCH  23  24
ENDBRANCH   1  23
TORSDOF 5
ENDMDL
MODEL 9
REMARK VINA RESULT:      -7.7      4.204      7.582
REMARK  5 active torsions:
REMARK  status: ('A' for Active; 'I' for Inactive)
REMARK    1  A    between atoms: C_8  and  C_9 
REMARK    2  A    between atoms: C_9  and  N_10 
REMARK    3  A    between atoms: N_13  and  C_15 
REMARK    4  A    between atoms: C_15  and  C_16 
REMARK    5  A    between atoms: C_19  and  C_20 
ROOT
HETATM    1  N   UNL     1      41.420 -12.427   3.350  1.00  0.00    -0.405 N 
HETATM    2  C   UNL     1      41.325 -11.527   4.507  1.00  0.00     0.150 C 
HETATM    3  C   UNL     1      41.231 -12.106   5.950  1.00  0.00     0.206 C 
HETATM    4  N   UNL     1      42.592 -12.499   6.523  1.00  0.00    -0.059 N 
HETATM    5  H   UNL     1      42.377 -12.801   7.484  1.00  0.00     0.280 HD
HETATM    6  C   UNL     1      43.224 -13.695   5.859  1.00  0.00     0.242 C 
HETATM    7  C   UNL     1      42.290 -14.361   4.847  1.00  0.00     0.029 C 
HETATM    8  C   UNL     1      42.274 -13.607   3.502  1.00  0.00     0.123 C 
HETATM    9  C   UNL     1      40.312 -13.324   6.074  1.00  0.00     0.035 C 
HETATM   10  C   UNL     1      40.893 -14.583   5.432  1.00  0.00     0.010 C 
ENDROOT
BRANCH   4  11
HETATM   11  C   UNL     1      43.595 -11.363   6.731  1.00  0.00     0.302 C 
BRANCH  11  12
HETATM   12  C   UNL     1      43.515 -10.738   8.065  1.00  0.00     0.107 A 
HETATM   13  O   UNL     1      44.242 -11.346   9.035  1.00  0.00    -0.216 OA
HETATM   14  N   UNL     1      44.191 -10.603  10.185  1.00  0.00    -0.128 NA
HETATM   15  C   UNL     1      43.366  -9.568   9.944  1.00  0.00     0.097 A 
HETATM   16  C   UNL     1      42.908  -9.627   8.594  1.00  0.00     0.071 A 
BRANCH  15  17
HETATM   17  C   UNL     1      43.077  -8.555  10.958  1.00  0.00    -0.005 A 
HETATM   18  C   UNL     1      43.366  -8.802  12.311  1.00  0.00     0.014 A 
HETATM   19  C   UNL     1      43.119  -7.829  13.282  1.00  0.00     0.001 A 
HETATM   20  C   UNL     1      42.575  -6.601  12.914  1.00  0.00     0.000 A 
HETATM   21  C   UNL     1      42.273  -6.346  11.579  1.00  0.00     0.001 A 
HETATM   22  C   UNL     1      42.523  -7.316  10.605  1.00  0.00     0.014 A 
ENDBRANCH  15  17
ENDBRANCH  11  12
ENDBRANCH   4  11
BRANCH   1  23
HETATM   23  C   UNL     1      40.132 -12.701   2.678  1.00  0.00     0.176 C 
BRANCH  23  24
HETATM   24  C   UNL     1      40.291 -13.117   1.247  1.00  0.00     0.050 A 
HETATM   25  C   UNL     1      40.263 -14.358   0.632  1.00  0.00     0.030 A 
HETATM   26  C   UNL     1      40.058 -15.717   1.169  1.00  0.00     0.070 C 
HETATM   27  N   UNL     1      40.496 -14.115  -0.715  1.00  0.00    -0.354 N 
HETATM   28  H   UNL     1      40.549 -14.832  -1.438  1.00  0.00     0.166 HD
HETATM   29  C   UNL     1      40.674 -12.814  -0.952  1.00  0.00     0.180 A 
HETATM   30  N   UNL     1      40.538 -12.204   0.225  1.00  0.00    -0.353 N 
HETATM   31  H   UNL     1      40.625 -11.201   0.380  1.00  0.00     0.166 HD
ENDBRANCH  23  24
ENDBRANCH   1  23
TORSDOF 5
ENDMDL
MODEL 10
REMARK VINA RESULT:      -7.5      3.381      6.227
REMARK  5 active torsions:
REMARK  status: ('A' for Active; 'I' for Inactive)
REMARK    1  A    between atoms: C_8  and  C_9 
REMARK    2  A    between atoms: C_9  and  N_10 
REMARK    3  A    between atoms: N_13  and  C_15 
REMARK    4  A    between atoms: C_15  and  C_16 
REMARK    5  A    between atoms: C_19  and  C_20 
ROOT
HETATM    1  N   UNL     1      41.607  -9.418   7.138  1.00  0.00    -0.405 N 
HETATM    2  C   UNL     1      41.914 -10.813   6.792  1.00  0.00     0.150 C 
HETATM    3  C   UNL     1      40.906 -11.657   5.958  1.00  0.00     0.206 C 
HETATM    4  N   UNL     1      41.005 -11.391   4.456  1.00  0.00    -0.059 N 
HETATM    5  H   UNL     1      40.334 -12.054   4.042  1.00  0.00     0.280 HD
HETATM    6  C   UNL     1      40.532 -10.024   4.034  1.00  0.00     0.242 C 
HETATM    7  C   UNL     1      39.901  -9.244   5.190  1.00  0.00     0.029 C 
HETATM    8  C   UNL     1      40.971  -8.606   6.099  1.00  0.00     0.123 C 
HETATM    9  C   UNL     1      39.443 -11.459   6.362  1.00  0.00     0.035 C 
HETATM   10  C   UNL     1      38.886 -10.095   5.956  1.00  0.00     0.010 C 
ENDROOT
BRANCH   4  11
HETATM   11  C   UNL     1      42.327 -11.771   3.785  1.00  0.00     0.302 C 
BRANCH  11  12
HETATM   12  C   UNL     1      42.434 -13.205   3.457  1.00  0.00     0.107 A 
HETATM   13  O   UNL     1      42.033 -13.546   2.207  1.00  0.00    -0.216 OA
HETATM   14  N   UNL     1      42.303 -14.870   1.980  1.00  0.00    -0.128 NA
HETATM   15  C   UNL     1      42.805 -15.367   3.124  1.00  0.00     0.097 A 
HETATM   16  C   UNL     1      42.898 -14.328   4.097  1.00  0.00     0.071 A 
BRANCH  15  17
HETATM   17  C   UNL     1      43.214 -16.766   3.248  1.00  0.00    -0.005 A 
HETATM   18  C   UNL     1      43.838 -17.221   4.421  1.00  0.00     0.014 A 
HETATM   19  C   UNL     1      44.206 -18.561   4.559  1.00  0.00     0.001 A 
HETATM   20  C   UNL     1      43.961 -19.461   3.524  1.00  0.00     0.000 A 
HETATM   21  C   UNL     1      43.352 -19.022   2.351  1.00  0.00     0.001 A 
HETATM   22  C   UNL     1      42.979 -17.682   2.213  1.00  0.00     0.014 A 
ENDBRANCH  15  17
ENDBRANCH  11  12
ENDBRANCH   4  11
BRANCH   1  23
HETATM   23  C   UNL     1      41.024  -9.235   8.484  1.00  0.00     0.176 C 
BRANCH  23  24
HETATM   24  C   UNL     1      42.049  -9.249   9.578  1.00  0.00     0.050 A 
HETATM   25  C   UNL     1      43.167  -8.465   9.811  1.00  0.00     0.030 A 
HETATM   26  C   UNL     1      43.744  -7.329   9.069  1.00  0.00     0.070 C 
HETATM   27  N   UNL     1      43.743  -8.970  10.970  1.00  0.00    -0.354 N 
HETATM   28  H   UNL     1      44.595  -8.613  11.403  1.00  0.00     0.166 HD
HETATM   29  C   UNL     1      43.054 -10.010  11.444  1.00  0.00     0.180 A 
HETATM   30  N   UNL     1      42.023 -10.176  10.616  1.00  0.00    -0.353 N 
HETATM   31  H   UNL     1      41.311 -10.899  10.704  1.00  0.00     0.166 HD
ENDBRANCH  23  24
ENDBRANCH   1  23
TORSDOF 5
ENDMDL
