MODEL 1
REMARK VINA RESULT:      -8.5      0.000      0.000
REMARK  7 active torsions:
REMARK  status: ('A' for Active; 'I' for Inactive)
REMARK    1  A    between atoms: C_2  and  N_3 
REMARK    2  A    between atoms: C_2  and  C_17 
REMARK       I    between atoms: N_3  and  C_4 
REMARK    3  A    between atoms: C_4  and  C_5 
REMARK    4  A    between atoms: C_7  and  N_8 
REMARK    5  A    between atoms: C_17  and  O_18 
REMARK    6  A    between atoms: C_17  and  C_19 
REMARK    7  A    between atoms: C_22  and  O_23 
ROOT
HETATM    1  N   UNL     1      42.502 -13.455   6.860  1.00  0.00    -0.349 N 
HETATM    2  C   UNL     1      43.465 -12.744   6.175  1.00  0.00     0.270 C 
HETATM    3  O   UNL     1      43.634 -12.815   4.964  1.00  0.00    -0.266 OA
HETATM    4  H   UNL     1      42.566 -13.428   7.874  1.00  0.00     0.163 HD
ENDROOT
BRANCH   1   5
HETATM    5  C   UNL     1      41.658 -14.455   6.213  1.00  0.00     0.114 C 
HETATM    6  C   UNL     1      40.189 -14.043   6.322  1.00  0.00     0.035 C 
BRANCH   5   7
HETATM    7  C   UNL     1      41.941 -15.902   6.713  1.00  0.00     0.173 C 
BRANCH   7   8
HETATM    8  O   UNL     1      42.742 -15.863   7.900  1.00  0.00    -0.389 OA
HETATM    9  H   UNL     1      43.413 -16.561   7.797  1.00  0.00     0.210 HD
ENDBRANCH   7   8
BRANCH   7  10
HETATM   10  C   UNL     1      42.595 -16.811   5.686  1.00  0.00    -0.028 A 
HETATM   11  C   UNL     1      42.425 -16.563   4.317  1.00  0.00     0.012 A 
HETATM   12  C   UNL     1      43.026 -17.392   3.365  1.00  0.00     0.037 A 
HETATM   13  C   UNL     1      43.805 -18.482   3.756  1.00  0.00     0.068 A 
HETATM   14  C   UNL     1      43.985 -18.735   5.115  1.00  0.00     0.037 A 
HETATM   15  C   UNL     1      43.385 -17.906   6.071  1.00  0.00     0.012 A 
BRANCH  13  16
HETATM   16  O   UNL     1      44.329 -19.212   2.725  1.00  0.00    -0.356 OA
HETATM   17  C   UNL     1      43.523 -20.263   2.208  1.00  0.00     0.210 C 
ENDBRANCH  13  16
ENDBRANCH   7  10
ENDBRANCH   5   7
ENDBRANCH   1   5
BRANCH   2  18
HETATM   18  C   UNL     1      44.326 -11.873   7.038  1.00  0.00     0.126 A 
HETATM   19  N   UNL     1      43.794 -11.497   8.235  1.00  0.00    -0.224 NA
HETATM   20  C   UNL     1      44.571 -10.706   9.025  1.00  0.00     0.151 A 
HETATM   21  C   UNL     1      45.850 -10.287   8.652  1.00  0.00     0.052 A 
HETATM   22  C   UNL     1      46.362 -10.695   7.422  1.00  0.00     0.006 A 
HETATM   23  C   UNL     1      45.590 -11.506   6.597  1.00  0.00     0.037 A 
BRANCH  20  24
HETATM   24  N   UNL     1      44.053 -10.296  10.290  1.00  0.00    -0.227 N 
HETATM   25  N   UNL     1      43.666 -11.185  11.246  1.00  0.00    -0.179 NA
HETATM   26  C   UNL     1      43.244 -10.423  12.257  1.00  0.00     0.141 A 
HETATM   27  C   UNL     1      43.350  -9.051  11.982  1.00  0.00     0.040 A 
HETATM   28  C   UNL     1      43.872  -8.995  10.713  1.00  0.00     0.122 A 
ENDBRANCH  20  24
ENDBRANCH   2  18
TORSDOF 7
ENDMDL
MODEL 2
REMARK VINA RESULT:      -8.0      5.981      8.787
REMARK  7 active torsions:
REMARK  status: ('A' for Active; 'I' for Inactive)
REMARK    1  A    between atoms: C_2  and  N_3 
REMARK    2  A    between atoms: C_2  and  C_17 
REMARK       I    between atoms: N_3  and  C_4 
REMARK    3  A    between atoms: C_4  and  C_5 
REMARK    4  A    between atoms: C_7  and  N_8 
REMARK    5  A    between atoms: C_17  and  O_18 
REMARK    6  A    between atoms: C_17  and  C_19 
REMARK    7  A    between atoms: C_22  and  O_23 
ROOT
HETATM    1  N   UNL     1      40.992 -14.118   1.593  1.00  0.00    -0.349 N 
HETATM    2  C   UNL     1      40.199 -14.851   0.735  1.00  0.00     0.270 C 
HETATM    3  O   UNL     1      39.742 -15.956   1.003  1.00  0.00    -0.266 OA
HETATM    4  H   UNL     1      41.433 -13.293   1.196  1.00  0.00     0.163 HD
ENDROOT
BRANCH   1   5
HETATM    5  C   UNL     1      41.460 -14.646   2.871  1.00  0.00     0.114 C 
HETATM    6  C   UNL     1      41.088 -13.682   3.998  1.00  0.00     0.035 C 
BRANCH   5   7
HETATM    7  C   UNL     1      42.967 -15.035   2.851  1.00  0.00     0.173 C 
BRANCH   7   8
HETATM    8  O   UNL     1      43.559 -14.641   1.607  1.00  0.00    -0.389 OA
HETATM    9  H   UNL     1      44.523 -14.657   1.749  1.00  0.00     0.210 HD
ENDBRANCH   7   8
BRANCH   7  10
HETATM   10  C   UNL     1      43.247 -16.507   3.106  1.00  0.00    -0.028 A 
HETATM   11  C   UNL     1      43.749 -16.923   4.346  1.00  0.00     0.012 A 
HETATM   12  C   UNL     1      44.006 -18.275   4.590  1.00  0.00     0.037 A 
HETATM   13  C   UNL     1      43.768 -19.237   3.607  1.00  0.00     0.068 A 
HETATM   14  C   UNL     1      43.264 -18.835   2.372  1.00  0.00     0.037 A 
HETATM   15  C   UNL     1      43.005 -17.481   2.124  1.00  0.00     0.012 A 
BRANCH  13  16
HETATM   16  O   UNL     1      44.067 -20.520   3.975  1.00  0.00    -0.356 OA
HETATM   17  C   UNL     1      44.115 -20.793   5.370  1.00  0.00     0.210 C 
ENDBRANCH  13  16
ENDBRANCH   7  10
ENDBRANCH   5   7
ENDBRANCH   1   5
BRANCH   2  18
HETATM   18  C   UNL     1      39.945 -14.196  -0.588  1.00  0.00     0.126 A 
HETATM   19  N   UNL     1      40.441 -12.936  -0.742  1.00  0.00    -0.224 NA
HETATM   20  C   UNL     1      40.215 -12.336  -1.943  1.00  0.00     0.151 A 
HETATM   21  C   UNL     1      39.512 -12.955  -2.979  1.00  0.00     0.052 A 
HETATM   22  C   UNL     1      39.023 -14.244  -2.786  1.00  0.00     0.006 A 
HETATM   23  C   UNL     1      39.243 -14.883  -1.570  1.00  0.00     0.037 A 
BRANCH  20  24
HETATM   24  N   UNL     1      40.725 -11.018  -2.146  1.00  0.00    -0.227 N 
HETATM   25  N   UNL     1      40.434 -10.283  -3.255  1.00  0.00    -0.179 NA
HETATM   26  C   UNL     1      41.090  -9.136  -3.076  1.00  0.00     0.141 A 
HETATM   27  C   UNL     1      41.806  -9.105  -1.868  1.00  0.00     0.040 A 
HETATM   28  C   UNL     1      41.555 -10.324  -1.289  1.00  0.00     0.122 A 
ENDBRANCH  20  24
ENDBRANCH   2  18
TORSDOF 7
ENDMDL
MODEL 3
REMARK VINA RESULT:      -7.8      1.840      2.255
REMARK  7 active torsions:
REMARK  status: ('A' for Active; 'I' for Inactive)
REMARK    1  A    between atoms: C_2  and  N_3 
REMARK    2  A    between atoms: C_2  and  C_17 
REMARK       I    between atoms: N_3  and  C_4 
REMARK    3  A    between atoms: C_4  and  C_5 
REMARK    4  A    between atoms: C_7  and  N_8 
REMARK    5  A    between atoms: C_17  and  O_18 
REMARK    6  A    between atoms: C_17  and  C_19 
REMARK    7  A    between atoms: C_22  and  O_23 
ROOT
HETATM    1  N   UNL     1      42.821 -12.827   4.832  1.00  0.00    -0.349 N 
HETATM    2  C   UNL     1      43.208 -11.509   4.949  1.00  0.00     0.270 C 
HETATM    3  O   UNL     1      42.879 -10.629   4.163  1.00  0.00    -0.266 OA
HETATM    4  H   UNL     1      43.286 -13.484   5.455  1.00  0.00     0.163 HD
ENDROOT
BRANCH   1   5
HETATM    5  C   UNL     1      42.067 -13.325   3.686  1.00  0.00     0.114 C 
HETATM    6  C   UNL     1      40.866 -14.139   4.169  1.00  0.00     0.035 C 
BRANCH   5   7
HETATM    7  C   UNL     1      42.958 -14.075   2.653  1.00  0.00     0.173 C 
BRANCH   7   8
HETATM    8  O   UNL     1      42.395 -13.954   1.341  1.00  0.00    -0.389 OA
HETATM    9  H   UNL     1      41.903 -14.779   1.180  1.00  0.00     0.210 HD
ENDBRANCH   7   8
BRANCH   7  10
HETATM   10  C   UNL     1      43.201 -15.541   2.971  1.00  0.00    -0.028 A 
HETATM   11  C   UNL     1      43.069 -16.509   1.967  1.00  0.00     0.012 A 
HETATM   12  C   UNL     1      43.294 -17.860   2.248  1.00  0.00     0.037 A 
HETATM   13  C   UNL     1      43.653 -18.272   3.532  1.00  0.00     0.068 A 
HETATM   14  C   UNL     1      43.793 -17.317   4.537  1.00  0.00     0.037 A 
HETATM   15  C   UNL     1      43.569 -15.963   4.258  1.00  0.00     0.012 A 
BRANCH  13  16
HETATM   16  O   UNL     1      43.839 -19.620   3.672  1.00  0.00    -0.356 OA
HETATM   17  C   UNL     1      43.572 -20.426   2.531  1.00  0.00     0.210 C 
ENDBRANCH  13  16
ENDBRANCH   7  10
ENDBRANCH   5   7
ENDBRANCH   1   5
BRANCH   2  18
HETATM   18  C   UNL     1      44.099 -11.223   6.119  1.00  0.00     0.126 A 
HETATM   19  N   UNL     1      43.473 -10.938   7.296  1.00  0.00    -0.224 NA
HETATM   20  C   UNL     1      44.276 -10.677   8.364  1.00  0.00     0.151 A 
HETATM   21  C   UNL     1      45.670 -10.693   8.285  1.00  0.00     0.052 A 
HETATM   22  C   UNL     1      46.273 -10.992   7.066  1.00  0.00     0.006 A 
HETATM   23  C   UNL     1      45.477 -11.266   5.960  1.00  0.00     0.037 A 
BRANCH  20  24
HETATM   24  N   UNL     1      43.659 -10.381   9.617  1.00  0.00    -0.227 N 
HETATM   25  N   UNL     1      44.065 -10.950  10.786  1.00  0.00    -0.179 NA
HETATM   26  C   UNL     1      43.254 -10.430  11.708  1.00  0.00     0.141 A 
HETATM   27  C   UNL     1      42.323  -9.530  11.165  1.00  0.00     0.040 A 
HETATM   28  C   UNL     1      42.604  -9.515   9.821  1.00  0.00     0.122 A 
ENDBRANCH  20  24
ENDBRANCH   2  18
TORSDOF 7
ENDMDL
MODEL 4
REMARK VINA RESULT:      -7.7      1.230      1.736
REMARK  7 active torsions:
REMARK  status: ('A' for Active; 'I' for Inactive)
REMARK    1  A    between atoms: C_2  and  N_3 
REMARK    2  A    between atoms: C_2  and  C_17 
REMARK       I    between atoms: N_3  and  C_4 
REMARK    3  A    between atoms: C_4  and  C_5 
REMARK    4  A    between atoms: C_7  and  N_8 
REMARK    5  A    between atoms: C_17  and  O_18 
REMARK    6  A    between atoms: C_17  and  C_19 
REMARK    7  A    between atoms: C_22  and  O_23 
ROOT
HETATM    1  N   UNL     1      43.381 -12.567   6.293  1.00  0.00    -0.349 N 
HETATM    2  C   UNL     1      44.335 -11.594   6.089  1.00  0.00     0.270 C 
HETATM    3  O   UNL     1      44.859 -11.368   5.004  1.00  0.00    -0.266 OA
HETATM    4  H   UNL     1      43.141 -12.759   7.263  1.00  0.00     0.163 HD
ENDROOT
BRANCH   1   5
HETATM    5  C   UNL     1      42.982 -13.507   5.249  1.00  0.00     0.114 C 
HETATM    6  C   UNL     1      41.865 -12.896   4.403  1.00  0.00     0.035 C 
BRANCH   5   7
HETATM    7  C   UNL     1      42.647 -14.922   5.803  1.00  0.00     0.173 C 
BRANCH   7   8
HETATM    8  O   UNL     1      43.253 -15.102   7.089  1.00  0.00    -0.389 OA
HETATM    9  H   UNL     1      44.175 -14.804   6.998  1.00  0.00     0.210 HD
ENDBRANCH   7   8
BRANCH   7  10
HETATM   10  C   UNL     1      43.039 -16.071   4.889  1.00  0.00    -0.028 A 
HETATM   11  C   UNL     1      43.941 -17.046   5.333  1.00  0.00     0.012 A 
HETATM   12  C   UNL     1      44.306 -18.108   4.501  1.00  0.00     0.037 A 
HETATM   13  C   UNL     1      43.780 -18.219   3.213  1.00  0.00     0.068 A 
HETATM   14  C   UNL     1      42.878 -17.258   2.762  1.00  0.00     0.037 A 
HETATM   15  C   UNL     1      42.510 -16.194   3.594  1.00  0.00     0.012 A 
BRANCH  13  16
HETATM   16  O   UNL     1      44.224 -19.302   2.504  1.00  0.00    -0.356 OA
HETATM   17  C   UNL     1      43.248 -20.265   2.126  1.00  0.00     0.210 C 
ENDBRANCH  13  16
ENDBRANCH   7  10
ENDBRANCH   5   7
ENDBRANCH   1   5
BRANCH   2  18
HETATM   18  C   UNL     1      44.714 -10.825   7.318  1.00  0.00     0.126 A 
HETATM   19  N   UNL     1      43.781 -10.779   8.310  1.00  0.00    -0.224 NA
HETATM   20  C   UNL     1      44.119 -10.083   9.431  1.00  0.00     0.151 A 
HETATM   21  C   UNL     1      45.349  -9.440   9.581  1.00  0.00     0.052 A 
HETATM   22  C   UNL     1      46.279  -9.513   8.546  1.00  0.00     0.006 A 
HETATM   23  C   UNL     1      45.961 -10.220   7.392  1.00  0.00     0.037 A 
BRANCH  20  24
HETATM   24  N   UNL     1      43.172 -10.017  10.496  1.00  0.00    -0.227 N 
HETATM   25  N   UNL     1      41.903  -9.554  10.321  1.00  0.00    -0.179 NA
HETATM   26  C   UNL     1      41.345  -9.646  11.529  1.00  0.00     0.141 A 
HETATM   27  C   UNL     1      42.225 -10.162  12.494  1.00  0.00     0.040 A 
HETATM   28  C   UNL     1      43.391 -10.393  11.806  1.00  0.00     0.122 A 
ENDBRANCH  20  24
ENDBRANCH   2  18
TORSDOF 7
ENDMDL
MODEL 5
REMARK VINA RESULT:      -7.7      3.296      8.263
REMARK  7 active torsions:
REMARK  status: ('A' for Active; 'I' for Inactive)
REMARK    1  A    between atoms: C_2  and  N_3 
REMARK    2  A    between atoms: C_2  and  C_17 
REMARK       I    between atoms: N_3  and  C_4 
REMARK    3  A    between atoms: C_4  and  C_5 
REMARK    4  A    between atoms: C_7  and  N_8 
REMARK    5  A    between atoms: C_17  and  O_18 
REMARK    6  A    between atoms: C_17  and  C_19 
REMARK    7  A    between atoms: C_22  and  O_23 
ROOT
HETATM    1  N   UNL     1      41.776 -12.951   3.638  1.00  0.00    -0.349 N 
HETATM    2  C   UNL     1      42.137 -14.024   4.424  1.00  0.00     0.270 C 
HETATM    3  O   UNL     1      42.088 -14.022   5.649  1.00  0.00    -0.266 OA
HETATM    4  H   UNL     1      42.009 -13.023   2.651  1.00  0.00     0.163 HD
ENDROOT
BRANCH   1   5
HETATM    5  C   UNL     1      41.403 -11.656   4.202  1.00  0.00     0.114 C 
HETATM    6  C   UNL     1      40.223 -11.073   3.425  1.00  0.00     0.035 C 
BRANCH   5   7
HETATM    7  C   UNL     1      42.610 -10.682   4.334  1.00  0.00     0.173 C 
BRANCH   7   8
HETATM    8  O   UNL     1      43.527 -10.888   3.251  1.00  0.00    -0.389 OA
HETATM    9  H   UNL     1      43.035 -10.680   2.437  1.00  0.00     0.210 HD
ENDBRANCH   7   8
BRANCH   7  10
HETATM   10  C   UNL     1      43.355 -10.769   5.656  1.00  0.00    -0.028 A 
HETATM   11  C   UNL     1      42.756 -10.298   6.831  1.00  0.00     0.012 A 
HETATM   12  C   UNL     1      43.431 -10.376   8.053  1.00  0.00     0.037 A 
HETATM   13  C   UNL     1      44.713 -10.923   8.127  1.00  0.00     0.068 A 
HETATM   14  C   UNL     1      45.316 -11.399   6.965  1.00  0.00     0.037 A 
HETATM   15  C   UNL     1      44.642 -11.323   5.740  1.00  0.00     0.012 A 
BRANCH  13  16
HETATM   16  O   UNL     1      45.261 -10.934   9.380  1.00  0.00    -0.356 OA
HETATM   17  C   UNL     1      45.364  -9.682  10.047  1.00  0.00     0.210 C 
ENDBRANCH  13  16
ENDBRANCH   7  10
ENDBRANCH   5   7
ENDBRANCH   1   5
BRANCH   2  18
HETATM   18  C   UNL     1      42.627 -15.217   3.661  1.00  0.00     0.126 A 
HETATM   19  N   UNL     1      42.884 -16.337   4.395  1.00  0.00    -0.224 NA
HETATM   20  C   UNL     1      43.328 -17.425   3.709  1.00  0.00     0.151 A 
HETATM   21  C   UNL     1      43.521 -17.422   2.326  1.00  0.00     0.052 A 
HETATM   22  C   UNL     1      43.244 -16.260   1.609  1.00  0.00     0.006 A 
HETATM   23  C   UNL     1      42.786 -15.134   2.285  1.00  0.00     0.037 A 
BRANCH  20  24
HETATM   24  N   UNL     1      43.601 -18.620   4.440  1.00  0.00    -0.227 N 
HETATM   25  N   UNL     1      43.478 -18.695   5.794  1.00  0.00    -0.179 NA
HETATM   26  C   UNL     1      43.821 -19.950   6.091  1.00  0.00     0.141 A 
HETATM   27  C   UNL     1      44.165 -20.700   4.955  1.00  0.00     0.040 A 
HETATM   28  C   UNL     1      44.015 -19.825   3.908  1.00  0.00     0.122 A 
ENDBRANCH  20  24
ENDBRANCH   2  18
TORSDOF 7
ENDMDL
MODEL 6
REMARK VINA RESULT:      -7.6      1.621      2.111
REMARK  7 active torsions:
REMARK  status: ('A' for Active; 'I' for Inactive)
REMARK    1  A    between atoms: C_2  and  N_3 
REMARK    2  A    between atoms: C_2  and  C_17 
REMARK       I    between atoms: N_3  and  C_4 
REMARK    3  A    between atoms: C_4  and  C_5 
REMARK    4  A    between atoms: C_7  and  N_8 
REMARK    5  A    between atoms: C_17  and  O_18 
REMARK    6  A    between atoms: C_17  and  C_19 
REMARK    7  A    between atoms: C_22  and  O_23 
ROOT
HETATM    1  N   UNL     1      43.324 -12.175   7.013  1.00  0.00    -0.349 N 
HETATM    2  C   UNL     1      44.479 -11.467   7.268  1.00  0.00     0.270 C 
HETATM    3  O   UNL     1      45.452 -11.457   6.524  1.00  0.00    -0.266 OA
HETATM    4  H   UNL     1      42.656 -12.226   7.778  1.00  0.00     0.163 HD
ENDROOT
BRANCH   1   5
HETATM    5  C   UNL     1      43.193 -13.080   5.875  1.00  0.00     0.114 C 
HETATM    6  C   UNL     1      42.497 -12.362   4.719  1.00  0.00     0.035 C 
BRANCH   5   7
HETATM    7  C   UNL     1      42.537 -14.440   6.254  1.00  0.00     0.173 C 
BRANCH   7   8
HETATM    8  O   UNL     1      42.731 -14.707   7.648  1.00  0.00    -0.389 OA
HETATM    9  H   UNL     1      42.050 -15.357   7.897  1.00  0.00     0.210 HD
ENDBRANCH   7   8
BRANCH   7  10
HETATM   10  C   UNL     1      43.018 -15.627   5.436  1.00  0.00    -0.028 A 
HETATM   11  C   UNL     1      42.443 -15.900   4.188  1.00  0.00     0.012 A 
HETATM   12  C   UNL     1      42.881 -16.987   3.427  1.00  0.00     0.037 A 
HETATM   13  C   UNL     1      43.898 -17.822   3.892  1.00  0.00     0.068 A 
HETATM   14  C   UNL     1      44.481 -17.556   5.129  1.00  0.00     0.037 A 
HETATM   15  C   UNL     1      44.045 -16.468   5.894  1.00  0.00     0.012 A 
BRANCH  13  16
HETATM   16  O   UNL     1      44.226 -18.850   3.051  1.00  0.00    -0.356 OA
HETATM   17  C   UNL     1      43.169 -19.418   2.289  1.00  0.00     0.210 C 
ENDBRANCH  13  16
ENDBRANCH   7  10
ENDBRANCH   5   7
ENDBRANCH   1   5
BRANCH   2  18
HETATM   18  C   UNL     1      44.472 -10.708   8.560  1.00  0.00     0.126 A 
HETATM   19  N   UNL     1      43.281 -10.654   9.219  1.00  0.00    -0.224 NA
HETATM   20  C   UNL     1      43.267  -9.967  10.395  1.00  0.00     0.151 A 
HETATM   21  C   UNL     1      44.399  -9.339  10.918  1.00  0.00     0.052 A 
HETATM   22  C   UNL     1      45.600  -9.419  10.217  1.00  0.00     0.006 A 
HETATM   23  C   UNL     1      45.643 -10.118   9.016  1.00  0.00     0.037 A 
BRANCH  20  24
HETATM   24  N   UNL     1      42.040  -9.893  11.120  1.00  0.00    -0.227 N 
HETATM   25  N   UNL     1      41.952 -10.198  12.444  1.00  0.00    -0.179 NA
HETATM   26  C   UNL     1      40.666 -10.013  12.744  1.00  0.00     0.141 A 
HETATM   27  C   UNL     1      39.908  -9.589  11.640  1.00  0.00     0.040 A 
HETATM   28  C   UNL     1      40.813  -9.519  10.610  1.00  0.00     0.122 A 
ENDBRANCH  20  24
ENDBRANCH   2  18
TORSDOF 7
ENDMDL
MODEL 7
REMARK VINA RESULT:      -7.5      4.844      8.173
REMARK  7 active torsions:
REMARK  status: ('A' for Active; 'I' for Inactive)
REMARK    1  A    between atoms: C_2  and  N_3 
REMARK    2  A    between atoms: C_2  and  C_17 
REMARK       I    between atoms: N_3  and  C_4 
REMARK    3  A    between atoms: C_4  and  C_5 
REMARK    4  A    between atoms: C_7  and  N_8 
REMARK    5  A    between atoms: C_17  and  O_18 
REMARK    6  A    between atoms: C_17  and  C_19 
REMARK    7  A    between atoms: C_22  and  O_23 
ROOT
HETATM    1  N   UNL     1      41.807 -13.308   3.898  1.00  0.00    -0.349 N 
HETATM    2  C   UNL     1      42.752 -14.131   3.323  1.00  0.00     0.270 C 
HETATM    3  O   UNL     1      43.205 -13.969   2.196  1.00  0.00    -0.266 OA
HETATM    4  H   UNL     1      41.401 -13.638   4.770  1.00  0.00     0.163 HD
ENDROOT
BRANCH   1   5
HETATM    5  C   UNL     1      41.167 -12.219   3.167  1.00  0.00     0.114 C 
HETATM    6  C   UNL     1      41.292 -10.918   3.961  1.00  0.00     0.035 C 
BRANCH   5   7
HETATM    7  C   UNL     1      39.709 -12.552   2.736  1.00  0.00     0.173 C 
BRANCH   7   8
HETATM    8  O   UNL     1      39.196 -13.627   3.533  1.00  0.00    -0.389 OA
HETATM    9  H   UNL     1      38.246 -13.448   3.650  1.00  0.00     0.210 HD
ENDBRANCH   7   8
BRANCH   7  10
HETATM   10  C   UNL     1      39.542 -12.883   1.263  1.00  0.00    -0.028 A 
HETATM   11  C   UNL     1      38.916 -11.971   0.404  1.00  0.00     0.012 A 
HETATM   12  C   UNL     1      38.761 -12.266  -0.954  1.00  0.00     0.037 A 
HETATM   13  C   UNL     1      39.225 -13.471  -1.481  1.00  0.00     0.068 A 
HETATM   14  C   UNL     1      39.855 -14.384  -0.637  1.00  0.00     0.037 A 
HETATM   15  C   UNL     1      40.012 -14.091   0.723  1.00  0.00     0.012 A 
BRANCH  13  16
HETATM   16  O   UNL     1      39.005 -13.634  -2.821  1.00  0.00    -0.356 OA
HETATM   17  C   UNL     1      38.368 -14.840  -3.226  1.00  0.00     0.210 C 
ENDBRANCH  13  16
ENDBRANCH   7  10
ENDBRANCH   5   7
ENDBRANCH   1   5
BRANCH   2  18
HETATM   18  C   UNL     1      43.184 -15.280   4.182  1.00  0.00     0.126 A 
HETATM   19  N   UNL     1      43.236 -16.499   3.575  1.00  0.00    -0.224 NA
HETATM   20  C   UNL     1      43.628 -17.548   4.350  1.00  0.00     0.151 A 
HETATM   21  C   UNL     1      43.963 -17.410   5.699  1.00  0.00     0.052 A 
HETATM   22  C   UNL     1      43.901 -16.147   6.283  1.00  0.00     0.006 A 
HETATM   23  C   UNL     1      43.507 -15.058   5.514  1.00  0.00     0.037 A 
BRANCH  20  24
HETATM   24  N   UNL     1      43.703 -18.841   3.750  1.00  0.00    -0.227 N 
HETATM   25  N   UNL     1      44.036 -19.957   4.456  1.00  0.00    -0.179 NA
HETATM   26  C   UNL     1      44.000 -20.942   3.556  1.00  0.00     0.141 A 
HETATM   27  C   UNL     1      43.648 -20.491   2.273  1.00  0.00     0.040 A 
HETATM   28  C   UNL     1      43.462 -19.139   2.424  1.00  0.00     0.122 A 
ENDBRANCH  20  24
ENDBRANCH   2  18
TORSDOF 7
ENDMDL
MODEL 8
REMARK VINA RESULT:      -7.5      2.878      4.063
REMARK  7 active torsions:
REMARK  status: ('A' for Active; 'I' for Inactive)
REMARK    1  A    between atoms: C_2  and  N_3 
REMARK    2  A    between atoms: C_2  and  C_17 
REMARK       I    between atoms: N_3  and  C_4 
REMARK    3  A    between atoms: C_4  and  C_5 
REMARK    4  A    between atoms: C_7  and  N_8 
REMARK    5  A    between atoms: C_17  and  O_18 
REMARK    6  A    between atoms: C_17  and  C_19 
REMARK    7  A    between atoms: C_22  and  O_23 
ROOT
HETATM    1  N   UNL     1      41.380 -12.690   2.917  1.00  0.00    -0.349 N 
HETATM    2  C   UNL     1      42.459 -11.921   3.295  1.00  0.00     0.270 C 
HETATM    3  O   UNL     1      42.963 -11.055   2.588  1.00  0.00    -0.266 OA
HETATM    4  H   UNL     1      41.157 -13.474   3.524  1.00  0.00     0.163 HD
ENDROOT
BRANCH   1   5
HETATM    5  C   UNL     1      40.798 -12.622   1.579  1.00  0.00     0.114 C 
HETATM    6  C   UNL     1      39.409 -11.987   1.649  1.00  0.00     0.035 C 
BRANCH   5   7
HETATM    7  C   UNL     1      40.826 -13.989   0.836  1.00  0.00     0.173 C 
BRANCH   7   8
HETATM    8  O   UNL     1      39.490 -14.406   0.526  1.00  0.00    -0.389 OA
HETATM    9  H   UNL     1      39.342 -15.232   1.020  1.00  0.00     0.210 HD
ENDBRANCH   7   8
BRANCH   7  10
HETATM   10  C   UNL     1      41.547 -15.101   1.579  1.00  0.00    -0.028 A 
HETATM   11  C   UNL     1      42.888 -15.385   1.289  1.00  0.00     0.012 A 
HETATM   12  C   UNL     1      43.562 -16.404   1.969  1.00  0.00     0.037 A 
HETATM   13  C   UNL     1      42.914 -17.158   2.949  1.00  0.00     0.068 A 
HETATM   14  C   UNL     1      41.582 -16.880   3.250  1.00  0.00     0.037 A 
HETATM   15  C   UNL     1      40.906 -15.860   2.570  1.00  0.00     0.012 A 
BRANCH  13  16
HETATM   16  O   UNL     1      43.686 -18.125   3.533  1.00  0.00    -0.356 OA
HETATM   17  C   UNL     1      43.846 -18.054   4.944  1.00  0.00     0.210 C 
ENDBRANCH  13  16
ENDBRANCH   7  10
ENDBRANCH   5   7
ENDBRANCH   1   5
BRANCH   2  18
HETATM   18  C   UNL     1      43.004 -12.237   4.654  1.00  0.00     0.126 A 
HETATM   19  N   UNL     1      43.569 -11.199   5.333  1.00  0.00    -0.224 NA
HETATM   20  C   UNL     1      44.064 -11.479   6.570  1.00  0.00     0.151 A 
HETATM   21  C   UNL     1      44.012 -12.754   7.136  1.00  0.00     0.052 A 
HETATM   22  C   UNL     1      43.423 -13.789   6.413  1.00  0.00     0.006 A 
HETATM   23  C   UNL     1      42.905 -13.530   5.149  1.00  0.00     0.037 A 
BRANCH  20  24
HETATM   24  N   UNL     1      44.658 -10.417   7.316  1.00  0.00    -0.227 N 
HETATM   25  N   UNL     1      46.007 -10.264   7.427  1.00  0.00    -0.179 NA
HETATM   26  C   UNL     1      46.157  -9.182   8.192  1.00  0.00     0.141 A 
HETATM   27  C   UNL     1      44.931  -8.621   8.584  1.00  0.00     0.040 A 
HETATM   28  C   UNL     1      43.984  -9.431   8.008  1.00  0.00     0.122 A 
ENDBRANCH  20  24
ENDBRANCH   2  18
TORSDOF 7
ENDMDL
MODEL 9
REMARK VINA RESULT:      -7.4      2.981      4.332
REMARK  7 active torsions:
REMARK  status: ('A' for Active; 'I' for Inactive)
REMARK    1  A    between atoms: C_2  and  N_3 
REMARK    2  A    between atoms: C_2  and  C_17 
REMARK       I    between atoms: N_3  and  C_4 
REMARK    3  A    between atoms: C_4  and  C_5 
REMARK    4  A    between atoms: C_7  and  N_8 
REMARK    5  A    between atoms: C_17  and  O_18 
REMARK    6  A    between atoms: C_17  and  C_19 
REMARK    7  A    between atoms: C_22  and  O_23 
ROOT
HETATM    1  N   UNL     1      41.019 -13.241   2.098  1.00  0.00    -0.349 N 
HETATM    2  C   UNL     1      42.217 -12.899   2.689  1.00  0.00     0.270 C 
HETATM    3  O   UNL     1      43.293 -13.402   2.391  1.00  0.00    -0.266 OA
HETATM    4  H   UNL     1      40.182 -12.868   2.539  1.00  0.00     0.163 HD
ENDROOT
BRANCH   1   5
HETATM    5  C   UNL     1      40.904 -14.327   1.129  1.00  0.00     0.114 C 
HETATM    6  C   UNL     1      40.050 -13.877  -0.056  1.00  0.00     0.035 C 
BRANCH   5   7
HETATM    7  C   UNL     1      40.431 -15.664   1.771  1.00  0.00     0.173 C 
BRANCH   7   8
HETATM    8  O   UNL     1      39.184 -15.469   2.449  1.00  0.00    -0.389 OA
HETATM    9  H   UNL     1      38.744 -14.726   1.998  1.00  0.00     0.210 HD
ENDBRANCH   7   8
BRANCH   7  10
HETATM   10  C   UNL     1      41.432 -16.303   2.719  1.00  0.00    -0.028 A 
HETATM   11  C   UNL     1      41.265 -16.180   4.104  1.00  0.00     0.012 A 
HETATM   12  C   UNL     1      42.179 -16.767   4.984  1.00  0.00     0.037 A 
HETATM   13  C   UNL     1      43.274 -17.486   4.503  1.00  0.00     0.068 A 
HETATM   14  C   UNL     1      43.447 -17.620   3.127  1.00  0.00     0.037 A 
HETATM   15  C   UNL     1      42.533 -17.033   2.243  1.00  0.00     0.012 A 
BRANCH  13  16
HETATM   16  O   UNL     1      44.091 -18.003   5.470  1.00  0.00    -0.356 OA
HETATM   17  C   UNL     1      43.492 -18.304   6.724  1.00  0.00     0.210 C 
ENDBRANCH  13  16
ENDBRANCH   7  10
ENDBRANCH   5   7
ENDBRANCH   1   5
BRANCH   2  18
HETATM   18  C   UNL     1      42.107 -11.860   3.763  1.00  0.00     0.126 A 
HETATM   19  N   UNL     1      43.139 -11.802   4.652  1.00  0.00    -0.224 NA
HETATM   20  C   UNL     1      43.046 -10.859   5.630  1.00  0.00     0.151 A 
HETATM   21  C   UNL     1      41.962  -9.987   5.741  1.00  0.00     0.052 A 
HETATM   22  C   UNL     1      40.927 -10.075   4.812  1.00  0.00     0.006 A 
HETATM   23  C   UNL     1      40.998 -11.026   3.800  1.00  0.00     0.037 A 
BRANCH  20  24
HETATM   24  N   UNL     1      44.110 -10.761   6.576  1.00  0.00    -0.227 N 
HETATM   25  N   UNL     1      45.380 -11.167   6.296  1.00  0.00    -0.179 NA
HETATM   26  C   UNL     1      46.063 -10.919   7.415  1.00  0.00     0.141 A 
HETATM   27  C   UNL     1      45.264 -10.356   8.423  1.00  0.00     0.040 A 
HETATM   28  C   UNL     1      44.015 -10.264   7.860  1.00  0.00     0.122 A 
ENDBRANCH  20  24
ENDBRANCH   2  18
TORSDOF 7
ENDMDL
MODEL 10
REMARK VINA RESULT:      -7.3      2.639      3.837
REMARK  7 active torsions:
REMARK  status: ('A' for Active; 'I' for Inactive)
REMARK    1  A    between atoms: C_2  and  N_3 
REMARK    2  A    between atoms: C_2  and  C_17 
REMARK       I    between atoms: N_3  and  C_4 
REMARK    3  A    between atoms: C_4  and  C_5 
REMARK    4  A    between atoms: C_7  and  N_8 
REMARK    5  A    between atoms: C_17  and  O_18 
REMARK    6  A    between atoms: C_17  and  C_19 
REMARK    7  A    between atoms: C_22  and  O_23 
ROOT
HETATM    1  N   UNL     1      41.478 -13.351   4.177  1.00  0.00    -0.349 N 
HETATM    2  C   UNL     1      40.732 -12.194   4.254  1.00  0.00     0.270 C 
HETATM    3  O   UNL     1      39.880 -11.874   3.434  1.00  0.00    -0.266 OA
HETATM    4  H   UNL     1      42.255 -13.424   4.828  1.00  0.00     0.163 HD
ENDROOT
BRANCH   1   5
HETATM    5  C   UNL     1      41.400 -14.259   3.036  1.00  0.00     0.114 C 
HETATM    6  C   UNL     1      40.417 -15.391   3.340  1.00  0.00     0.035 C 
BRANCH   5   7
HETATM    7  C   UNL     1      42.797 -14.754   2.559  1.00  0.00     0.173 C 
BRANCH   7   8
HETATM    8  O   UNL     1      42.850 -14.764   1.127  1.00  0.00    -0.389 OA
HETATM    9  H   UNL     1      43.575 -14.162   0.879  1.00  0.00     0.210 HD
ENDBRANCH   7   8
BRANCH   7  10
HETATM   10  C   UNL     1      43.205 -16.116   3.094  1.00  0.00    -0.028 A 
HETATM   11  C   UNL     1      43.573 -16.261   4.438  1.00  0.00     0.012 A 
HETATM   12  C   UNL     1      43.947 -17.511   4.941  1.00  0.00     0.037 A 
HETATM   13  C   UNL     1      43.962 -18.637   4.117  1.00  0.00     0.068 A 
HETATM   14  C   UNL     1      43.592 -18.506   2.781  1.00  0.00     0.037 A 
HETATM   15  C   UNL     1      43.216 -17.255   2.274  1.00  0.00     0.012 A 
BRANCH  13  16
HETATM   16  O   UNL     1      44.351 -19.795   4.734  1.00  0.00    -0.356 OA
HETATM   17  C   UNL     1      43.943 -21.014   4.128  1.00  0.00     0.210 C 
ENDBRANCH  13  16
ENDBRANCH   7  10
ENDBRANCH   5   7
ENDBRANCH   1   5
BRANCH   2  18
HETATM   18  C   UNL     1      41.057 -11.321   5.428  1.00  0.00     0.126 A 
HETATM   19  N   UNL     1      42.372 -11.257   5.783  1.00  0.00    -0.224 NA
HETATM   20  C   UNL     1      42.675 -10.464   6.848  1.00  0.00     0.151 A 
HETATM   21  C   UNL     1      41.710  -9.747   7.558  1.00  0.00     0.052 A 
HETATM   22  C   UNL     1      40.377  -9.836   7.163  1.00  0.00     0.006 A 
HETATM   23  C   UNL     1      40.040 -10.635   6.076  1.00  0.00     0.037 A 
BRANCH  20  24
HETATM   24  N   UNL     1      44.042 -10.364   7.248  1.00  0.00    -0.227 N 
HETATM   25  N   UNL     1      44.492  -9.380   8.076  1.00  0.00    -0.179 NA
HETATM   26  C   UNL     1      45.798  -9.625   8.202  1.00  0.00     0.141 A 
HETATM   27  C   UNL     1      46.211 -10.751   7.473  1.00  0.00     0.040 A 
HETATM   28  C   UNL     1      45.066 -11.208   6.869  1.00  0.00     0.122 A 
ENDBRANCH  20  24
ENDBRANCH   2  18
TORSDOF 7
ENDMDL
