MODEL 1
REMARK VINA RESULT:      -7.2      0.000      0.000
REMARK  5 active torsions:
REMARK  status: ('A' for Active; 'I' for Inactive)
REMARK    1  A    between atoms: C_8  and  C_9 
REMARK    2  A    between atoms: C_11  and  O_12 
REMARK    3  A    between atoms: C_14  and  O_15 
REMARK    4  A    between atoms: C_18  and  C_19 
REMARK    5  A    between atoms: C_22  and  O_23 
ROOT
HETATM    1  C   UNL     1      44.093 -13.051   6.399  1.00  0.00     0.070 C 
HETATM    2  C   UNL     1      42.714 -12.632   6.054  1.00  0.00     0.033 A 
HETATM    3  N   UNL     1      42.093 -11.600   6.707  1.00  0.00    -0.282 N 
HETATM    4  H   UNL     1      42.457 -11.026   7.460  1.00  0.00     0.189 HD
HETATM    5  N   UNL     1      40.861 -11.334   6.246  1.00  0.00    -0.179 NA
HETATM    6  C   UNL     1      40.683 -12.240   5.286  1.00  0.00     0.066 A 
HETATM    7  C   UNL     1      41.793 -13.103   5.134  1.00  0.00     0.001 A 
HETATM    8  C   UNL     1      41.848 -14.187   4.095  1.00  0.00     0.070 C 
HETATM    9  C   UNL     1      40.479 -14.397   3.384  1.00  0.00     0.102 C 
HETATM   10  C   UNL     1      39.674 -13.074   3.141  1.00  0.00     0.071 C 
HETATM   11  C   UNL     1      40.337 -12.153   2.106  1.00  0.00     0.047 C 
HETATM   12  C   UNL     1      39.443 -12.316   4.475  1.00  0.00     0.100 C 
ENDROOT
BRANCH   8  13
HETATM   13  C   UNL     1      42.331 -15.440   4.822  1.00  0.00    -0.046 A 
HETATM   14  C   UNL     1      43.309 -16.295   4.268  1.00  0.00     0.047 A 
HETATM   15  C   UNL     1      43.736 -17.435   4.954  1.00  0.00     0.101 A 
HETATM   16  C   UNL     1      43.178 -17.716   6.205  1.00  0.00     0.099 A 
HETATM   17  C   UNL     1      42.212 -16.897   6.770  1.00  0.00     0.040 A 
HETATM   18  C   UNL     1      41.786 -15.764   6.079  1.00  0.00     0.011 A 
BRANCH  15  19
HETATM   19  O   UNL     1      44.669 -18.340   4.521  1.00  0.00    -0.353 OA
HETATM   20  C   UNL     1      44.324 -19.116   3.378  1.00  0.00     0.210 C 
ENDBRANCH  15  19
BRANCH  16  21
HETATM   21  O   UNL     1      43.574 -18.823   6.903  1.00  0.00    -0.358 OA
HETATM   22  H   UNL     1      43.736 -18.501   7.811  1.00  0.00     0.218 HD
ENDBRANCH  16  21
ENDBRANCH   8  13
BRANCH   9  23
HETATM   23  C   UNL     1      40.567 -15.174   2.068  1.00  0.00     0.131 C 
HETATM   24  C   UNL     1      41.797 -15.106   1.203  1.00  0.00     0.091 C 
HETATM   25  O   UNL     1      39.575 -15.795   1.668  1.00  0.00    -0.298 OA
ENDBRANCH   9  23
BRANCH  10  26
HETATM   26  O   UNL     1      38.355 -13.378   2.646  1.00  0.00    -0.389 OA
HETATM   27  H   UNL     1      38.393 -13.504   1.674  1.00  0.00     0.210 HD
ENDBRANCH  10  26
TORSDOF 5
ENDMDL
MODEL 2
REMARK VINA RESULT:      -6.8      5.586      7.597
REMARK  5 active torsions:
REMARK  status: ('A' for Active; 'I' for Inactive)
REMARK    1  A    between atoms: C_8  and  C_9 
REMARK    2  A    between atoms: C_11  and  O_12 
REMARK    3  A    between atoms: C_14  and  O_15 
REMARK    4  A    between atoms: C_18  and  C_19 
REMARK    5  A    between atoms: C_22  and  O_23 
ROOT
HETATM    1  C   UNL     1      43.527  -9.146  11.943  1.00  0.00     0.070 C 
HETATM    2  C   UNL     1      42.158  -9.391  11.431  1.00  0.00     0.033 A 
HETATM    3  N   UNL     1      41.222 -10.057  12.177  1.00  0.00    -0.282 N 
HETATM    4  H   UNL     1      41.325 -10.450  13.106  1.00  0.00     0.189 HD
HETATM    5  N   UNL     1      40.028 -10.162  11.573  1.00  0.00    -0.179 NA
HETATM    6  C   UNL     1      40.216  -9.563  10.399  1.00  0.00     0.066 A 
HETATM    7  C   UNL     1      41.536  -9.084  10.233  1.00  0.00     0.001 A 
HETATM    8  C   UNL     1      41.988  -8.343   9.006  1.00  0.00     0.070 C 
HETATM    9  C   UNL     1      40.924  -8.375   7.869  1.00  0.00     0.102 C 
HETATM   10  C   UNL     1      39.443  -8.289   8.375  1.00  0.00     0.071 C 
HETATM   11  C   UNL     1      39.096  -6.922   8.982  1.00  0.00     0.047 C 
HETATM   12  C   UNL     1      39.140  -9.426   9.388  1.00  0.00     0.100 C 
ENDROOT
BRANCH   8  13
HETATM   13  C   UNL     1      43.309  -8.985   8.592  1.00  0.00    -0.046 A 
HETATM   14  C   UNL     1      43.383 -10.325   8.151  1.00  0.00     0.047 A 
HETATM   15  C   UNL     1      44.604 -10.889   7.775  1.00  0.00     0.101 A 
HETATM   16  C   UNL     1      45.758 -10.104   7.843  1.00  0.00     0.099 A 
HETATM   17  C   UNL     1      45.716  -8.788   8.278  1.00  0.00     0.040 A 
HETATM   18  C   UNL     1      44.495  -8.231   8.656  1.00  0.00     0.011 A 
BRANCH  15  19
HETATM   19  O   UNL     1      44.804 -12.173   7.337  1.00  0.00    -0.353 OA
HETATM   20  C   UNL     1      43.690 -12.822   6.733  1.00  0.00     0.210 C 
ENDBRANCH  15  19
BRANCH  16  21
HETATM   21  O   UNL     1      46.970 -10.625   7.482  1.00  0.00    -0.358 OA
HETATM   22  H   UNL     1      46.994 -10.551   6.508  1.00  0.00     0.218 HD
ENDBRANCH  16  21
ENDBRANCH   8  13
BRANCH   9  23
HETATM   23  C   UNL     1      41.138  -7.322   6.779  1.00  0.00     0.131 C 
HETATM   24  C   UNL     1      41.853  -6.030   7.071  1.00  0.00     0.091 C 
HETATM   25  O   UNL     1      40.635  -7.500   5.663  1.00  0.00    -0.298 OA
ENDBRANCH   9  23
BRANCH  10  26
HETATM   26  O   UNL     1      38.529  -8.505   7.281  1.00  0.00    -0.389 OA
HETATM   27  H   UNL     1      38.849  -8.019   6.491  1.00  0.00     0.210 HD
ENDBRANCH  10  26
TORSDOF 5
ENDMDL
MODEL 3
REMARK VINA RESULT:      -6.8      3.107      4.976
REMARK  5 active torsions:
REMARK  status: ('A' for Active; 'I' for Inactive)
REMARK    1  A    between atoms: C_8  and  C_9 
REMARK    2  A    between atoms: C_11  and  O_12 
REMARK    3  A    between atoms: C_14  and  O_15 
REMARK    4  A    between atoms: C_18  and  C_19 
REMARK    5  A    between atoms: C_22  and  O_23 
ROOT
HETATM    1  C   UNL     1      41.989 -15.484   6.928  1.00  0.00     0.070 C 
HETATM    2  C   UNL     1      42.305 -15.863   5.531  1.00  0.00     0.033 A 
HETATM    3  N   UNL     1      43.062 -16.967   5.242  1.00  0.00    -0.282 N 
HETATM    4  H   UNL     1      43.483 -17.626   5.889  1.00  0.00     0.189 HD
HETATM    5  N   UNL     1      43.224 -17.180   3.927  1.00  0.00    -0.179 NA
HETATM    6  C   UNL     1      42.568 -16.168   3.362  1.00  0.00     0.066 A 
HETATM    7  C   UNL     1      41.995 -15.289   4.310  1.00  0.00     0.001 A 
HETATM    8  C   UNL     1      41.178 -14.089   3.922  1.00  0.00     0.070 C 
HETATM    9  C   UNL     1      41.237 -13.801   2.393  1.00  0.00     0.102 C 
HETATM   10  C   UNL     1      41.272 -15.088   1.500  1.00  0.00     0.071 C 
HETATM   11  C   UNL     1      39.956 -15.878   1.538  1.00  0.00     0.047 C 
HETATM   12  C   UNL     1      42.465 -16.000   1.892  1.00  0.00     0.100 C 
ENDROOT
BRANCH   8  13
HETATM   13  C   UNL     1      41.713 -12.930   4.760  1.00  0.00    -0.046 A 
HETATM   14  C   UNL     1      43.064 -12.524   4.696  1.00  0.00     0.047 A 
HETATM   15  C   UNL     1      43.529 -11.459   5.471  1.00  0.00     0.101 A 
HETATM   16  C   UNL     1      42.632 -10.798   6.315  1.00  0.00     0.099 A 
HETATM   17  C   UNL     1      41.302 -11.179   6.402  1.00  0.00     0.040 A 
HETATM   18  C   UNL     1      40.844 -12.246   5.630  1.00  0.00     0.011 A 
BRANCH  15  19
HETATM   19  O   UNL     1      44.812 -10.976   5.500  1.00  0.00    -0.353 OA
HETATM   20  C   UNL     1      45.692 -11.561   6.455  1.00  0.00     0.210 C 
ENDBRANCH  15  19
BRANCH  16  21
HETATM   21  O   UNL     1      43.055  -9.751   7.087  1.00  0.00    -0.358 OA
HETATM   22  H   UNL     1      42.780  -8.951   6.596  1.00  0.00     0.218 HD
ENDBRANCH  16  21
ENDBRANCH   8  13
BRANCH   9  23
HETATM   23  C   UNL     1      40.131 -12.873   1.885  1.00  0.00     0.131 C 
HETATM   24  C   UNL     1      38.851 -12.691   2.656  1.00  0.00     0.091 C 
HETATM   25  O   UNL     1      40.257 -12.335   0.778  1.00  0.00    -0.298 OA
ENDBRANCH   9  23
BRANCH  10  26
HETATM   26  O   UNL     1      41.506 -14.732   0.122  1.00  0.00    -0.389 OA
HETATM   27  H   UNL     1      42.262 -15.253  -0.224  1.00  0.00     0.210 HD
ENDBRANCH  10  26
TORSDOF 5
ENDMDL
MODEL 4
REMARK VINA RESULT:      -6.8      2.819      4.311
REMARK  5 active torsions:
REMARK  status: ('A' for Active; 'I' for Inactive)
REMARK    1  A    between atoms: C_8  and  C_9 
REMARK    2  A    between atoms: C_11  and  O_12 
REMARK    3  A    between atoms: C_14  and  O_15 
REMARK    4  A    between atoms: C_18  and  C_19 
REMARK    5  A    between atoms: C_22  and  O_23 
ROOT
HETATM    1  C   UNL     1      39.508 -16.079   2.148  1.00  0.00     0.070 C 
HETATM    2  C   UNL     1      40.006 -14.735   1.772  1.00  0.00     0.033 A 
HETATM    3  N   UNL     1      39.546 -14.087   0.656  1.00  0.00    -0.282 N 
HETATM    4  H   UNL     1      38.860 -14.409  -0.018  1.00  0.00     0.189 HD
HETATM    5  N   UNL     1      40.079 -12.867   0.484  1.00  0.00    -0.179 NA
HETATM    6  C   UNL     1      40.921 -12.745   1.509  1.00  0.00     0.066 A 
HETATM    7  C   UNL     1      40.945 -13.890   2.337  1.00  0.00     0.001 A 
HETATM    8  C   UNL     1      41.791 -13.984   3.576  1.00  0.00     0.070 C 
HETATM    9  C   UNL     1      42.789 -12.796   3.704  1.00  0.00     0.102 C 
HETATM   10  C   UNL     1      42.217 -11.423   3.208  1.00  0.00     0.071 C 
HETATM   11  C   UNL     1      41.095 -10.883   4.105  1.00  0.00     0.047 C 
HETATM   12  C   UNL     1      41.736 -11.527   1.736  1.00  0.00     0.100 C 
ENDROOT
BRANCH   8  13
HETATM   13  C   UNL     1      42.494 -15.337   3.502  1.00  0.00    -0.046 A 
HETATM   14  C   UNL     1      42.651 -16.160   4.640  1.00  0.00     0.047 A 
HETATM   15  C   UNL     1      43.297 -17.395   4.546  1.00  0.00     0.101 A 
HETATM   16  C   UNL     1      43.786 -17.807   3.303  1.00  0.00     0.099 A 
HETATM   17  C   UNL     1      43.650 -17.017   2.171  1.00  0.00     0.040 A 
HETATM   18  C   UNL     1      43.009 -15.783   2.271  1.00  0.00     0.011 A 
BRANCH  15  19
HETATM   19  O   UNL     1      43.515 -18.277   5.573  1.00  0.00    -0.353 OA
HETATM   20  C   UNL     1      43.306 -17.783   6.893  1.00  0.00     0.210 C 
ENDBRANCH  15  19
BRANCH  16  21
HETATM   21  O   UNL     1      44.422 -19.011   3.176  1.00  0.00    -0.358 OA
HETATM   22  H   UNL     1      45.218 -18.934   3.737  1.00  0.00     0.218 HD
ENDBRANCH  16  21
ENDBRANCH   8  13
BRANCH   9  23
HETATM   23  C   UNL     1      43.372 -12.613   5.108  1.00  0.00     0.131 C 
HETATM   24  C   UNL     1      42.676 -13.172   6.320  1.00  0.00     0.091 C 
HETATM   25  O   UNL     1      44.384 -11.917   5.253  1.00  0.00    -0.298 OA
ENDBRANCH   9  23
BRANCH  10  26
HETATM   26  O   UNL     1      43.259 -10.426   3.195  1.00  0.00    -0.389 OA
HETATM   27  H   UNL     1      42.984  -9.676   2.625  1.00  0.00     0.210 HD
ENDBRANCH  10  26
TORSDOF 5
ENDMDL
MODEL 5
REMARK VINA RESULT:      -6.7     15.461     17.736
REMARK  5 active torsions:
REMARK  status: ('A' for Active; 'I' for Inactive)
REMARK    1  A    between atoms: C_8  and  C_9 
REMARK    2  A    between atoms: C_11  and  O_12 
REMARK    3  A    between atoms: C_14  and  O_15 
REMARK    4  A    between atoms: C_18  and  C_19 
REMARK    5  A    between atoms: C_22  and  O_23 
ROOT
HETATM    1  C   UNL     1      43.513 -33.244  -1.311  1.00  0.00     0.070 C 
HETATM    2  C   UNL     1      43.506 -32.220  -0.240  1.00  0.00     0.033 A 
HETATM    3  N   UNL     1      42.546 -32.211   0.737  1.00  0.00    -0.282 N 
HETATM    4  H   UNL     1      41.765 -32.848   0.855  1.00  0.00     0.189 HD
HETATM    5  N   UNL     1      42.708 -31.234   1.643  1.00  0.00    -0.179 NA
HETATM    6  C   UNL     1      43.792 -30.589   1.217  1.00  0.00     0.066 A 
HETATM    7  C   UNL     1      44.324 -31.135   0.027  1.00  0.00     0.001 A 
HETATM    8  C   UNL     1      45.564 -30.603  -0.634  1.00  0.00     0.070 C 
HETATM    9  C   UNL     1      46.045 -29.264  -0.001  1.00  0.00     0.102 C 
HETATM   10  C   UNL     1      45.848 -29.183   1.552  1.00  0.00     0.071 C 
HETATM   11  C   UNL     1      46.763 -30.147   2.321  1.00  0.00     0.047 C 
HETATM   12  C   UNL     1      44.363 -29.421   1.933  1.00  0.00     0.100 C 
ENDROOT
BRANCH   8  13
HETATM   13  C   UNL     1      45.222 -30.464  -2.115  1.00  0.00    -0.046 A 
HETATM   14  C   UNL     1      45.923 -31.176  -3.114  1.00  0.00     0.047 A 
HETATM   15  C   UNL     1      45.590 -31.033  -4.463  1.00  0.00     0.101 A 
HETATM   16  C   UNL     1      44.547 -30.171  -4.811  1.00  0.00     0.099 A 
HETATM   17  C   UNL     1      43.845 -29.455  -3.853  1.00  0.00     0.040 A 
HETATM   18  C   UNL     1      44.185 -29.598  -2.508  1.00  0.00     0.011 A 
BRANCH  15  19
HETATM   19  O   UNL     1      46.197 -31.662  -5.519  1.00  0.00    -0.353 OA
HETATM   20  C   UNL     1      47.257 -32.559  -5.205  1.00  0.00     0.210 C 
ENDBRANCH  15  19
BRANCH  16  21
HETATM   21  O   UNL     1      44.194 -30.009  -6.123  1.00  0.00    -0.358 OA
HETATM   22  H   UNL     1      44.535 -29.126  -6.366  1.00  0.00     0.218 HD
ENDBRANCH  16  21
ENDBRANCH   8  13
BRANCH   9  23
HETATM   23  C   UNL     1      47.491 -28.892  -0.339  1.00  0.00     0.131 C 
HETATM   24  C   UNL     1      48.508 -29.947  -0.681  1.00  0.00     0.091 C 
HETATM   25  O   UNL     1      47.847 -27.712  -0.241  1.00  0.00    -0.298 OA
ENDBRANCH   9  23
BRANCH  10  26
HETATM   26  O   UNL     1      46.150 -27.854   2.023  1.00  0.00    -0.389 OA
HETATM   27  H   UNL     1      46.008 -27.813   2.993  1.00  0.00     0.210 HD
ENDBRANCH  10  26
TORSDOF 5
ENDMDL
MODEL 6
REMARK VINA RESULT:      -6.6     15.163     16.741
REMARK  5 active torsions:
REMARK  status: ('A' for Active; 'I' for Inactive)
REMARK    1  A    between atoms: C_8  and  C_9 
REMARK    2  A    between atoms: C_11  and  O_12 
REMARK    3  A    between atoms: C_14  and  O_15 
REMARK    4  A    between atoms: C_18  and  C_19 
REMARK    5  A    between atoms: C_22  and  O_23 
ROOT
HETATM    1  C   UNL     1      45.944 -31.112   2.826  1.00  0.00     0.070 C 
HETATM    2  C   UNL     1      46.235 -29.959   1.943  1.00  0.00     0.033 A 
HETATM    3  N   UNL     1      47.034 -28.925   2.354  1.00  0.00    -0.282 N 
HETATM    4  H   UNL     1      47.497 -28.807   3.248  1.00  0.00     0.189 HD
HETATM    5  N   UNL     1      47.217 -27.981   1.417  1.00  0.00    -0.179 NA
HETATM    6  C   UNL     1      46.495 -28.417   0.386  1.00  0.00     0.066 A 
HETATM    7  C   UNL     1      45.831 -29.635   0.659  1.00  0.00     0.001 A 
HETATM    8  C   UNL     1      44.981 -30.346  -0.356  1.00  0.00     0.070 C 
HETATM    9  C   UNL     1      44.732 -29.485  -1.629  1.00  0.00     0.102 C 
HETATM   10  C   UNL     1      45.959 -28.611  -2.061  1.00  0.00     0.071 C 
HETATM   11  C   UNL     1      47.139 -29.449  -2.573  1.00  0.00     0.047 C 
HETATM   12  C   UNL     1      46.412 -27.685  -0.901  1.00  0.00     0.100 C 
ENDROOT
BRANCH   8  13
HETATM   13  C   UNL     1      43.688 -30.715   0.367  1.00  0.00    -0.046 A 
HETATM   14  C   UNL     1      43.209 -32.044   0.408  1.00  0.00     0.047 A 
HETATM   15  C   UNL     1      42.023 -32.357   1.078  1.00  0.00     0.101 A 
HETATM   16  C   UNL     1      41.316 -31.331   1.710  1.00  0.00     0.099 A 
HETATM   17  C   UNL     1      41.759 -30.017   1.680  1.00  0.00     0.040 A 
HETATM   18  C   UNL     1      42.941 -29.710   1.007  1.00  0.00     0.011 A 
BRANCH  15  19
HETATM   19  O   UNL     1      41.456 -33.601   1.183  1.00  0.00    -0.353 OA
HETATM   20  C   UNL     1      42.071 -34.648   0.440  1.00  0.00     0.210 C 
ENDBRANCH  15  19
BRANCH  16  21
HETATM   21  O   UNL     1      40.152 -31.603   2.374  1.00  0.00    -0.358 OA
HETATM   22  H   UNL     1      39.625 -30.784   2.302  1.00  0.00     0.218 HD
ENDBRANCH  16  21
ENDBRANCH   8  13
BRANCH   9  23
HETATM   23  C   UNL     1      44.238 -30.281  -2.840  1.00  0.00     0.131 C 
HETATM   24  C   UNL     1      44.512 -31.755  -2.968  1.00  0.00     0.091 C 
HETATM   25  O   UNL     1      43.683 -29.681  -3.768  1.00  0.00    -0.298 OA
ENDBRANCH   9  23
BRANCH  10  26
HETATM   26  O   UNL     1      45.584 -27.720  -3.130  1.00  0.00    -0.389 OA
HETATM   27  H   UNL     1      46.310 -27.678  -3.788  1.00  0.00     0.210 HD
ENDBRANCH  10  26
TORSDOF 5
ENDMDL
MODEL 7
REMARK VINA RESULT:      -6.5      3.356      6.539
REMARK  5 active torsions:
REMARK  status: ('A' for Active; 'I' for Inactive)
REMARK    1  A    between atoms: C_8  and  C_9 
REMARK    2  A    between atoms: C_11  and  O_12 
REMARK    3  A    between atoms: C_14  and  O_15 
REMARK    4  A    between atoms: C_18  and  C_19 
REMARK    5  A    between atoms: C_22  and  O_23 
ROOT
HETATM    1  C   UNL     1      37.252 -11.465   0.667  1.00  0.00     0.070 C 
HETATM    2  C   UNL     1      38.134 -11.211   1.831  1.00  0.00     0.033 A 
HETATM    3  N   UNL     1      37.914 -10.159   2.680  1.00  0.00    -0.282 N 
HETATM    4  H   UNL     1      37.182  -9.458   2.635  1.00  0.00     0.189 HD
HETATM    5  N   UNL     1      38.788 -10.096   3.697  1.00  0.00    -0.179 NA
HETATM    6  C   UNL     1      39.601 -11.127   3.476  1.00  0.00     0.066 A 
HETATM    7  C   UNL     1      39.266 -11.849   2.307  1.00  0.00     0.001 A 
HETATM    8  C   UNL     1      40.013 -13.074   1.861  1.00  0.00     0.070 C 
HETATM    9  C   UNL     1      41.314 -13.308   2.684  1.00  0.00     0.102 C 
HETATM   10  C   UNL     1      41.186 -12.938   4.202  1.00  0.00     0.071 C 
HETATM   11  C   UNL     1      40.250 -13.881   4.971  1.00  0.00     0.047 C 
HETATM   12  C   UNL     1      40.733 -11.463   4.374  1.00  0.00     0.100 C 
ENDROOT
BRANCH   8  13
HETATM   13  C   UNL     1      40.287 -12.878   0.372  1.00  0.00    -0.046 A 
HETATM   14  C   UNL     1      39.853 -13.810  -0.597  1.00  0.00     0.047 A 
HETATM   15  C   UNL     1      40.114 -13.606  -1.954  1.00  0.00     0.101 A 
HETATM   16  C   UNL     1      40.815 -12.461  -2.341  1.00  0.00     0.099 A 
HETATM   17  C   UNL     1      41.258 -11.532  -1.411  1.00  0.00     0.040 A 
HETATM   18  C   UNL     1      40.999 -11.742  -0.057  1.00  0.00     0.011 A 
BRANCH  15  19
HETATM   19  O   UNL     1      39.752 -14.437  -2.983  1.00  0.00    -0.353 OA
HETATM   20  C   UNL     1      38.363 -14.500  -3.293  1.00  0.00     0.210 C 
ENDBRANCH  15  19
BRANCH  16  21
HETATM   21  O   UNL     1      41.087 -12.231  -3.661  1.00  0.00    -0.358 OA
HETATM   22  H   UNL     1      41.870 -12.782  -3.855  1.00  0.00     0.218 HD
ENDBRANCH  16  21
ENDBRANCH   8  13
BRANCH   9  23
HETATM   23  C   UNL     1      41.888 -14.722   2.564  1.00  0.00     0.131 C 
HETATM   24  C   UNL     1      41.004 -15.898   2.249  1.00  0.00     0.091 C 
HETATM   25  O   UNL     1      43.084 -14.909   2.820  1.00  0.00    -0.298 OA
ENDBRANCH   9  23
BRANCH  10  26
HETATM   26  O   UNL     1      42.475 -13.014   4.843  1.00  0.00    -0.389 OA
HETATM   27  H   UNL     1      43.066 -13.594   4.318  1.00  0.00     0.210 HD
ENDBRANCH  10  26
TORSDOF 5
ENDMDL
MODEL 8
REMARK VINA RESULT:      -6.3     12.180     14.366
REMARK  5 active torsions:
REMARK  status: ('A' for Active; 'I' for Inactive)
REMARK    1  A    between atoms: C_8  and  C_9 
REMARK    2  A    between atoms: C_11  and  O_12 
REMARK    3  A    between atoms: C_14  and  O_15 
REMARK    4  A    between atoms: C_18  and  C_19 
REMARK    5  A    between atoms: C_22  and  O_23 
ROOT
HETATM    1  C   UNL     1      39.215  -5.639  13.022  1.00  0.00     0.070 C 
HETATM    2  C   UNL     1      39.902  -4.744  13.982  1.00  0.00     0.033 A 
HETATM    3  N   UNL     1      39.946  -3.388  13.792  1.00  0.00    -0.282 N 
HETATM    4  H   UNL     1      39.553  -2.848  13.028  1.00  0.00     0.189 HD
HETATM    5  N   UNL     1      40.581  -2.727  14.773  1.00  0.00    -0.179 NA
HETATM    6  C   UNL     1      40.971  -3.694  15.601  1.00  0.00     0.066 A 
HETATM    7  C   UNL     1      40.604  -4.983  15.150  1.00  0.00     0.001 A 
HETATM    8  C   UNL     1      40.902  -6.235  15.926  1.00  0.00     0.070 C 
HETATM    9  C   UNL     1      41.848  -5.972  17.135  1.00  0.00     0.102 C 
HETATM   10  C   UNL     1      41.597  -4.604  17.858  1.00  0.00     0.071 C 
HETATM   11  C   UNL     1      40.253  -4.556  18.598  1.00  0.00     0.047 C 
HETATM   12  C   UNL     1      41.711  -3.423  16.857  1.00  0.00     0.100 C 
ENDROOT
BRANCH   8  13
HETATM   13  C   UNL     1      41.493  -7.220  14.921  1.00  0.00    -0.046 A 
HETATM   14  C   UNL     1      40.851  -8.437  14.601  1.00  0.00     0.047 A 
HETATM   15  C   UNL     1      41.412  -9.321  13.676  1.00  0.00     0.101 A 
HETATM   16  C   UNL     1      42.623  -8.980  13.067  1.00  0.00     0.099 A 
HETATM   17  C   UNL     1      43.278  -7.795  13.366  1.00  0.00     0.040 A 
HETATM   18  C   UNL     1      42.717  -6.919  14.294  1.00  0.00     0.011 A 
BRANCH  15  19
HETATM   19  O   UNL     1      40.890 -10.528  13.289  1.00  0.00    -0.353 OA
HETATM   20  C   UNL     1      39.523 -10.535  12.891  1.00  0.00     0.210 C 
ENDBRANCH  15  19
BRANCH  16  21
HETATM   21  O   UNL     1      43.198  -9.823  12.157  1.00  0.00    -0.358 OA
HETATM   22  H   UNL     1      44.110  -9.956  12.480  1.00  0.00     0.218 HD
ENDBRANCH  16  21
ENDBRANCH   8  13
BRANCH   9  23
HETATM   23  C   UNL     1      41.858  -7.091  18.180  1.00  0.00     0.131 C 
HETATM   24  C   UNL     1      40.667  -7.992  18.369  1.00  0.00     0.091 C 
HETATM   25  O   UNL     1      42.829  -7.196  18.940  1.00  0.00    -0.298 OA
ENDBRANCH   9  23
BRANCH  10  26
HETATM   26  O   UNL     1      42.625  -4.366  18.841  1.00  0.00    -0.389 OA
HETATM   27  H   UNL     1      43.185  -5.166  18.926  1.00  0.00     0.210 HD
ENDBRANCH  10  26
TORSDOF 5
ENDMDL
MODEL 9
REMARK VINA RESULT:      -6.3     22.302     23.906
REMARK  5 active torsions:
REMARK  status: ('A' for Active; 'I' for Inactive)
REMARK    1  A    between atoms: C_8  and  C_9 
REMARK    2  A    between atoms: C_11  and  O_12 
REMARK    3  A    between atoms: C_14  and  O_15 
REMARK    4  A    between atoms: C_18  and  C_19 
REMARK    5  A    between atoms: C_22  and  O_23 
ROOT
HETATM    1  C   UNL     1      28.353 -34.950  15.421  1.00  0.00     0.070 C 
HETATM    2  C   UNL     1      28.680 -33.615  15.972  1.00  0.00     0.033 A 
HETATM    3  N   UNL     1      27.756 -32.878  16.665  1.00  0.00    -0.282 N 
HETATM    4  H   UNL     1      26.794 -33.119  16.877  1.00  0.00     0.189 HD
HETATM    5  N   UNL     1      28.231 -31.708  17.120  1.00  0.00    -0.179 NA
HETATM    6  C   UNL     1      29.489 -31.690  16.685  1.00  0.00     0.066 A 
HETATM    7  C   UNL     1      29.827 -32.840  15.935  1.00  0.00     0.001 A 
HETATM    8  C   UNL     1      31.198 -33.069  15.363  1.00  0.00     0.070 C 
HETATM    9  C   UNL     1      32.110 -31.812  15.489  1.00  0.00     0.102 C 
HETATM   10  C   UNL     1      31.902 -31.001  16.814  1.00  0.00     0.071 C 
HETATM   11  C   UNL     1      32.377 -31.760  18.061  1.00  0.00     0.047 C 
HETATM   12  C   UNL     1      30.419 -30.570  16.970  1.00  0.00     0.100 C 
ENDROOT
BRANCH   8  13
HETATM   13  C   UNL     1      30.981 -33.495  13.914  1.00  0.00    -0.046 A 
HETATM   14  C   UNL     1      31.506 -34.705  13.405  1.00  0.00     0.047 A 
HETATM   15  C   UNL     1      31.293 -35.074  12.075  1.00  0.00     0.101 A 
HETATM   16  C   UNL     1      30.547 -34.226  11.252  1.00  0.00     0.099 A 
HETATM   17  C   UNL     1      30.025 -33.031  11.723  1.00  0.00     0.040 A 
HETATM   18  C   UNL     1      30.245 -32.664  13.050  1.00  0.00     0.011 A 
BRANCH  15  19
HETATM   19  O   UNL     1      31.753 -36.213  11.466  1.00  0.00    -0.353 OA
HETATM   20  C   UNL     1      33.163 -36.330  11.313  1.00  0.00     0.210 C 
ENDBRANCH  15  19
BRANCH  16  21
HETATM   21  O   UNL     1      30.319 -34.559   9.945  1.00  0.00    -0.358 OA
HETATM   22  H   UNL     1      30.821 -35.385   9.805  1.00  0.00     0.218 HD
ENDBRANCH  16  21
ENDBRANCH   8  13
BRANCH   9  23
HETATM   23  C   UNL     1      33.603 -32.100  15.311  1.00  0.00     0.131 C 
HETATM   24  C   UNL     1      34.167 -33.474  15.551  1.00  0.00     0.091 C 
HETATM   25  O   UNL     1      34.369 -31.164  15.051  1.00  0.00    -0.298 OA
ENDBRANCH   9  23
BRANCH  10  26
HETATM   26  O   UNL     1      32.650 -29.769  16.764  1.00  0.00    -0.389 OA
HETATM   27  H   UNL     1      32.061 -29.043  16.466  1.00  0.00     0.210 HD
ENDBRANCH  10  26
TORSDOF 5
ENDMDL
MODEL 10
REMARK VINA RESULT:      -6.1      7.709     10.359
REMARK  5 active torsions:
REMARK  status: ('A' for Active; 'I' for Inactive)
REMARK    1  A    between atoms: C_8  and  C_9 
REMARK    2  A    between atoms: C_11  and  O_12 
REMARK    3  A    between atoms: C_14  and  O_15 
REMARK    4  A    between atoms: C_18  and  C_19 
REMARK    5  A    between atoms: C_22  and  O_23 
ROOT
HETATM    1  C   UNL     1      45.372  -8.632   8.529  1.00  0.00     0.070 C 
HETATM    2  C   UNL     1      44.756  -9.299   9.700  1.00  0.00     0.033 A 
HETATM    3  N   UNL     1      45.259 -10.468  10.207  1.00  0.00    -0.282 N 
HETATM    4  H   UNL     1      46.056 -11.002   9.877  1.00  0.00     0.189 HD
HETATM    5  N   UNL     1      44.599 -10.915  11.286  1.00  0.00    -0.179 NA
HETATM    6  C   UNL     1      43.633 -10.015  11.459  1.00  0.00     0.066 A 
HETATM    7  C   UNL     1      43.656  -8.993  10.482  1.00  0.00     0.001 A 
HETATM    8  C   UNL     1      42.687  -7.843  10.480  1.00  0.00     0.070 C 
HETATM    9  C   UNL     1      41.538  -8.035  11.514  1.00  0.00     0.102 C 
HETATM   10  C   UNL     1      41.985  -8.723  12.848  1.00  0.00     0.071 C 
HETATM   11  C   UNL     1      42.915  -7.841  13.694  1.00  0.00     0.047 C 
HETATM   12  C   UNL     1      42.648 -10.098  12.565  1.00  0.00     0.100 C 
ENDROOT
BRANCH   8  13
HETATM   13  C   UNL     1      42.176  -7.729   9.047  1.00  0.00    -0.046 A 
HETATM   14  C   UNL     1      42.419  -6.583   8.257  1.00  0.00     0.047 A 
HETATM   15  C   UNL     1      41.942  -6.503   6.946  1.00  0.00     0.101 A 
HETATM   16  C   UNL     1      41.219  -7.579   6.425  1.00  0.00     0.099 A 
HETATM   17  C   UNL     1      40.961  -8.714   7.180  1.00  0.00     0.040 A 
HETATM   18  C   UNL     1      41.435  -8.786   8.489  1.00  0.00     0.011 A 
BRANCH  15  19
HETATM   19  O   UNL     1      42.107  -5.447   6.086  1.00  0.00    -0.353 OA
HETATM   20  C   UNL     1      41.397  -4.253   6.398  1.00  0.00     0.210 C 
ENDBRANCH  15  19
BRANCH  16  21
HETATM   21  O   UNL     1      40.739  -7.533   5.145  1.00  0.00    -0.358 OA
HETATM   22  H   UNL     1      40.049  -8.224   5.112  1.00  0.00     0.218 HD
ENDBRANCH  16  21
ENDBRANCH   8  13
BRANCH   9  23
HETATM   23  C   UNL     1      40.774  -6.751  11.848  1.00  0.00     0.131 C 
HETATM   24  C   UNL     1      41.408  -5.398  11.675  1.00  0.00     0.091 C 
HETATM   25  O   UNL     1      39.648  -6.836  12.354  1.00  0.00    -0.298 OA
ENDBRANCH   9  23
BRANCH  10  26
HETATM   26  O   UNL     1      40.834  -9.021  13.665  1.00  0.00    -0.389 OA
HETATM   27  H   UNL     1      40.169  -8.308  13.560  1.00  0.00     0.210 HD
ENDBRANCH  10  26
TORSDOF 5
ENDMDL
