MODEL 1
REMARK VINA RESULT:      -8.9      0.000      0.000
REMARK  10 active torsions:
REMARK  status: ('A' for Active; 'I' for Inactive)
REMARK    1  A    between atoms: C_8  and  N_9 
REMARK    2  A    between atoms: C_10  and  S_11 
REMARK    3  A    between atoms: S_11  and  C_12 
REMARK    4  A    between atoms: C_12  and  C_13 
REMARK       I    between atoms: C_13  and  N_14 
REMARK    5  A    between atoms: N_14  and  C_15 
REMARK    6  A    between atoms: C_15  and  C_16 
REMARK    7  A    between atoms: C_16  and  C_17 
REMARK    8  A    between atoms: C_20  and  S_21 
REMARK    9  A    between atoms: S_21  and  N_22 
REMARK   10  A    between atoms: C_31  and  N_32 
ROOT
HETATM    1  N   UNL     1      42.554 -14.852   4.652  1.00  0.00    -0.275 N 
HETATM    2  C   UNL     1      43.296 -15.000   5.787  1.00  0.00     0.177 A 
HETATM    3  N   UNL     1      44.051 -16.081   6.085  1.00  0.00    -0.204 NA
HETATM    4  C   UNL     1      44.001 -17.005   5.126  1.00  0.00     0.162 A 
HETATM    5  C   UNL     1      43.282 -16.943   3.952  1.00  0.00     0.081 A 
HETATM    6  C   UNL     1      42.527 -15.793   3.665  1.00  0.00     0.124 A 
HETATM    7  N   UNL     1      44.644 -18.209   5.135  1.00  0.00    -0.260 N 
HETATM    8  H   UNL     1      45.266 -18.579   5.846  1.00  0.00     0.191 HD
HETATM    9  N   UNL     1      44.368 -18.961   4.061  1.00  0.00    -0.177 NA
HETATM   10  C   UNL     1      43.533 -18.207   3.335  1.00  0.00     0.068 A 
HETATM   11  C   UNL     1      42.981 -18.754   2.068  1.00  0.00     0.073 C 
ENDROOT
BRANCH   2  12
HETATM   12  S   UNL     1      43.220 -13.787   7.121  1.00  0.00    -0.082 SA
BRANCH  12  13
HETATM   13  C   UNL     1      44.615 -12.706   6.655  1.00  0.00     0.185 C 
BRANCH  13  14
HETATM   14  C   UNL     1      44.393 -11.274   7.121  1.00  0.00     0.227 C 
HETATM   15  N   UNL     1      45.337 -10.831   8.025  1.00  0.00    -0.360 N 
HETATM   16  H   UNL     1      46.189 -11.367   8.140  1.00  0.00     0.162 HD
HETATM   17  O   UNL     1      43.461 -10.579   6.720  1.00  0.00    -0.273 OA
BRANCH  15  18
HETATM   18  C   UNL     1      45.340  -9.460   8.517  1.00  0.00     0.127 C 
BRANCH  18  19
HETATM   19  C   UNL     1      45.340  -9.411  10.046  1.00  0.00     0.058 C 
BRANCH  19  20
HETATM   20  C   UNL     1      43.961  -9.584  10.628  1.00  0.00    -0.057 A 
HETATM   21  C   UNL     1      42.838  -9.069   9.962  1.00  0.00     0.009 A 
HETATM   22  C   UNL     1      41.560  -9.223  10.505  1.00  0.00     0.025 A 
HETATM   23  C   UNL     1      41.403  -9.898  11.717  1.00  0.00     0.074 A 
HETATM   24  C   UNL     1      42.512 -10.403  12.399  1.00  0.00     0.025 A 
HETATM   25  C   UNL     1      43.787 -10.248  11.852  1.00  0.00     0.009 A 
BRANCH  23  26
HETATM   26  S   UNL     1      39.791 -10.052  12.432  1.00  0.00     0.239 S 
HETATM   27  O   UNL     1      39.844 -11.017  13.505  1.00  0.00    -0.206 OA
HETATM   28  O   UNL     1      39.224  -8.735  12.602  1.00  0.00    -0.206 OA
BRANCH  26  29
HETATM   29  N   UNL     1      38.925 -10.777  11.192  1.00  0.00    -0.225 NA
HETATM   30  H   UNL     1      39.489 -11.509  10.756  1.00  0.00     0.136 HD
HETATM   31  H   UNL     1      38.028 -11.113  11.544  1.00  0.00     0.136 HD
ENDBRANCH  26  29
ENDBRANCH  23  26
ENDBRANCH  19  20
ENDBRANCH  18  19
ENDBRANCH  15  18
ENDBRANCH  13  14
ENDBRANCH  12  13
ENDBRANCH   2  12
BRANCH   1  32
HETATM   32  C   UNL     1      41.673 -13.721   4.527  1.00  0.00     0.051 A 
HETATM   33  C   UNL     1      42.084 -12.558   3.854  1.00  0.00    -0.013 A 
HETATM   34  C   UNL     1      43.449 -12.410   3.244  1.00  0.00     0.052 C 
HETATM   35  C   UNL     1      41.156 -11.503   3.804  1.00  0.00     0.042 A 
HETATM   36 CL   UNL     1      41.546  -9.991   3.064  1.00  0.00    -0.084 Cl
HETATM   37  C   UNL     1      39.873 -11.635   4.354  1.00  0.00     0.024 A 
HETATM   38  C   UNL     1      39.486 -12.820   4.979  1.00  0.00     0.004 A 
HETATM   39  C   UNL     1      40.388 -13.872   5.071  1.00  0.00     0.031 A 
ENDBRANCH   1  32
BRANCH   6  40
HETATM   40  N   UNL     1      41.780 -15.649   2.500  1.00  0.00    -0.384 N 
HETATM   41  H   UNL     1      42.219 -15.911   1.623  1.00  0.00     0.157 HD
HETATM   42  H   UNL     1      41.101 -14.902   2.408  1.00  0.00     0.157 HD
ENDBRANCH   6  40
TORSDOF 10
ENDMDL
MODEL 2
REMARK VINA RESULT:      -8.7      1.965      2.166
REMARK  10 active torsions:
REMARK  status: ('A' for Active; 'I' for Inactive)
REMARK    1  A    between atoms: C_8  and  N_9 
REMARK    2  A    between atoms: C_10  and  S_11 
REMARK    3  A    between atoms: S_11  and  C_12 
REMARK    4  A    between atoms: C_12  and  C_13 
REMARK       I    between atoms: C_13  and  N_14 
REMARK    5  A    between atoms: N_14  and  C_15 
REMARK    6  A    between atoms: C_15  and  C_16 
REMARK    7  A    between atoms: C_16  and  C_17 
REMARK    8  A    between atoms: C_20  and  S_21 
REMARK    9  A    between atoms: S_21  and  N_22 
REMARK   10  A    between atoms: C_31  and  N_32 
ROOT
HETATM    1  N   UNL     1      42.535 -14.713   4.708  1.00  0.00    -0.275 N 
HETATM    2  C   UNL     1      43.299 -14.849   5.831  1.00  0.00     0.177 A 
HETATM    3  N   UNL     1      44.071 -15.920   6.117  1.00  0.00    -0.204 NA
HETATM    4  C   UNL     1      44.015 -16.847   5.162  1.00  0.00     0.162 A 
HETATM    5  C   UNL     1      43.275 -16.796   4.000  1.00  0.00     0.081 A 
HETATM    6  C   UNL     1      42.501 -15.657   3.724  1.00  0.00     0.124 A 
HETATM    7  N   UNL     1      44.673 -18.043   5.163  1.00  0.00    -0.260 N 
HETATM    8  H   UNL     1      45.311 -18.405   5.864  1.00  0.00     0.191 HD
HETATM    9  N   UNL     1      44.386 -18.801   4.095  1.00  0.00    -0.177 NA
HETATM   10  C   UNL     1      43.529 -18.059   3.382  1.00  0.00     0.068 A 
HETATM   11  C   UNL     1      42.962 -18.616   2.127  1.00  0.00     0.073 C 
ENDROOT
BRANCH   2  12
HETATM   12  S   UNL     1      43.232 -13.634   7.163  1.00  0.00    -0.082 SA
BRANCH  12  13
HETATM   13  C   UNL     1      44.568 -12.507   6.639  1.00  0.00     0.185 C 
BRANCH  13  14
HETATM   14  C   UNL     1      44.748 -11.358   7.622  1.00  0.00     0.227 C 
HETATM   15  N   UNL     1      43.597 -11.028   8.309  1.00  0.00    -0.360 N 
HETATM   16  H   UNL     1      42.817 -11.674   8.287  1.00  0.00     0.162 HD
HETATM   17  O   UNL     1      45.824 -10.785   7.790  1.00  0.00    -0.273 OA
BRANCH  15  18
HETATM   18  C   UNL     1      43.594 -10.014   9.354  1.00  0.00     0.127 C 
BRANCH  18  19
HETATM   19  C   UNL     1      43.787 -10.632  10.739  1.00  0.00     0.058 C 
BRANCH  19  20
HETATM   20  C   UNL     1      43.199  -9.782  11.836  1.00  0.00    -0.057 A 
HETATM   21  C   UNL     1      43.723  -8.509  12.108  1.00  0.00     0.009 A 
HETATM   22  C   UNL     1      43.183  -7.724  13.129  1.00  0.00     0.025 A 
HETATM   23  C   UNL     1      42.112  -8.211  13.880  1.00  0.00     0.074 A 
HETATM   24  C   UNL     1      41.588  -9.482  13.632  1.00  0.00     0.025 A 
HETATM   25  C   UNL     1      42.131 -10.262  12.609  1.00  0.00     0.009 A 
BRANCH  23  26
HETATM   26  S   UNL     1      41.457  -7.240  15.207  1.00  0.00     0.239 S 
HETATM   27  O   UNL     1      40.690  -6.148  14.656  1.00  0.00    -0.206 OA
HETATM   28  O   UNL     1      40.929  -8.123  16.220  1.00  0.00    -0.206 OA
BRANCH  26  29
HETATM   29  N   UNL     1      42.843  -6.557  15.859  1.00  0.00    -0.225 NA
HETATM   30  H   UNL     1      42.726  -6.423  16.864  1.00  0.00     0.136 HD
HETATM   31  H   UNL     1      43.657  -7.124  15.618  1.00  0.00     0.136 HD
ENDBRANCH  26  29
ENDBRANCH  23  26
ENDBRANCH  19  20
ENDBRANCH  18  19
ENDBRANCH  15  18
ENDBRANCH  13  14
ENDBRANCH  12  13
ENDBRANCH   2  12
BRANCH   1  32
HETATM   32  C   UNL     1      41.638 -13.592   4.597  1.00  0.00     0.051 A 
HETATM   33  C   UNL     1      42.005 -12.445   3.874  1.00  0.00    -0.013 A 
HETATM   34  C   UNL     1      43.338 -12.303   3.194  1.00  0.00     0.052 C 
HETATM   35  C   UNL     1      41.067 -11.399   3.841  1.00  0.00     0.042 A 
HETATM   36 CL   UNL     1      41.407  -9.905   3.042  1.00  0.00    -0.084 Cl
HETATM   37  C   UNL     1      39.813 -11.526   4.456  1.00  0.00     0.024 A 
HETATM   38  C   UNL     1      39.468 -12.696   5.130  1.00  0.00     0.004 A 
HETATM   39  C   UNL     1      40.383 -13.739   5.206  1.00  0.00     0.031 A 
ENDBRANCH   1  32
BRANCH   6  40
HETATM   40  N   UNL     1      41.732 -15.525   2.573  1.00  0.00    -0.384 N 
HETATM   41  H   UNL     1      40.760 -15.253   2.684  1.00  0.00     0.157 HD
HETATM   42  H   UNL     1      41.900 -16.115   1.766  1.00  0.00     0.157 HD
ENDBRANCH   6  40
TORSDOF 10
ENDMDL
MODEL 3
REMARK VINA RESULT:      -8.6      2.984      4.736
REMARK  10 active torsions:
REMARK  status: ('A' for Active; 'I' for Inactive)
REMARK    1  A    between atoms: C_8  and  N_9 
REMARK    2  A    between atoms: C_10  and  S_11 
REMARK    3  A    between atoms: S_11  and  C_12 
REMARK    4  A    between atoms: C_12  and  C_13 
REMARK       I    between atoms: C_13  and  N_14 
REMARK    5  A    between atoms: N_14  and  C_15 
REMARK    6  A    between atoms: C_15  and  C_16 
REMARK    7  A    between atoms: C_16  and  C_17 
REMARK    8  A    between atoms: C_20  and  S_21 
REMARK    9  A    between atoms: S_21  and  N_22 
REMARK   10  A    between atoms: C_31  and  N_32 
ROOT
HETATM    1  N   UNL     1      41.599 -13.230   2.754  1.00  0.00    -0.275 N 
HETATM    2  C   UNL     1      42.489 -12.205   2.888  1.00  0.00     0.177 A 
HETATM    3  N   UNL     1      42.475 -11.066   2.161  1.00  0.00    -0.204 NA
HETATM    4  C   UNL     1      41.472 -11.045   1.284  1.00  0.00     0.162 A 
HETATM    5  C   UNL     1      40.530 -12.030   1.079  1.00  0.00     0.081 A 
HETATM    6  C   UNL     1      40.560 -13.190   1.870  1.00  0.00     0.124 A 
HETATM    7  N   UNL     1      41.197 -10.041   0.402  1.00  0.00    -0.260 N 
HETATM    8  H   UNL     1      41.686  -9.160   0.285  1.00  0.00     0.191 HD
HETATM    9  N   UNL     1      40.156 -10.314  -0.398  1.00  0.00    -0.177 NA
HETATM   10  C   UNL     1      39.745 -11.526  -0.004  1.00  0.00     0.068 A 
HETATM   11  C   UNL     1      38.610 -12.171  -0.713  1.00  0.00     0.073 C 
ENDROOT
BRANCH   2  12
HETATM   12  S   UNL     1      43.915 -12.339   3.987  1.00  0.00    -0.082 SA
BRANCH  12  13
HETATM   13  C   UNL     1      43.235 -11.567   5.494  1.00  0.00     0.185 C 
BRANCH  13  14
HETATM   14  C   UNL     1      44.231 -11.617   6.645  1.00  0.00     0.227 C 
HETATM   15  N   UNL     1      45.332 -10.805   6.463  1.00  0.00    -0.360 N 
HETATM   16  H   UNL     1      45.302 -10.102   5.733  1.00  0.00     0.162 HD
HETATM   17  O   UNL     1      44.060 -12.311   7.645  1.00  0.00    -0.273 OA
BRANCH  15  18
HETATM   18  C   UNL     1      46.349 -10.653   7.494  1.00  0.00     0.127 C 
BRANCH  18  19
HETATM   19  C   UNL     1      46.298  -9.265   8.134  1.00  0.00     0.058 C 
BRANCH  19  20
HETATM   20  C   UNL     1      45.215  -9.150   9.177  1.00  0.00    -0.057 A 
HETATM   21  C   UNL     1      45.181 -10.034  10.267  1.00  0.00     0.009 A 
HETATM   22  C   UNL     1      44.173  -9.933  11.229  1.00  0.00     0.025 A 
HETATM   23  C   UNL     1      43.197  -8.941  11.103  1.00  0.00     0.074 A 
HETATM   24  C   UNL     1      43.209  -8.064  10.017  1.00  0.00     0.025 A 
HETATM   25  C   UNL     1      44.219  -8.169   9.059  1.00  0.00     0.009 A 
BRANCH  23  26
HETATM   26  S   UNL     1      41.891  -8.841  12.294  1.00  0.00     0.239 S 
HETATM   27  O   UNL     1      42.419  -9.159  13.599  1.00  0.00    -0.206 OA
HETATM   28  O   UNL     1      41.115  -7.650  12.041  1.00  0.00    -0.206 OA
BRANCH  26  29
HETATM   29  N   UNL     1      40.917 -10.135  11.855  1.00  0.00    -0.225 NA
HETATM   30  H   UNL     1      41.202 -10.489  10.941  1.00  0.00     0.136 HD
HETATM   31  H   UNL     1      40.931 -10.846  12.587  1.00  0.00     0.136 HD
ENDBRANCH  26  29
ENDBRANCH  23  26
ENDBRANCH  19  20
ENDBRANCH  18  19
ENDBRANCH  15  18
ENDBRANCH  13  14
ENDBRANCH  12  13
ENDBRANCH   2  12
BRANCH   1  32
HETATM   32  C   UNL     1      41.816 -14.453   3.482  1.00  0.00     0.051 A 
HETATM   33  C   UNL     1      42.659 -15.454   2.973  1.00  0.00    -0.013 A 
HETATM   34  C   UNL     1      43.367 -15.330   1.653  1.00  0.00     0.052 C 
HETATM   35  C   UNL     1      42.790 -16.618   3.750  1.00  0.00     0.042 A 
HETATM   36 CL   UNL     1      43.745 -17.957   3.220  1.00  0.00    -0.084 Cl
HETATM   37  C   UNL     1      42.148 -16.740   4.991  1.00  0.00     0.024 A 
HETATM   38  C   UNL     1      41.351 -15.708   5.484  1.00  0.00     0.004 A 
HETATM   39  C   UNL     1      41.178 -14.555   4.727  1.00  0.00     0.031 A 
ENDBRANCH   1  32
BRANCH   6  40
HETATM   40  N   UNL     1      39.643 -14.226   1.731  1.00  0.00    -0.384 N 
HETATM   41  H   UNL     1      39.534 -14.868   2.510  1.00  0.00     0.157 HD
HETATM   42  H   UNL     1      39.476 -14.654   0.827  1.00  0.00     0.157 HD
ENDBRANCH   6  40
TORSDOF 10
ENDMDL
MODEL 4
REMARK VINA RESULT:      -8.5      2.091      2.627
REMARK  10 active torsions:
REMARK  status: ('A' for Active; 'I' for Inactive)
REMARK    1  A    between atoms: C_8  and  N_9 
REMARK    2  A    between atoms: C_10  and  S_11 
REMARK    3  A    between atoms: S_11  and  C_12 
REMARK    4  A    between atoms: C_12  and  C_13 
REMARK       I    between atoms: C_13  and  N_14 
REMARK    5  A    between atoms: N_14  and  C_15 
REMARK    6  A    between atoms: C_15  and  C_16 
REMARK    7  A    between atoms: C_16  and  C_17 
REMARK    8  A    between atoms: C_20  and  S_21 
REMARK    9  A    between atoms: S_21  and  N_22 
REMARK   10  A    between atoms: C_31  and  N_32 
ROOT
HETATM    1  N   UNL     1      42.936 -16.105   3.994  1.00  0.00    -0.275 N 
HETATM    2  C   UNL     1      43.007 -16.282   5.345  1.00  0.00     0.177 A 
HETATM    3  N   UNL     1      43.343 -17.438   5.959  1.00  0.00    -0.204 NA
HETATM    4  C   UNL     1      43.612 -18.407   5.086  1.00  0.00     0.162 A 
HETATM    5  C   UNL     1      43.567 -18.321   3.711  1.00  0.00     0.081 A 
HETATM    6  C   UNL     1      43.238 -17.096   3.107  1.00  0.00     0.124 A 
HETATM    7  N   UNL     1      43.971 -19.688   5.392  1.00  0.00    -0.260 N 
HETATM    8  H   UNL     1      44.106 -20.096   6.311  1.00  0.00     0.191 HD
HETATM    9  N   UNL     1      44.129 -20.463   4.309  1.00  0.00    -0.177 NA
HETATM   10  C   UNL     1      43.878 -19.647   3.278  1.00  0.00     0.068 A 
HETATM   11  C   UNL     1      43.924 -20.192   1.896  1.00  0.00     0.073 C 
ENDROOT
BRANCH   2  12
HETATM   12  S   UNL     1      42.494 -14.983   6.489  1.00  0.00    -0.082 SA
BRANCH  12  13
HETATM   13  C   UNL     1      44.101 -14.179   6.807  1.00  0.00     0.185 C 
BRANCH  13  14
HETATM   14  C   UNL     1      44.007 -12.666   6.663  1.00  0.00     0.227 C 
HETATM   15  N   UNL     1      45.190 -12.008   6.932  1.00  0.00    -0.360 N 
HETATM   16  H   UNL     1      46.047 -12.548   6.981  1.00  0.00     0.162 HD
HETATM   17  O   UNL     1      42.973 -12.090   6.331  1.00  0.00    -0.273 OA
BRANCH  15  18
HETATM   18  C   UNL     1      45.319 -10.567   6.763  1.00  0.00     0.127 C 
BRANCH  18  19
HETATM   19  C   UNL     1      46.083  -9.931   7.926  1.00  0.00     0.058 C 
BRANCH  19  20
HETATM   20  C   UNL     1      45.164  -9.366   8.979  1.00  0.00    -0.057 A 
HETATM   21  C   UNL     1      44.411  -8.210   8.721  1.00  0.00     0.009 A 
HETATM   22  C   UNL     1      43.565  -7.683   9.699  1.00  0.00     0.025 A 
HETATM   23  C   UNL     1      43.467  -8.316  10.939  1.00  0.00     0.074 A 
HETATM   24  C   UNL     1      44.220  -9.459  11.217  1.00  0.00     0.025 A 
HETATM   25  C   UNL     1      45.064  -9.982  10.235  1.00  0.00     0.009 A 
BRANCH  23  26
HETATM   26  S   UNL     1      42.433  -7.623  12.199  1.00  0.00     0.239 S 
HETATM   27  O   UNL     1      41.131  -8.242  12.131  1.00  0.00    -0.206 OA
HETATM   28  O   UNL     1      43.186  -7.533  13.428  1.00  0.00    -0.206 OA
BRANCH  26  29
HETATM   29  N   UNL     1      42.232  -6.048  11.659  1.00  0.00    -0.225 NA
HETATM   30  H   UNL     1      43.139  -5.643  11.422  1.00  0.00     0.136 HD
HETATM   31  H   UNL     1      41.565  -6.027  10.886  1.00  0.00     0.136 HD
ENDBRANCH  26  29
ENDBRANCH  23  26
ENDBRANCH  19  20
ENDBRANCH  18  19
ENDBRANCH  15  18
ENDBRANCH  13  14
ENDBRANCH  12  13
ENDBRANCH   2  12
BRANCH   1  32
HETATM   32  C   UNL     1      42.417 -14.868   3.470  1.00  0.00     0.051 A 
HETATM   33  C   UNL     1      41.039 -14.698   3.258  1.00  0.00    -0.013 A 
HETATM   34  C   UNL     1      40.032 -15.777   3.541  1.00  0.00     0.052 C 
HETATM   35  C   UNL     1      40.635 -13.461   2.726  1.00  0.00     0.042 A 
HETATM   36 CL   UNL     1      38.980 -13.134   2.355  1.00  0.00    -0.084 Cl
HETATM   37  C   UNL     1      41.563 -12.440   2.473  1.00  0.00     0.024 A 
HETATM   38  C   UNL     1      42.919 -12.631   2.735  1.00  0.00     0.004 A 
HETATM   39  C   UNL     1      43.355 -13.852   3.234  1.00  0.00     0.031 A 
ENDBRANCH   1  32
BRANCH   6  40
HETATM   40  N   UNL     1      43.176 -16.924   1.728  1.00  0.00    -0.384 N 
HETATM   41  H   UNL     1      42.524 -16.234   1.367  1.00  0.00     0.157 HD
HETATM   42  H   UNL     1      43.330 -17.705   1.100  1.00  0.00     0.157 HD
ENDBRANCH   6  40
TORSDOF 10
ENDMDL
MODEL 5
REMARK VINA RESULT:      -8.4      3.451      5.179
REMARK  10 active torsions:
REMARK  status: ('A' for Active; 'I' for Inactive)
REMARK    1  A    between atoms: C_8  and  N_9 
REMARK    2  A    between atoms: C_10  and  S_11 
REMARK    3  A    between atoms: S_11  and  C_12 
REMARK    4  A    between atoms: C_12  and  C_13 
REMARK       I    between atoms: C_13  and  N_14 
REMARK    5  A    between atoms: N_14  and  C_15 
REMARK    6  A    between atoms: C_15  and  C_16 
REMARK    7  A    between atoms: C_16  and  C_17 
REMARK    8  A    between atoms: C_20  and  S_21 
REMARK    9  A    between atoms: S_21  and  N_22 
REMARK   10  A    between atoms: C_31  and  N_32 
ROOT
HETATM    1  N   UNL     1      41.270 -12.968   4.798  1.00  0.00    -0.275 N 
HETATM    2  C   UNL     1      42.028 -11.920   5.233  1.00  0.00     0.177 A 
HETATM    3  N   UNL     1      41.859 -10.633   4.858  1.00  0.00    -0.204 NA
HETATM    4  C   UNL     1      40.846 -10.490   4.005  1.00  0.00     0.162 A 
HETATM    5  C   UNL     1      40.030 -11.486   3.512  1.00  0.00     0.081 A 
HETATM    6  C   UNL     1      40.219 -12.809   3.943  1.00  0.00     0.124 A 
HETATM    7  N   UNL     1      40.431  -9.319   3.438  1.00  0.00    -0.260 N 
HETATM    8  H   UNL     1      40.805  -8.387   3.585  1.00  0.00     0.191 HD
HETATM    9  N   UNL     1      39.419  -9.483   2.575  1.00  0.00    -0.177 NA
HETATM   10  C   UNL     1      39.169 -10.798   2.602  1.00  0.00     0.068 A 
HETATM   11  C   UNL     1      38.111 -11.351   1.718  1.00  0.00     0.073 C 
ENDROOT
BRANCH   2  12
HETATM   12  S   UNL     1      43.479 -12.181   6.274  1.00  0.00    -0.082 SA
BRANCH  12  13
HETATM   13  C   UNL     1      43.593 -10.550   7.085  1.00  0.00     0.185 C 
BRANCH  13  14
HETATM   14  C   UNL     1      44.002 -10.679   8.546  1.00  0.00     0.227 C 
HETATM   15  N   UNL     1      43.051 -10.217   9.433  1.00  0.00    -0.360 N 
HETATM   16  H   UNL     1      42.112 -10.045   9.092  1.00  0.00     0.162 HD
HETATM   17  O   UNL     1      45.079 -11.159   8.897  1.00  0.00    -0.273 OA
BRANCH  15  18
HETATM   18  C   UNL     1      43.227 -10.338  10.874  1.00  0.00     0.127 C 
BRANCH  18  19
HETATM   19  C   UNL     1      43.908  -9.101  11.463  1.00  0.00     0.058 C 
BRANCH  19  20
HETATM   20  C   UNL     1      43.221  -8.604  12.709  1.00  0.00    -0.057 A 
HETATM   21  C   UNL     1      42.171  -9.337  13.282  1.00  0.00     0.009 A 
HETATM   22  C   UNL     1      41.529  -8.873  14.433  1.00  0.00     0.025 A 
HETATM   23  C   UNL     1      41.942  -7.673  15.016  1.00  0.00     0.074 A 
HETATM   24  C   UNL     1      42.976  -6.925  14.449  1.00  0.00     0.025 A 
HETATM   25  C   UNL     1      43.615  -7.394  13.299  1.00  0.00     0.009 A 
BRANCH  23  26
HETATM   26  S   UNL     1      41.099  -7.057  16.446  1.00  0.00     0.239 S 
HETATM   27  O   UNL     1      39.907  -6.362  16.024  1.00  0.00    -0.206 OA
HETATM   28  O   UNL     1      41.080  -8.085  17.459  1.00  0.00    -0.206 OA
BRANCH  26  29
HETATM   29  N   UNL     1      42.159  -5.879  16.996  1.00  0.00    -0.225 NA
HETATM   30  H   UNL     1      41.976  -4.996  16.518  1.00  0.00     0.136 HD
HETATM   31  H   UNL     1      42.103  -5.808  18.013  1.00  0.00     0.136 HD
ENDBRANCH  26  29
ENDBRANCH  23  26
ENDBRANCH  19  20
ENDBRANCH  18  19
ENDBRANCH  15  18
ENDBRANCH  13  14
ENDBRANCH  12  13
ENDBRANCH   2  12
BRANCH   1  32
HETATM   32  C   UNL     1      41.651 -14.311   5.153  1.00  0.00     0.051 A 
HETATM   33  C   UNL     1      42.489 -15.067   4.316  1.00  0.00    -0.013 A 
HETATM   34  C   UNL     1      43.021 -14.547   3.011  1.00  0.00     0.052 C 
HETATM   35  C   UNL     1      42.786 -16.373   4.744  1.00  0.00     0.042 A 
HETATM   36 CL   UNL     1      43.752 -17.439   3.787  1.00  0.00    -0.084 Cl
HETATM   37  C   UNL     1      42.309 -16.864   5.967  1.00  0.00     0.024 A 
HETATM   38  C   UNL     1      41.514 -16.069   6.791  1.00  0.00     0.004 A 
HETATM   39  C   UNL     1      41.177 -14.784   6.385  1.00  0.00     0.031 A 
ENDBRANCH   1  32
BRANCH   6  40
HETATM   40  N   UNL     1      39.436 -13.870   3.498  1.00  0.00    -0.384 N 
HETATM   41  H   UNL     1      39.583 -14.777   3.929  1.00  0.00     0.157 HD
HETATM   42  H   UNL     1      39.134 -13.922   2.532  1.00  0.00     0.157 HD
ENDBRANCH   6  40
TORSDOF 10
ENDMDL
MODEL 6
REMARK VINA RESULT:      -8.2      4.064      6.153
REMARK  10 active torsions:
REMARK  status: ('A' for Active; 'I' for Inactive)
REMARK    1  A    between atoms: C_8  and  N_9 
REMARK    2  A    between atoms: C_10  and  S_11 
REMARK    3  A    between atoms: S_11  and  C_12 
REMARK    4  A    between atoms: C_12  and  C_13 
REMARK       I    between atoms: C_13  and  N_14 
REMARK    5  A    between atoms: N_14  and  C_15 
REMARK    6  A    between atoms: C_15  and  C_16 
REMARK    7  A    between atoms: C_16  and  C_17 
REMARK    8  A    between atoms: C_20  and  S_21 
REMARK    9  A    between atoms: S_21  and  N_22 
REMARK   10  A    between atoms: C_31  and  N_32 
ROOT
HETATM    1  N   UNL     1      40.632 -13.309   1.203  1.00  0.00    -0.275 N 
HETATM    2  C   UNL     1      41.051 -12.068   0.822  1.00  0.00     0.177 A 
HETATM    3  N   UNL     1      40.953 -11.567  -0.429  1.00  0.00    -0.204 NA
HETATM    4  C   UNL     1      40.382 -12.429  -1.270  1.00  0.00     0.162 A 
HETATM    5  C   UNL     1      39.931 -13.698  -0.976  1.00  0.00     0.081 A 
HETATM    6  C   UNL     1      40.027 -14.177   0.342  1.00  0.00     0.124 A 
HETATM    7  N   UNL     1      40.151 -12.223  -2.599  1.00  0.00    -0.260 N 
HETATM    8  H   UNL     1      40.353 -11.393  -3.147  1.00  0.00     0.191 HD
HETATM    9  N   UNL     1      39.610 -13.286  -3.210  1.00  0.00    -0.177 NA
HETATM   10  C   UNL     1      39.478 -14.196  -2.236  1.00  0.00     0.068 A 
HETATM   11  C   UNL     1      38.935 -15.538  -2.569  1.00  0.00     0.073 C 
ENDROOT
BRANCH   2  12
HETATM   12  S   UNL     1      41.948 -10.991   1.959  1.00  0.00    -0.082 SA
BRANCH  12  13
HETATM   13  C   UNL     1      40.955  -9.467   1.812  1.00  0.00     0.185 C 
BRANCH  13  14
HETATM   14  C   UNL     1      40.569  -8.917   3.178  1.00  0.00     0.227 C 
HETATM   15  N   UNL     1      39.715  -9.737   3.886  1.00  0.00    -0.360 N 
HETATM   16  H   UNL     1      39.588 -10.693   3.574  1.00  0.00     0.162 HD
HETATM   17  O   UNL     1      40.990  -7.844   3.608  1.00  0.00    -0.273 OA
BRANCH  15  18
HETATM   18  C   UNL     1      39.305  -9.420   5.248  1.00  0.00     0.127 C 
BRANCH  18  19
HETATM   19  C   UNL     1      39.732 -10.512   6.232  1.00  0.00     0.058 C 
BRANCH  19  20
HETATM   20  C   UNL     1      41.147 -10.328   6.718  1.00  0.00    -0.057 A 
HETATM   21  C   UNL     1      42.215 -10.939   6.044  1.00  0.00     0.009 A 
HETATM   22  C   UNL     1      43.526 -10.775   6.498  1.00  0.00     0.025 A 
HETATM   23  C   UNL     1      43.770  -9.993   7.629  1.00  0.00     0.074 A 
HETATM   24  C   UNL     1      42.716  -9.389   8.318  1.00  0.00     0.025 A 
HETATM   25  C   UNL     1      41.408  -9.556   7.859  1.00  0.00     0.009 A 
BRANCH  23  26
HETATM   26  S   UNL     1      45.424  -9.822   8.236  1.00  0.00     0.239 S 
HETATM   27  O   UNL     1      45.806  -8.432   8.176  1.00  0.00    -0.206 OA
HETATM   28  O   UNL     1      45.568 -10.614   9.435  1.00  0.00    -0.206 OA
BRANCH  26  29
HETATM   29  N   UNL     1      46.316 -10.604   7.050  1.00  0.00    -0.225 NA
HETATM   30  H   UNL     1      45.720 -11.261   6.543  1.00  0.00     0.136 HD
HETATM   31  H   UNL     1      46.768  -9.918   6.444  1.00  0.00     0.136 HD
ENDBRANCH  26  29
ENDBRANCH  23  26
ENDBRANCH  19  20
ENDBRANCH  18  19
ENDBRANCH  15  18
ENDBRANCH  13  14
ENDBRANCH  12  13
ENDBRANCH   2  12
BRANCH   1  32
HETATM   32  C   UNL     1      40.935 -13.780   2.530  1.00  0.00     0.051 A 
HETATM   33  C   UNL     1      42.088 -14.543   2.777  1.00  0.00    -0.013 A 
HETATM   34  C   UNL     1      43.058 -14.928   1.696  1.00  0.00     0.052 C 
HETATM   35  C   UNL     1      42.283 -14.970   4.102  1.00  0.00     0.042 A 
HETATM   36 CL   UNL     1      43.624 -15.967   4.542  1.00  0.00    -0.084 Cl
HETATM   37  C   UNL     1      41.395 -14.604   5.123  1.00  0.00     0.024 A 
HETATM   38  C   UNL     1      40.282 -13.811   4.847  1.00  0.00     0.004 A 
HETATM   39  C   UNL     1      40.044 -13.395   3.542  1.00  0.00     0.031 A 
ENDBRANCH   1  32
BRANCH   6  40
HETATM   40  N   UNL     1      39.589 -15.441   0.721  1.00  0.00    -0.384 N 
HETATM   41  H   UNL     1      39.060 -15.517   1.585  1.00  0.00     0.157 HD
HETATM   42  H   UNL     1      40.138 -16.266   0.507  1.00  0.00     0.157 HD
ENDBRANCH   6  40
TORSDOF 10
ENDMDL
MODEL 7
REMARK VINA RESULT:      -8.2      2.889      4.967
REMARK  10 active torsions:
REMARK  status: ('A' for Active; 'I' for Inactive)
REMARK    1  A    between atoms: C_8  and  N_9 
REMARK    2  A    between atoms: C_10  and  S_11 
REMARK    3  A    between atoms: S_11  and  C_12 
REMARK    4  A    between atoms: C_12  and  C_13 
REMARK       I    between atoms: C_13  and  N_14 
REMARK    5  A    between atoms: N_14  and  C_15 
REMARK    6  A    between atoms: C_15  and  C_16 
REMARK    7  A    between atoms: C_16  and  C_17 
REMARK    8  A    between atoms: C_20  and  S_21 
REMARK    9  A    between atoms: S_21  and  N_22 
REMARK   10  A    between atoms: C_31  and  N_32 
ROOT
HETATM    1  N   UNL     1      41.258 -12.912   2.878  1.00  0.00    -0.275 N 
HETATM    2  C   UNL     1      41.960 -11.804   3.255  1.00  0.00     0.177 A 
HETATM    3  N   UNL     1      41.503 -10.535   3.178  1.00  0.00    -0.204 NA
HETATM    4  C   UNL     1      40.264 -10.477   2.692  1.00  0.00     0.162 A 
HETATM    5  C   UNL     1      39.483 -11.538   2.287  1.00  0.00     0.081 A 
HETATM    6  C   UNL     1      39.981 -12.847   2.404  1.00  0.00     0.124 A 
HETATM    7  N   UNL     1      39.534  -9.343   2.485  1.00  0.00    -0.260 N 
HETATM    8  H   UNL     1      39.800  -8.384   2.680  1.00  0.00     0.191 HD
HETATM    9  N   UNL     1      38.335  -9.583   1.935  1.00  0.00    -0.177 NA
HETATM   10  C   UNL     1      38.293 -10.915   1.800  1.00  0.00     0.068 A 
HETATM   11  C   UNL     1      37.099 -11.541   1.175  1.00  0.00     0.073 C 
ENDROOT
BRANCH   2  12
HETATM   12  S   UNL     1      43.685 -11.918   3.771  1.00  0.00    -0.082 SA
BRANCH  12  13
HETATM   13  C   UNL     1      43.491 -11.778   5.580  1.00  0.00     0.185 C 
BRANCH  13  14
HETATM   14  C   UNL     1      44.768 -11.278   6.242  1.00  0.00     0.227 C 
HETATM   15  N   UNL     1      44.624 -10.997   7.586  1.00  0.00    -0.360 N 
HETATM   16  H   UNL     1      43.799 -11.335   8.067  1.00  0.00     0.162 HD
HETATM   17  O   UNL     1      45.828 -11.145   5.633  1.00  0.00    -0.273 OA
BRANCH  15  18
HETATM   18  C   UNL     1      45.757 -10.591   8.407  1.00  0.00     0.127 C 
BRANCH  18  19
HETATM   19  C   UNL     1      45.528  -9.217   9.040  1.00  0.00     0.058 C 
BRANCH  19  20
HETATM   20  C   UNL     1      44.400  -9.224  10.040  1.00  0.00    -0.057 A 
HETATM   21  C   UNL     1      44.340 -10.210  11.038  1.00  0.00     0.009 A 
HETATM   22  C   UNL     1      43.291 -10.221  11.960  1.00  0.00     0.025 A 
HETATM   23  C   UNL     1      42.300  -9.240  11.888  1.00  0.00     0.074 A 
HETATM   24  C   UNL     1      42.337  -8.262  10.892  1.00  0.00     0.025 A 
HETATM   25  C   UNL     1      43.389  -8.255   9.974  1.00  0.00     0.009 A 
BRANCH  23  26
HETATM   26  S   UNL     1      40.943  -9.280  13.024  1.00  0.00     0.239 S 
HETATM   27  O   UNL     1      41.448  -9.104  14.365  1.00  0.00    -0.206 OA
HETATM   28  O   UNL     1      39.861  -8.484  12.493  1.00  0.00    -0.206 OA
BRANCH  26  29
HETATM   29  N   UNL     1      40.443 -10.878  12.918  1.00  0.00    -0.225 NA
HETATM   30  H   UNL     1      41.176 -11.443  12.486  1.00  0.00     0.136 HD
HETATM   31  H   UNL     1      40.160 -11.216  13.838  1.00  0.00     0.136 HD
ENDBRANCH  26  29
ENDBRANCH  23  26
ENDBRANCH  19  20
ENDBRANCH  18  19
ENDBRANCH  15  18
ENDBRANCH  13  14
ENDBRANCH  12  13
ENDBRANCH   2  12
BRANCH   1  32
HETATM   32  C   UNL     1      41.915 -14.194   2.866  1.00  0.00     0.051 A 
HETATM   33  C   UNL     1      41.884 -15.029   3.995  1.00  0.00    -0.013 A 
HETATM   34  C   UNL     1      41.193 -14.647   5.273  1.00  0.00     0.052 C 
HETATM   35  C   UNL     1      42.572 -16.251   3.888  1.00  0.00     0.042 A 
HETATM   36 CL   UNL     1      42.671 -17.351   5.216  1.00  0.00    -0.084 Cl
HETATM   37  C   UNL     1      43.207 -16.627   2.695  1.00  0.00     0.024 A 
HETATM   38  C   UNL     1      43.181 -15.789   1.582  1.00  0.00     0.004 A 
HETATM   39  C   UNL     1      42.535 -14.561   1.662  1.00  0.00     0.031 A 
ENDBRANCH   1  32
BRANCH   6  40
HETATM   40  N   UNL     1      39.254 -13.970   2.025  1.00  0.00    -0.384 N 
HETATM   41  H   UNL     1      38.657 -13.892   1.207  1.00  0.00     0.157 HD
HETATM   42  H   UNL     1      38.909 -14.624   2.718  1.00  0.00     0.157 HD
ENDBRANCH   6  40
TORSDOF 10
ENDMDL
MODEL 8
REMARK VINA RESULT:      -8.1      1.738      2.057
REMARK  10 active torsions:
REMARK  status: ('A' for Active; 'I' for Inactive)
REMARK    1  A    between atoms: C_8  and  N_9 
REMARK    2  A    between atoms: C_10  and  S_11 
REMARK    3  A    between atoms: S_11  and  C_12 
REMARK    4  A    between atoms: C_12  and  C_13 
REMARK       I    between atoms: C_13  and  N_14 
REMARK    5  A    between atoms: N_14  and  C_15 
REMARK    6  A    between atoms: C_15  and  C_16 
REMARK    7  A    between atoms: C_16  and  C_17 
REMARK    8  A    between atoms: C_20  and  S_21 
REMARK    9  A    between atoms: S_21  and  N_22 
REMARK   10  A    between atoms: C_31  and  N_32 
ROOT
HETATM    1  N   UNL     1      42.306 -15.437   3.834  1.00  0.00    -0.275 N 
HETATM    2  C   UNL     1      42.531 -15.442   5.180  1.00  0.00     0.177 A 
HETATM    3  N   UNL     1      43.107 -16.454   5.865  1.00  0.00    -0.204 NA
HETATM    4  C   UNL     1      43.449 -17.466   5.069  1.00  0.00     0.162 A 
HETATM    5  C   UNL     1      43.261 -17.548   3.706  1.00  0.00     0.081 A 
HETATM    6  C   UNL     1      42.681 -16.467   3.022  1.00  0.00     0.124 A 
HETATM    7  N   UNL     1      44.039 -18.633   5.461  1.00  0.00    -0.260 N 
HETATM    8  H   UNL     1      44.325 -18.906   6.395  1.00  0.00     0.191 HD
HETATM    9  N   UNL     1      44.220 -19.496   4.450  1.00  0.00    -0.177 NA
HETATM   10  C   UNL     1      43.743 -18.853   3.377  1.00  0.00     0.068 A 
HETATM   11  C   UNL     1      43.748 -19.542   2.060  1.00  0.00     0.073 C 
ENDROOT
BRANCH   2  12
HETATM   12  S   UNL     1      41.921 -14.112   6.237  1.00  0.00    -0.082 SA
BRANCH  12  13
HETATM   13  C   UNL     1      43.436 -13.732   7.182  1.00  0.00     0.185 C 
BRANCH  13  14
HETATM   14  C   UNL     1      43.717 -12.235   7.209  1.00  0.00     0.227 C 
HETATM   15  N   UNL     1      42.709 -11.471   6.657  1.00  0.00    -0.360 N 
HETATM   16  H   UNL     1      41.808 -11.902   6.489  1.00  0.00     0.162 HD
HETATM   17  O   UNL     1      44.745 -11.758   7.686  1.00  0.00    -0.273 OA
BRANCH  15  18
HETATM   18  C   UNL     1      42.759 -10.015   6.671  1.00  0.00     0.127 C 
BRANCH  18  19
HETATM   19  C   UNL     1      41.380  -9.407   6.934  1.00  0.00     0.058 C 
BRANCH  19  20
HETATM   20  C   UNL     1      40.981  -9.491   8.385  1.00  0.00    -0.057 A 
HETATM   21  C   UNL     1      39.646  -9.732   8.743  1.00  0.00     0.009 A 
HETATM   22  C   UNL     1      39.274  -9.802  10.087  1.00  0.00     0.025 A 
HETATM   23  C   UNL     1      40.243  -9.635  11.079  1.00  0.00     0.074 A 
HETATM   24  C   UNL     1      41.573  -9.380  10.740  1.00  0.00     0.025 A 
HETATM   25  C   UNL     1      41.939  -9.312   9.394  1.00  0.00     0.009 A 
BRANCH  23  26
HETATM   26  S   UNL     1      39.768  -9.674  12.785  1.00  0.00     0.239 S 
HETATM   27  O   UNL     1      39.124 -10.935  13.063  1.00  0.00    -0.206 OA
HETATM   28  O   UNL     1      40.854  -9.164  13.587  1.00  0.00    -0.206 OA
BRANCH  26  29
HETATM   29  N   UNL     1      38.561  -8.510  12.839  1.00  0.00    -0.225 NA
HETATM   30  H   UNL     1      37.730  -8.848  12.351  1.00  0.00     0.136 HD
HETATM   31  H   UNL     1      38.381  -8.240  13.806  1.00  0.00     0.136 HD
ENDBRANCH  26  29
ENDBRANCH  23  26
ENDBRANCH  19  20
ENDBRANCH  18  19
ENDBRANCH  15  18
ENDBRANCH  13  14
ENDBRANCH  12  13
ENDBRANCH   2  12
BRANCH   1  32
HETATM   32  C   UNL     1      41.545 -14.363   3.249  1.00  0.00     0.051 A 
HETATM   33  C   UNL     1      42.172 -13.175   2.839  1.00  0.00    -0.013 A 
HETATM   34  C   UNL     1      43.648 -12.939   2.992  1.00  0.00     0.052 C 
HETATM   35  C   UNL     1      41.338 -12.181   2.298  1.00  0.00     0.042 A 
HETATM   36 CL   UNL     1      41.961 -10.646   1.808  1.00  0.00    -0.084 Cl
HETATM   37  C   UNL     1      39.962 -12.396   2.134  1.00  0.00     0.024 A 
HETATM   38  C   UNL     1      39.380 -13.604   2.516  1.00  0.00     0.004 A 
HETATM   39  C   UNL     1      40.172 -14.597   3.080  1.00  0.00     0.031 A 
ENDBRANCH   1  32
BRANCH   6  40
HETATM   40  N   UNL     1      42.463 -16.468   1.648  1.00  0.00    -0.384 N 
HETATM   41  H   UNL     1      42.619 -15.600   1.145  1.00  0.00     0.157 HD
HETATM   42  H   UNL     1      41.744 -17.053   1.238  1.00  0.00     0.157 HD
ENDBRANCH   6  40
TORSDOF 10
ENDMDL
MODEL 9
REMARK VINA RESULT:      -8.1      3.527      4.969
REMARK  10 active torsions:
REMARK  status: ('A' for Active; 'I' for Inactive)
REMARK    1  A    between atoms: C_8  and  N_9 
REMARK    2  A    between atoms: C_10  and  S_11 
REMARK    3  A    between atoms: S_11  and  C_12 
REMARK    4  A    between atoms: C_12  and  C_13 
REMARK       I    between atoms: C_13  and  N_14 
REMARK    5  A    between atoms: N_14  and  C_15 
REMARK    6  A    between atoms: C_15  and  C_16 
REMARK    7  A    between atoms: C_16  and  C_17 
REMARK    8  A    between atoms: C_20  and  S_21 
REMARK    9  A    between atoms: S_21  and  N_22 
REMARK   10  A    between atoms: C_31  and  N_32 
ROOT
HETATM    1  N   UNL     1      41.253 -14.041   2.085  1.00  0.00    -0.275 N 
HETATM    2  C   UNL     1      41.875 -12.827   2.108  1.00  0.00     0.177 A 
HETATM    3  N   UNL     1      41.761 -11.879   1.152  1.00  0.00    -0.204 NA
HETATM    4  C   UNL     1      40.951 -12.260   0.165  1.00  0.00     0.162 A 
HETATM    5  C   UNL     1      40.283 -13.461   0.057  1.00  0.00     0.081 A 
HETATM    6  C   UNL     1      40.406 -14.413   1.082  1.00  0.00     0.124 A 
HETATM    7  N   UNL     1      40.641 -11.531  -0.947  1.00  0.00    -0.260 N 
HETATM    8  H   UNL     1      40.953 -10.596  -1.188  1.00  0.00     0.191 HD
HETATM    9  N   UNL     1      39.841 -12.187  -1.799  1.00  0.00    -0.177 NA
HETATM   10  C   UNL     1      39.621 -13.367  -1.206  1.00  0.00     0.068 A 
HETATM   11  C   UNL     1      38.790 -14.383  -1.902  1.00  0.00     0.073 C 
ENDROOT
BRANCH   2  12
HETATM   12  S   UNL     1      43.075 -12.414   3.391  1.00  0.00    -0.082 SA
BRANCH  12  13
HETATM   13  C   UNL     1      42.361 -10.852   4.009  1.00  0.00     0.185 C 
BRANCH  13  14
HETATM   14  C   UNL     1      42.091 -10.914   5.507  1.00  0.00     0.227 C 
HETATM   15  N   UNL     1      42.117  -9.682   6.128  1.00  0.00    -0.360 N 
HETATM   16  H   UNL     1      42.088  -8.847   5.553  1.00  0.00     0.162 HD
HETATM   17  O   UNL     1      41.864 -11.967   6.100  1.00  0.00    -0.273 OA
BRANCH  15  18
HETATM   18  C   UNL     1      41.795  -9.531   7.540  1.00  0.00     0.127 C 
BRANCH  18  19
HETATM   19  C   UNL     1      43.056  -9.522   8.406  1.00  0.00     0.058 C 
BRANCH  19  20
HETATM   20  C   UNL     1      42.790  -9.030   9.806  1.00  0.00    -0.057 A 
HETATM   21  C   UNL     1      43.810  -9.043  10.770  1.00  0.00     0.009 A 
HETATM   22  C   UNL     1      43.561  -8.593  12.069  1.00  0.00     0.025 A 
HETATM   23  C   UNL     1      42.290  -8.125  12.405  1.00  0.00     0.074 A 
HETATM   24  C   UNL     1      41.261  -8.119  11.461  1.00  0.00     0.025 A 
HETATM   25  C   UNL     1      41.515  -8.568  10.163  1.00  0.00     0.009 A 
BRANCH  23  26
HETATM   26  S   UNL     1      41.958  -7.600  14.063  1.00  0.00     0.239 S 
HETATM   27  O   UNL     1      40.924  -6.593  14.039  1.00  0.00    -0.206 OA
HETATM   28  O   UNL     1      41.888  -8.762  14.918  1.00  0.00    -0.206 OA
BRANCH  26  29
HETATM   29  N   UNL     1      43.378  -6.805  14.470  1.00  0.00    -0.225 NA
HETATM   30  H   UNL     1      43.531  -6.861  15.478  1.00  0.00     0.136 HD
HETATM   31  H   UNL     1      44.154  -7.177  13.921  1.00  0.00     0.136 HD
ENDBRANCH  26  29
ENDBRANCH  23  26
ENDBRANCH  19  20
ENDBRANCH  18  19
ENDBRANCH  15  18
ENDBRANCH  13  14
ENDBRANCH  12  13
ENDBRANCH   2  12
BRANCH   1  32
HETATM   32  C   UNL     1      41.579 -15.022   3.088  1.00  0.00     0.051 A 
HETATM   33  C   UNL     1      42.623 -15.940   2.884  1.00  0.00    -0.013 A 
HETATM   34  C   UNL     1      43.444 -15.974   1.627  1.00  0.00     0.052 C 
HETATM   35  C   UNL     1      42.849 -16.868   3.915  1.00  0.00     0.042 A 
HETATM   36 CL   UNL     1      44.058 -18.095   3.778  1.00  0.00    -0.084 Cl
HETATM   37  C   UNL     1      42.102 -16.836   5.101  1.00  0.00     0.024 A 
HETATM   38  C   UNL     1      41.100 -15.883   5.284  1.00  0.00     0.004 A 
HETATM   39  C   UNL     1      40.831 -14.969   4.273  1.00  0.00     0.031 A 
ENDBRANCH   1  32
BRANCH   6  40
HETATM   40  N   UNL     1      39.761 -15.645   1.052  1.00  0.00    -0.384 N 
HETATM   41  H   UNL     1      39.742 -16.147   0.170  1.00  0.00     0.157 HD
HETATM   42  H   UNL     1      38.951 -15.821   1.637  1.00  0.00     0.157 HD
ENDBRANCH   6  40
TORSDOF 10
ENDMDL
MODEL 10
REMARK VINA RESULT:      -7.9      2.761      3.388
REMARK  10 active torsions:
REMARK  status: ('A' for Active; 'I' for Inactive)
REMARK    1  A    between atoms: C_8  and  N_9 
REMARK    2  A    between atoms: C_10  and  S_11 
REMARK    3  A    between atoms: S_11  and  C_12 
REMARK    4  A    between atoms: C_12  and  C_13 
REMARK       I    between atoms: C_13  and  N_14 
REMARK    5  A    between atoms: N_14  and  C_15 
REMARK    6  A    between atoms: C_15  and  C_16 
REMARK    7  A    between atoms: C_16  and  C_17 
REMARK    8  A    between atoms: C_20  and  S_21 
REMARK    9  A    between atoms: S_21  and  N_22 
REMARK   10  A    between atoms: C_31  and  N_32 
ROOT
HETATM    1  N   UNL     1      41.725 -14.694   3.193  1.00  0.00    -0.275 N 
HETATM    2  C   UNL     1      41.082 -14.360   4.349  1.00  0.00     0.177 A 
HETATM    3  N   UNL     1      41.245 -14.986   5.535  1.00  0.00    -0.204 NA
HETATM    4  C   UNL     1      42.126 -15.982   5.458  1.00  0.00     0.162 A 
HETATM    5  C   UNL     1      42.821 -16.390   4.339  1.00  0.00     0.081 A 
HETATM    6  C   UNL     1      42.645 -15.700   3.128  1.00  0.00     0.124 A 
HETATM    7  N   UNL     1      42.499 -16.807   6.480  1.00  0.00    -0.260 N 
HETATM    8  H   UNL     1      42.188 -16.785   7.446  1.00  0.00     0.191 HD
HETATM    9  N   UNL     1      43.366 -17.756   6.100  1.00  0.00    -0.177 NA
HETATM   10  C   UNL     1      43.565 -17.521   4.797  1.00  0.00     0.068 A 
HETATM   11  C   UNL     1      44.459 -18.424   4.027  1.00  0.00     0.073 C 
ENDROOT
BRANCH   2  12
HETATM   12  S   UNL     1      39.791 -13.099   4.372  1.00  0.00    -0.082 SA
BRANCH  12  13
HETATM   13  C   UNL     1      39.996 -12.459   6.069  1.00  0.00     0.185 C 
BRANCH  13  14
HETATM   14  C   UNL     1      41.090 -11.402   6.140  1.00  0.00     0.227 C 
HETATM   15  N   UNL     1      42.282 -11.869   6.654  1.00  0.00    -0.360 N 
HETATM   16  H   UNL     1      42.418 -12.870   6.733  1.00  0.00     0.162 HD
HETATM   17  O   UNL     1      40.923 -10.243   5.765  1.00  0.00    -0.273 OA
BRANCH  15  18
HETATM   18  C   UNL     1      43.469 -11.028   6.718  1.00  0.00     0.127 C 
BRANCH  18  19
HETATM   19  C   UNL     1      44.231 -11.229   8.029  1.00  0.00     0.058 C 
BRANCH  19  20
HETATM   20  C   UNL     1      43.784 -10.274   9.107  1.00  0.00    -0.057 A 
HETATM   21  C   UNL     1      43.176  -9.055   8.769  1.00  0.00     0.009 A 
HETATM   22  C   UNL     1      42.768  -8.167   9.767  1.00  0.00     0.025 A 
HETATM   23  C   UNL     1      42.967  -8.500  11.109  1.00  0.00     0.074 A 
HETATM   24  C   UNL     1      43.584  -9.702  11.460  1.00  0.00     0.025 A 
HETATM   25  C   UNL     1      43.988 -10.587  10.459  1.00  0.00     0.009 A 
BRANCH  23  26
HETATM   26  S   UNL     1      42.497  -7.355  12.375  1.00  0.00     0.239 S 
HETATM   27  O   UNL     1      43.279  -7.617  13.559  1.00  0.00    -0.206 OA
HETATM   28  O   UNL     1      42.382  -6.037  11.798  1.00  0.00    -0.206 OA
BRANCH  26  29
HETATM   29  N   UNL     1      40.933  -7.847  12.729  1.00  0.00    -0.225 NA
HETATM   30  H   UNL     1      40.379  -7.048  13.041  1.00  0.00     0.136 HD
HETATM   31  H   UNL     1      40.529  -8.331  11.926  1.00  0.00     0.136 HD
ENDBRANCH  26  29
ENDBRANCH  23  26
ENDBRANCH  19  20
ENDBRANCH  18  19
ENDBRANCH  15  18
ENDBRANCH  13  14
ENDBRANCH  12  13
ENDBRANCH   2  12
BRANCH   1  32
HETATM   32  C   UNL     1      41.348 -14.048   1.963  1.00  0.00     0.051 A 
HETATM   33  C   UNL     1      40.463 -14.668   1.066  1.00  0.00    -0.013 A 
HETATM   34  C   UNL     1      39.872 -16.027   1.312  1.00  0.00     0.052 C 
HETATM   35  C   UNL     1      40.173 -13.963  -0.116  1.00  0.00     0.042 A 
HETATM   36 CL   UNL     1      39.150 -14.629  -1.338  1.00  0.00    -0.084 Cl
HETATM   37  C   UNL     1      40.704 -12.687  -0.350  1.00  0.00     0.024 A 
HETATM   38  C   UNL     1      41.548 -12.085   0.583  1.00  0.00     0.004 A 
HETATM   39  C   UNL     1      41.878 -12.767   1.748  1.00  0.00     0.031 A 
ENDBRANCH   1  32
BRANCH   6  40
HETATM   40  N   UNL     1      43.311 -16.044   1.957  1.00  0.00    -0.384 N 
HETATM   41  H   UNL     1      43.242 -15.406   1.170  1.00  0.00     0.157 HD
HETATM   42  H   UNL     1      43.414 -17.015   1.685  1.00  0.00     0.157 HD
ENDBRANCH   6  40
TORSDOF 10
ENDMDL
