MODEL 1
REMARK VINA RESULT:      -8.4      0.000      0.000
REMARK  10 active torsions:
REMARK  status: ('A' for Active; 'I' for Inactive)
REMARK    1  A    between atoms: C_4  and  C_5 
REMARK    2  A    between atoms: C_8  and  N_9 
REMARK    3  A    between atoms: C_15  and  C_16 
REMARK    4  A    between atoms: C_19  and  C_20 
REMARK    5  A    between atoms: C_20  and  N_21 
REMARK    6  A    between atoms: N_21  and  C_22 
REMARK    7  A    between atoms: C_22  and  N_23 
REMARK    8  A    between atoms: N_23  and  C_24 
REMARK    9  A    between atoms: C_26  and  C_27 
REMARK   10  A    between atoms: C_27  and  O_28 
ROOT
HETATM    1  C   UNL     1      39.950 -11.252  -1.240  1.00  0.00     0.067 C 
HETATM    2  C   UNL     1      41.234 -10.449  -1.517  1.00  0.00     0.001 C 
HETATM    3  C   UNL     1      41.714  -9.698  -0.257  1.00  0.00     0.040 C 
HETATM    4  C   UNL     1      40.698  -8.641   0.201  1.00  0.00     0.206 C 
HETATM    5  N   UNL     1      39.410  -8.904  -0.569  1.00  0.00    -0.065 N 
HETATM    6  H   UNL     1      38.660  -8.304  -0.198  1.00  0.00     0.280 HD
HETATM    7  C   UNL     1      38.962 -10.363  -0.449  1.00  0.00     0.246 C 
HETATM    8  C   UNL     1      40.845  -9.351  -2.542  1.00  0.00     0.033 C 
HETATM    9  C   UNL     1      39.631  -8.555  -2.037  1.00  0.00     0.236 C 
ENDROOT
BRANCH   4  10
HETATM   10  C   UNL     1      40.492  -8.601   1.731  1.00  0.00     0.155 C 
BRANCH  10  11
HETATM   11  N   UNL     1      41.545  -9.316   2.448  1.00  0.00    -0.365 N 
HETATM   12  H   UNL     1      42.331  -8.773   2.795  1.00  0.00     0.161 HD
BRANCH  11  13
HETATM   13  C   UNL     1      41.395 -10.488   3.144  1.00  0.00     0.172 C 
HETATM   14  S   UNL     1      39.969 -11.028   3.814  1.00  0.00    -0.041 SA
BRANCH  13  15
HETATM   15  N   UNL     1      42.535 -11.225   3.334  1.00  0.00    -0.333 N 
HETATM   16  H   UNL     1      43.167 -11.210   2.536  1.00  0.00     0.168 HD
BRANCH  15  17
HETATM   17  C   UNL     1      43.025 -11.871   4.490  1.00  0.00     0.035 A 
HETATM   18  C   UNL     1      43.705 -11.200   5.509  1.00  0.00     0.047 A 
HETATM   19  C   UNL     1      44.168 -11.881   6.645  1.00  0.00     0.041 A 
HETATM   20  C   UNL     1      43.973 -13.262   6.744  1.00  0.00     0.018 A 
HETATM   21  C   UNL     1      43.335 -13.947   5.707  1.00  0.00     0.003 A 
HETATM   22  C   UNL     1      42.872 -13.255   4.583  1.00  0.00     0.029 A 
BRANCH  19  23
HETATM   23  C   UNL     1      44.845 -11.079   7.699  1.00  0.00     0.293 C 
HETATM   24  O   UNL     1      44.579 -11.184   8.889  1.00  0.00    -0.259 OA
BRANCH  23  25
HETATM   25  O   UNL     1      45.806 -10.293   7.163  1.00  0.00    -0.323 OA
HETATM   26  C   UNL     1      46.331  -9.308   8.058  1.00  0.00     0.213 C 
ENDBRANCH  23  25
ENDBRANCH  19  23
ENDBRANCH  15  17
ENDBRANCH  13  15
ENDBRANCH  11  13
ENDBRANCH  10  11
ENDBRANCH   4  10
BRANCH   1  27
HETATM   27  C   UNL     1      39.998 -12.647  -0.683  1.00  0.00     0.038 C 
HETATM   28  N   UNL     1      39.424 -13.827  -1.101  1.00  0.00    -0.277 N 
HETATM   29  C   UNL     1      38.432 -14.102  -2.114  1.00  0.00     0.179 C 
HETATM   30  N   UNL     1      39.903 -14.902  -0.448  1.00  0.00    -0.172 NA
HETATM   31  C   UNL     1      40.653 -14.420   0.547  1.00  0.00     0.089 C 
HETATM   32  C   UNL     1      40.725 -13.013   0.444  1.00  0.00     0.061 C 
BRANCH  31  33
HETATM   33  C   UNL     1      41.328 -15.276   1.519  1.00  0.00    -0.005 A 
HETATM   34  C   UNL     1      42.656 -15.660   1.333  1.00  0.00     0.016 A 
HETATM   35  C   UNL     1      43.328 -16.412   2.311  1.00  0.00     0.030 A 
HETATM   36  C   UNL     1      42.700 -16.831   3.496  1.00  0.00     0.029 A 
HETATM   37  C   UNL     1      41.355 -16.451   3.647  1.00  0.00     0.030 A 
HETATM   38  C   UNL     1      40.678 -15.691   2.683  1.00  0.00     0.016 A 
BRANCH  36  39
HETATM   39  N   UNL     1      43.373 -17.536   4.499  1.00  0.00    -0.390 N 
HETATM   40  C   UNL     1      44.103 -18.756   4.158  1.00  0.00     0.149 C 
HETATM   41  C   UNL     1      42.816 -17.497   5.852  1.00  0.00     0.149 C 
ENDBRANCH  36  39
ENDBRANCH  31  33
ENDBRANCH   1  27
TORSDOF 10
ENDMDL
MODEL 2
REMARK VINA RESULT:      -8.2      2.232      2.728
REMARK  10 active torsions:
REMARK  status: ('A' for Active; 'I' for Inactive)
REMARK    1  A    between atoms: C_4  and  C_5 
REMARK    2  A    between atoms: C_8  and  N_9 
REMARK    3  A    between atoms: C_15  and  C_16 
REMARK    4  A    between atoms: C_19  and  C_20 
REMARK    5  A    between atoms: C_20  and  N_21 
REMARK    6  A    between atoms: N_21  and  C_22 
REMARK    7  A    between atoms: C_22  and  N_23 
REMARK    8  A    between atoms: N_23  and  C_24 
REMARK    9  A    between atoms: C_26  and  C_27 
REMARK   10  A    between atoms: C_27  and  O_28 
ROOT
HETATM    1  C   UNL     1      39.156 -11.510  -1.460  1.00  0.00     0.067 C 
HETATM    2  C   UNL     1      40.039 -10.856  -2.539  1.00  0.00     0.001 C 
HETATM    3  C   UNL     1      41.262 -10.151  -1.919  1.00  0.00     0.040 C 
HETATM    4  C   UNL     1      40.850  -8.984  -1.010  1.00  0.00     0.206 C 
HETATM    5  N   UNL     1      39.348  -9.110  -0.783  1.00  0.00    -0.065 N 
HETATM    6  H   UNL     1      39.050  -8.426  -0.073  1.00  0.00     0.280 HD
HETATM    7  C   UNL     1      38.961 -10.509  -0.297  1.00  0.00     0.246 C 
HETATM    8  C   UNL     1      39.180  -9.732  -3.178  1.00  0.00     0.033 C 
HETATM    9  C   UNL     1      38.623  -8.801  -2.089  1.00  0.00     0.236 C 
ENDROOT
BRANCH   4  10
HETATM   10  C   UNL     1      41.657  -8.906   0.305  1.00  0.00     0.155 C 
BRANCH  10  11
HETATM   11  N   UNL     1      40.960  -8.138   1.334  1.00  0.00    -0.365 N 
HETATM   12  H   UNL     1      40.425  -7.327   1.035  1.00  0.00     0.161 HD
BRANCH  11  13
HETATM   13  C   UNL     1      40.517  -8.618   2.539  1.00  0.00     0.172 C 
HETATM   14  S   UNL     1      38.946  -8.528   3.086  1.00  0.00    -0.041 SA
BRANCH  13  15
HETATM   15  N   UNL     1      41.472  -9.160   3.359  1.00  0.00    -0.333 N 
HETATM   16  H   UNL     1      41.992  -8.465   3.892  1.00  0.00     0.168 HD
BRANCH  15  17
HETATM   17  C   UNL     1      41.745 -10.507   3.681  1.00  0.00     0.035 A 
HETATM   18  C   UNL     1      41.017 -11.228   4.629  1.00  0.00     0.047 A 
HETATM   19  C   UNL     1      41.318 -12.570   4.911  1.00  0.00     0.041 A 
HETATM   20  C   UNL     1      42.388 -13.185   4.253  1.00  0.00     0.018 A 
HETATM   21  C   UNL     1      43.151 -12.455   3.339  1.00  0.00     0.003 A 
HETATM   22  C   UNL     1      42.835 -11.122   3.061  1.00  0.00     0.029 A 
BRANCH  19  23
HETATM   23  C   UNL     1      40.463 -13.273   5.905  1.00  0.00     0.293 C 
HETATM   24  O   UNL     1      39.351 -12.876   6.225  1.00  0.00    -0.259 OA
BRANCH  23  25
HETATM   25  O   UNL     1      41.060 -14.408   6.337  1.00  0.00    -0.323 OA
HETATM   26  C   UNL     1      40.154 -15.468   6.651  1.00  0.00     0.213 C 
ENDBRANCH  23  25
ENDBRANCH  19  23
ENDBRANCH  15  17
ENDBRANCH  13  15
ENDBRANCH  11  13
ENDBRANCH  10  11
ENDBRANCH   4  10
BRANCH   1  27
HETATM   27  C   UNL     1      39.432 -12.896  -0.950  1.00  0.00     0.038 C 
HETATM   28  N   UNL     1      39.141 -14.141  -1.460  1.00  0.00    -0.277 N 
HETATM   29  C   UNL     1      38.313 -14.550  -2.570  1.00  0.00     0.179 C 
HETATM   30  N   UNL     1      39.767 -15.135  -0.802  1.00  0.00    -0.172 NA
HETATM   31  C   UNL     1      40.319 -14.568   0.275  1.00  0.00     0.089 C 
HETATM   32  C   UNL     1      40.118 -13.171   0.227  1.00  0.00     0.061 C 
BRANCH  31  33
HETATM   33  C   UNL     1      41.065 -15.327   1.276  1.00  0.00    -0.005 A 
HETATM   34  C   UNL     1      42.440 -15.522   1.146  1.00  0.00     0.016 A 
HETATM   35  C   UNL     1      43.169 -16.178   2.152  1.00  0.00     0.030 A 
HETATM   36  C   UNL     1      42.557 -16.684   3.312  1.00  0.00     0.029 A 
HETATM   37  C   UNL     1      41.167 -16.495   3.406  1.00  0.00     0.030 A 
HETATM   38  C   UNL     1      40.431 -15.831   2.413  1.00  0.00     0.016 A 
BRANCH  36  39
HETATM   39  N   UNL     1      43.279 -17.292   4.343  1.00  0.00    -0.390 N 
HETATM   40  C   UNL     1      43.750 -16.486   5.467  1.00  0.00     0.149 C 
HETATM   41  C   UNL     1      44.117 -18.443   4.003  1.00  0.00     0.149 C 
ENDBRANCH  36  39
ENDBRANCH  31  33
ENDBRANCH   1  27
TORSDOF 10
ENDMDL
MODEL 3
REMARK VINA RESULT:      -8.0      3.881      7.586
REMARK  10 active torsions:
REMARK  status: ('A' for Active; 'I' for Inactive)
REMARK    1  A    between atoms: C_4  and  C_5 
REMARK    2  A    between atoms: C_8  and  N_9 
REMARK    3  A    between atoms: C_15  and  C_16 
REMARK    4  A    between atoms: C_19  and  C_20 
REMARK    5  A    between atoms: C_20  and  N_21 
REMARK    6  A    between atoms: N_21  and  C_22 
REMARK    7  A    between atoms: C_22  and  N_23 
REMARK    8  A    between atoms: N_23  and  C_24 
REMARK    9  A    between atoms: C_26  and  C_27 
REMARK   10  A    between atoms: C_27  and  O_28 
ROOT
HETATM    1  C   UNL     1      41.412 -11.420   5.752  1.00  0.00     0.067 C 
HETATM    2  C   UNL     1      39.989 -11.571   6.320  1.00  0.00     0.001 C 
HETATM    3  C   UNL     1      39.011 -12.115   5.259  1.00  0.00     0.040 C 
HETATM    4  C   UNL     1      38.846 -11.143   4.081  1.00  0.00     0.206 C 
HETATM    5  N   UNL     1      39.950 -10.100   4.211  1.00  0.00    -0.065 N 
HETATM    6  H   UNL     1      39.961  -9.506   3.371  1.00  0.00     0.280 HD
HETATM    7  C   UNL     1      41.329 -10.746   4.362  1.00  0.00     0.246 C 
HETATM    8  C   UNL     1      39.501 -10.135   6.651  1.00  0.00     0.033 C 
HETATM    9  C   UNL     1      39.659  -9.222   5.424  1.00  0.00     0.236 C 
ENDROOT
BRANCH   4  10
HETATM   10  C   UNL     1      38.830 -11.838   2.701  1.00  0.00     0.155 C 
BRANCH  10  11
HETATM   11  N   UNL     1      38.961 -13.288   2.812  1.00  0.00    -0.365 N 
HETATM   12  H   UNL     1      38.254 -13.785   3.348  1.00  0.00     0.161 HD
BRANCH  11  13
HETATM   13  C   UNL     1      39.588 -14.114   1.915  1.00  0.00     0.172 C 
HETATM   14  S   UNL     1      39.968 -15.713   2.189  1.00  0.00    -0.041 SA
BRANCH  13  15
HETATM   15  N   UNL     1      39.967 -13.538   0.731  1.00  0.00    -0.333 N 
HETATM   16  H   UNL     1      40.891 -13.113   0.763  1.00  0.00     0.168 HD
BRANCH  15  17
HETATM   17  C   UNL     1      39.351 -13.567  -0.539  1.00  0.00     0.035 A 
HETATM   18  C   UNL     1      38.593 -12.508  -1.044  1.00  0.00     0.047 A 
HETATM   19  C   UNL     1      38.005 -12.577  -2.317  1.00  0.00     0.041 A 
HETATM   20  C   UNL     1      38.154 -13.739  -3.079  1.00  0.00     0.018 A 
HETATM   21  C   UNL     1      38.870 -14.820  -2.561  1.00  0.00     0.003 A 
HETATM   22  C   UNL     1      39.458 -14.736  -1.295  1.00  0.00     0.029 A 
BRANCH  19  23
HETATM   23  C   UNL     1      37.251 -11.385  -2.791  1.00  0.00     0.293 C 
HETATM   24  O   UNL     1      36.054 -11.413  -3.045  1.00  0.00    -0.259 OA
BRANCH  23  25
HETATM   25  O   UNL     1      38.051 -10.295  -2.837  1.00  0.00    -0.323 OA
HETATM   26  C   UNL     1      37.350  -9.049  -2.844  1.00  0.00     0.213 C 
ENDBRANCH  23  25
ENDBRANCH  19  23
ENDBRANCH  15  17
ENDBRANCH  13  15
ENDBRANCH  11  13
ENDBRANCH  10  11
ENDBRANCH   4  10
BRANCH   1  27
HETATM   27  C   UNL     1      42.384 -12.566   5.747  1.00  0.00     0.038 C 
HETATM   28  N   UNL     1      43.498 -12.833   6.511  1.00  0.00    -0.277 N 
HETATM   29  C   UNL     1      44.225 -12.022   7.459  1.00  0.00     0.179 C 
HETATM   30  N   UNL     1      43.962 -14.086   6.341  1.00  0.00    -0.172 NA
HETATM   31  C   UNL     1      43.275 -14.591   5.312  1.00  0.00     0.089 C 
HETATM   32  C   UNL     1      42.290 -13.666   4.902  1.00  0.00     0.061 C 
BRANCH  31  33
HETATM   33  C   UNL     1      43.510 -15.932   4.784  1.00  0.00    -0.005 A 
HETATM   34  C   UNL     1      43.868 -16.981   5.631  1.00  0.00     0.016 A 
HETATM   35  C   UNL     1      44.010 -18.287   5.134  1.00  0.00     0.030 A 
HETATM   36  C   UNL     1      43.826 -18.596   3.776  1.00  0.00     0.029 A 
HETATM   37  C   UNL     1      43.489 -17.517   2.940  1.00  0.00     0.030 A 
HETATM   38  C   UNL     1      43.334 -16.211   3.427  1.00  0.00     0.016 A 
BRANCH  36  39
HETATM   39  N   UNL     1      43.914 -19.900   3.278  1.00  0.00    -0.390 N 
HETATM   40  C   UNL     1      43.324 -20.218   1.979  1.00  0.00     0.149 C 
HETATM   41  C   UNL     1      43.931 -21.000   4.244  1.00  0.00     0.149 C 
ENDBRANCH  36  39
ENDBRANCH  31  33
ENDBRANCH   1  27
TORSDOF 10
ENDMDL
MODEL 4
REMARK VINA RESULT:      -8.0      6.447     11.488
REMARK  10 active torsions:
REMARK  status: ('A' for Active; 'I' for Inactive)
REMARK    1  A    between atoms: C_4  and  C_5 
REMARK    2  A    between atoms: C_8  and  N_9 
REMARK    3  A    between atoms: C_15  and  C_16 
REMARK    4  A    between atoms: C_19  and  C_20 
REMARK    5  A    between atoms: C_20  and  N_21 
REMARK    6  A    between atoms: N_21  and  C_22 
REMARK    7  A    between atoms: C_22  and  N_23 
REMARK    8  A    between atoms: N_23  and  C_24 
REMARK    9  A    between atoms: C_26  and  C_27 
REMARK   10  A    between atoms: C_27  and  O_28 
ROOT
HETATM    1  C   UNL     1      44.199  -9.374   9.947  1.00  0.00     0.067 C 
HETATM    2  C   UNL     1      44.514  -8.532   8.697  1.00  0.00     0.001 C 
HETATM    3  C   UNL     1      43.565  -8.875   7.530  1.00  0.00     0.040 C 
HETATM    4  C   UNL     1      43.737 -10.327   7.061  1.00  0.00     0.206 C 
HETATM    5  N   UNL     1      44.576 -11.037   8.117  1.00  0.00    -0.065 N 
HETATM    6  H   UNL     1      44.605 -12.045   7.911  1.00  0.00     0.280 HD
HETATM    7  C   UNL     1      44.000 -10.849   9.522  1.00  0.00     0.246 C 
HETATM    8  C   UNL     1      45.931  -8.962   8.232  1.00  0.00     0.033 C 
HETATM    9  C   UNL     1      45.999 -10.489   8.068  1.00  0.00     0.236 C 
ENDROOT
BRANCH   4  10
HETATM   10  C   UNL     1      42.402 -11.046   6.765  1.00  0.00     0.155 C 
BRANCH  10  11
HETATM   11  N   UNL     1      42.557 -12.498   6.717  1.00  0.00    -0.365 N 
HETATM   12  H   UNL     1      42.735 -12.981   7.594  1.00  0.00     0.161 HD
BRANCH  11  13
HETATM   13  C   UNL     1      42.014 -13.338   5.779  1.00  0.00     0.172 C 
HETATM   14  S   UNL     1      40.563 -14.142   5.939  1.00  0.00    -0.041 SA
BRANCH  13  15
HETATM   15  N   UNL     1      42.771 -13.556   4.658  1.00  0.00    -0.333 N 
HETATM   16  H   UNL     1      43.440 -12.814   4.467  1.00  0.00     0.168 HD
BRANCH  15  17
HETATM   17  C   UNL     1      42.864 -14.692   3.824  1.00  0.00     0.035 A 
HETATM   18  C   UNL     1      43.381 -15.916   4.257  1.00  0.00     0.047 A 
HETATM   19  C   UNL     1      43.447 -17.022   3.395  1.00  0.00     0.041 A 
HETATM   20  C   UNL     1      43.018 -16.887   2.072  1.00  0.00     0.018 A 
HETATM   21  C   UNL     1      42.545 -15.653   1.619  1.00  0.00     0.003 A 
HETATM   22  C   UNL     1      42.476 -14.561   2.490  1.00  0.00     0.029 A 
BRANCH  19  23
HETATM   23  C   UNL     1      43.974 -18.297   3.953  1.00  0.00     0.293 C 
HETATM   24  O   UNL     1      44.167 -19.292   3.268  1.00  0.00    -0.259 OA
BRANCH  23  25
HETATM   25  O   UNL     1      44.251 -18.168   5.270  1.00  0.00    -0.323 OA
HETATM   26  C   UNL     1      43.473 -19.013   6.123  1.00  0.00     0.213 C 
ENDBRANCH  23  25
ENDBRANCH  19  23
ENDBRANCH  15  17
ENDBRANCH  13  15
ENDBRANCH  11  13
ENDBRANCH  10  11
ENDBRANCH   4  10
BRANCH   1  27
HETATM   27  C   UNL     1      43.159  -8.947  10.944  1.00  0.00     0.038 C 
HETATM   28  N   UNL     1      41.783  -8.930  10.891  1.00  0.00    -0.277 N 
HETATM   29  C   UNL     1      40.866  -9.147   9.797  1.00  0.00     0.179 C 
HETATM   30  N   UNL     1      41.216  -8.686  12.087  1.00  0.00    -0.172 NA
HETATM   31  C   UNL     1      42.218  -8.341  12.901  1.00  0.00     0.089 C 
HETATM   32  C   UNL     1      43.447  -8.475  12.219  1.00  0.00     0.061 C 
BRANCH  31  33
HETATM   33  C   UNL     1      42.011  -7.959  14.295  1.00  0.00    -0.005 A 
HETATM   34  C   UNL     1      42.818  -6.995  14.900  1.00  0.00     0.016 A 
HETATM   35  C   UNL     1      42.563  -6.569  16.214  1.00  0.00     0.030 A 
HETATM   36  C   UNL     1      41.513  -7.099  16.984  1.00  0.00     0.029 A 
HETATM   37  C   UNL     1      40.730  -8.086  16.359  1.00  0.00     0.030 A 
HETATM   38  C   UNL     1      40.969  -8.511  15.043  1.00  0.00     0.016 A 
BRANCH  36  39
HETATM   39  N   UNL     1      41.218  -6.647  18.273  1.00  0.00    -0.390 N 
HETATM   40  C   UNL     1      40.538  -7.537  19.212  1.00  0.00     0.149 C 
HETATM   41  C   UNL     1      40.940  -5.221  18.449  1.00  0.00     0.149 C 
ENDBRANCH  36  39
ENDBRANCH  31  33
ENDBRANCH   1  27
TORSDOF 10
ENDMDL
MODEL 5
REMARK VINA RESULT:      -7.9      1.431      1.864
REMARK  10 active torsions:
REMARK  status: ('A' for Active; 'I' for Inactive)
REMARK    1  A    between atoms: C_4  and  C_5 
REMARK    2  A    between atoms: C_8  and  N_9 
REMARK    3  A    between atoms: C_15  and  C_16 
REMARK    4  A    between atoms: C_19  and  C_20 
REMARK    5  A    between atoms: C_20  and  N_21 
REMARK    6  A    between atoms: N_21  and  C_22 
REMARK    7  A    between atoms: C_22  and  N_23 
REMARK    8  A    between atoms: N_23  and  C_24 
REMARK    9  A    between atoms: C_26  and  C_27 
REMARK   10  A    between atoms: C_27  and  O_28 
ROOT
HETATM    1  C   UNL     1      38.196 -11.532  -0.093  1.00  0.00     0.067 C 
HETATM    2  C   UNL     1      38.863 -10.172  -0.366  1.00  0.00     0.001 C 
HETATM    3  C   UNL     1      39.311  -9.489   0.942  1.00  0.00     0.040 C 
HETATM    4  C   UNL     1      38.119  -9.150   1.848  1.00  0.00     0.206 C 
HETATM    5  N   UNL     1      36.910  -9.887   1.283  1.00  0.00    -0.065 N 
HETATM    6  H   UNL     1      36.118  -9.796   1.933  1.00  0.00     0.280 HD
HETATM    7  C   UNL     1      37.196 -11.376   1.077  1.00  0.00     0.246 C 
HETATM    8  C   UNL     1      37.757  -9.261  -0.963  1.00  0.00     0.033 C 
HETATM    9  C   UNL     1      36.522  -9.250  -0.048  1.00  0.00     0.236 C 
ENDROOT
BRANCH   4  10
HETATM   10  C   UNL     1      38.368  -9.454   3.342  1.00  0.00     0.155 C 
BRANCH  10  11
HETATM   11  N   UNL     1      39.298 -10.565   3.530  1.00  0.00    -0.365 N 
HETATM   12  H   UNL     1      39.768 -10.931   2.706  1.00  0.00     0.161 HD
BRANCH  11  13
HETATM   13  C   UNL     1      39.996 -10.849   4.676  1.00  0.00     0.172 C 
HETATM   14  S   UNL     1      39.321 -11.028   6.189  1.00  0.00    -0.041 SA
BRANCH  13  15
HETATM   15  N   UNL     1      41.358 -10.931   4.547  1.00  0.00    -0.333 N 
HETATM   16  H   UNL     1      41.740 -10.290   3.854  1.00  0.00     0.168 HD
BRANCH  15  17
HETATM   17  C   UNL     1      42.308 -11.647   5.307  1.00  0.00     0.035 A 
HETATM   18  C   UNL     1      43.150 -11.042   6.243  1.00  0.00     0.047 A 
HETATM   19  C   UNL     1      44.074 -11.796   6.982  1.00  0.00     0.041 A 
HETATM   20  C   UNL     1      44.176 -13.171   6.756  1.00  0.00     0.018 A 
HETATM   21  C   UNL     1      43.370 -13.775   5.788  1.00  0.00     0.003 A 
HETATM   22  C   UNL     1      42.448 -13.015   5.063  1.00  0.00     0.029 A 
BRANCH  19  23
HETATM   23  C   UNL     1      44.901 -11.075   7.987  1.00  0.00     0.293 C 
HETATM   24  O   UNL     1      44.669 -11.108   9.188  1.00  0.00    -0.259 OA
BRANCH  23  25
HETATM   25  O   UNL     1      45.945 -10.451   7.394  1.00  0.00    -0.323 OA
HETATM   26  C   UNL     1      46.356  -9.243   8.039  1.00  0.00     0.213 C 
ENDBRANCH  23  25
ENDBRANCH  19  23
ENDBRANCH  15  17
ENDBRANCH  13  15
ENDBRANCH  11  13
ENDBRANCH  10  11
ENDBRANCH   4  10
BRANCH   1  27
HETATM   27  C   UNL     1      39.004 -12.793   0.042  1.00  0.00     0.038 C 
HETATM   28  N   UNL     1      39.410 -13.730  -0.881  1.00  0.00    -0.277 N 
HETATM   29  C   UNL     1      39.052 -13.927  -2.266  1.00  0.00     0.179 C 
HETATM   30  N   UNL     1      40.317 -14.594  -0.386  1.00  0.00    -0.172 NA
HETATM   31  C   UNL     1      40.367 -14.355   0.928  1.00  0.00     0.089 C 
HETATM   32  C   UNL     1      39.548 -13.247   1.237  1.00  0.00     0.061 C 
BRANCH  31  33
HETATM   33  C   UNL     1      41.215 -15.117   1.841  1.00  0.00    -0.005 A 
HETATM   34  C   UNL     1      40.710 -15.605   3.046  1.00  0.00     0.016 A 
HETATM   35  C   UNL     1      41.503 -16.410   3.881  1.00  0.00     0.030 A 
HETATM   36  C   UNL     1      42.832 -16.739   3.563  1.00  0.00     0.029 A 
HETATM   37  C   UNL     1      43.323 -16.214   2.355  1.00  0.00     0.030 A 
HETATM   38  C   UNL     1      42.537 -15.419   1.508  1.00  0.00     0.016 A 
BRANCH  36  39
HETATM   39  N   UNL     1      43.614 -17.580   4.361  1.00  0.00    -0.390 N 
HETATM   40  C   UNL     1      44.235 -18.763   3.769  1.00  0.00     0.149 C 
HETATM   41  C   UNL     1      43.262 -17.699   5.777  1.00  0.00     0.149 C 
ENDBRANCH  36  39
ENDBRANCH  31  33
ENDBRANCH   1  27
TORSDOF 10
ENDMDL
MODEL 6
REMARK VINA RESULT:      -7.9      3.590      5.159
REMARK  10 active torsions:
REMARK  status: ('A' for Active; 'I' for Inactive)
REMARK    1  A    between atoms: C_4  and  C_5 
REMARK    2  A    between atoms: C_8  and  N_9 
REMARK    3  A    between atoms: C_15  and  C_16 
REMARK    4  A    between atoms: C_19  and  C_20 
REMARK    5  A    between atoms: C_20  and  N_21 
REMARK    6  A    between atoms: N_21  and  C_22 
REMARK    7  A    between atoms: C_22  and  N_23 
REMARK    8  A    between atoms: N_23  and  C_24 
REMARK    9  A    between atoms: C_26  and  C_27 
REMARK   10  A    between atoms: C_27  and  O_28 
ROOT
HETATM    1  C   UNL     1      40.092 -11.479   4.388  1.00  0.00     0.067 C 
HETATM    2  C   UNL     1      39.819 -10.297   3.439  1.00  0.00     0.001 C 
HETATM    3  C   UNL     1      40.652  -9.058   3.826  1.00  0.00     0.040 C 
HETATM    4  C   UNL     1      40.272  -8.523   5.214  1.00  0.00     0.206 C 
HETATM    5  N   UNL     1      39.409  -9.590   5.877  1.00  0.00    -0.065 N 
HETATM    6  H   UNL     1      39.240  -9.333   6.860  1.00  0.00     0.280 HD
HETATM    7  C   UNL     1      40.079 -10.965   5.847  1.00  0.00     0.246 C 
HETATM    8  C   UNL     1      38.336  -9.898   3.662  1.00  0.00     0.033 C 
HETATM    9  C   UNL     1      38.066  -9.657   5.156  1.00  0.00     0.236 C 
ENDROOT
BRANCH   4  10
HETATM   10  C   UNL     1      41.487  -8.108   6.074  1.00  0.00     0.155 C 
BRANCH  10  11
HETATM   11  N   UNL     1      41.085  -7.471   7.325  1.00  0.00    -0.365 N 
HETATM   12  H   UNL     1      40.760  -8.073   8.077  1.00  0.00     0.161 HD
BRANCH  11  13
HETATM   13  C   UNL     1      41.541  -6.269   7.802  1.00  0.00     0.172 C 
HETATM   14  S   UNL     1      41.351  -4.801   7.036  1.00  0.00    -0.041 SA
BRANCH  13  15
HETATM   15  N   UNL     1      42.251  -6.316   8.973  1.00  0.00    -0.333 N 
HETATM   16  H   UNL     1      42.060  -5.534   9.596  1.00  0.00     0.168 HD
BRANCH  15  17
HETATM   17  C   UNL     1      43.080  -7.330   9.500  1.00  0.00     0.035 A 
HETATM   18  C   UNL     1      44.046  -7.997   8.742  1.00  0.00     0.047 A 
HETATM   19  C   UNL     1      44.854  -8.993   9.311  1.00  0.00     0.041 A 
HETATM   20  C   UNL     1      44.668  -9.347  10.650  1.00  0.00     0.018 A 
HETATM   21  C   UNL     1      43.672  -8.718  11.400  1.00  0.00     0.003 A 
HETATM   22  C   UNL     1      42.878  -7.721  10.825  1.00  0.00     0.029 A 
BRANCH  19  23
HETATM   23  C   UNL     1      45.885  -9.621   8.441  1.00  0.00     0.293 C 
HETATM   24  O   UNL     1      46.724  -8.974   7.829  1.00  0.00    -0.259 OA
BRANCH  23  25
HETATM   25  O   UNL     1      45.792 -10.970   8.480  1.00  0.00    -0.323 OA
HETATM   26  C   UNL     1      45.015 -11.539   7.423  1.00  0.00     0.213 C 
ENDBRANCH  23  25
ENDBRANCH  19  23
ENDBRANCH  15  17
ENDBRANCH  13  15
ENDBRANCH  11  13
ENDBRANCH  10  11
ENDBRANCH   4  10
BRANCH   1  27
HETATM   27  C   UNL     1      41.231 -12.431   4.153  1.00  0.00     0.038 C 
HETATM   28  N   UNL     1      42.597 -12.261   4.188  1.00  0.00    -0.277 N 
HETATM   29  C   UNL     1      43.410 -11.072   4.284  1.00  0.00     0.179 C 
HETATM   30  N   UNL     1      43.271 -13.426   4.142  1.00  0.00    -0.172 NA
HETATM   31  C   UNL     1      42.358 -14.364   3.875  1.00  0.00     0.089 C 
HETATM   32  C   UNL     1      41.072 -13.780   3.858  1.00  0.00     0.061 C 
BRANCH  31  33
HETATM   33  C   UNL     1      42.697 -15.775   3.708  1.00  0.00    -0.005 A 
HETATM   34  C   UNL     1      42.488 -16.420   2.489  1.00  0.00     0.016 A 
HETATM   35  C   UNL     1      42.893 -17.752   2.305  1.00  0.00     0.030 A 
HETATM   36  C   UNL     1      43.499 -18.500   3.329  1.00  0.00     0.029 A 
HETATM   37  C   UNL     1      43.676 -17.833   4.554  1.00  0.00     0.030 A 
HETATM   38  C   UNL     1      43.285 -16.500   4.746  1.00  0.00     0.016 A 
BRANCH  36  39
HETATM   39  N   UNL     1      43.953 -19.809   3.143  1.00  0.00    -0.390 N 
HETATM   40  C   UNL     1      43.650 -20.506   1.894  1.00  0.00     0.149 C 
HETATM   41  C   UNL     1      44.074 -20.665   4.324  1.00  0.00     0.149 C 
ENDBRANCH  36  39
ENDBRANCH  31  33
ENDBRANCH   1  27
TORSDOF 10
ENDMDL
MODEL 7
REMARK VINA RESULT:      -7.6      6.709      9.510
REMARK  10 active torsions:
REMARK  status: ('A' for Active; 'I' for Inactive)
REMARK    1  A    between atoms: C_4  and  C_5 
REMARK    2  A    between atoms: C_8  and  N_9 
REMARK    3  A    between atoms: C_15  and  C_16 
REMARK    4  A    between atoms: C_19  and  C_20 
REMARK    5  A    between atoms: C_20  and  N_21 
REMARK    6  A    between atoms: N_21  and  C_22 
REMARK    7  A    between atoms: C_22  and  N_23 
REMARK    8  A    between atoms: N_23  and  C_24 
REMARK    9  A    between atoms: C_26  and  C_27 
REMARK   10  A    between atoms: C_27  and  O_28 
ROOT
HETATM    1  C   UNL     1      43.818 -10.197   7.577  1.00  0.00     0.067 C 
HETATM    2  C   UNL     1      45.151 -10.232   8.346  1.00  0.00     0.001 C 
HETATM    3  C   UNL     1      44.943 -10.640   9.819  1.00  0.00     0.040 C 
HETATM    4  C   UNL     1      44.092  -9.616  10.583  1.00  0.00     0.206 C 
HETATM    5  N   UNL     1      43.477  -8.688   9.542  1.00  0.00    -0.065 N 
HETATM    6  H   UNL     1      42.794  -8.067   9.997  1.00  0.00     0.280 HD
HETATM    7  C   UNL     1      42.759  -9.468   8.438  1.00  0.00     0.246 C 
HETATM    8  C   UNL     1      45.668  -8.769   8.381  1.00  0.00     0.033 C 
HETATM    9  C   UNL     1      44.581  -7.831   8.931  1.00  0.00     0.236 C 
ENDROOT
BRANCH   4  10
HETATM   10  C   UNL     1      43.043 -10.255  11.520  1.00  0.00     0.155 C 
BRANCH  10  11
HETATM   11  N   UNL     1      42.641  -9.351  12.595  1.00  0.00    -0.365 N 
HETATM   12  H   UNL     1      43.262  -8.578  12.817  1.00  0.00     0.161 HD
BRANCH  11  13
HETATM   13  C   UNL     1      41.355  -9.097  12.997  1.00  0.00     0.172 C 
HETATM   14  S   UNL     1      40.121 -10.217  13.021  1.00  0.00    -0.041 SA
BRANCH  13  15
HETATM   15  N   UNL     1      41.079  -7.802  13.349  1.00  0.00    -0.333 N 
HETATM   16  H   UNL     1      41.229  -7.135  12.595  1.00  0.00     0.168 HD
BRANCH  15  17
HETATM   17  C   UNL     1      40.496  -7.277  14.523  1.00  0.00     0.035 A 
HETATM   18  C   UNL     1      40.965  -7.571  15.806  1.00  0.00     0.047 A 
HETATM   19  C   UNL     1      40.359  -7.019  16.945  1.00  0.00     0.041 A 
HETATM   20  C   UNL     1      39.246  -6.186  16.795  1.00  0.00     0.018 A 
HETATM   21  C   UNL     1      38.743  -5.926  15.518  1.00  0.00     0.003 A 
HETATM   22  C   UNL     1      39.361  -6.476  14.390  1.00  0.00     0.029 A 
BRANCH  19  23
HETATM   23  C   UNL     1      40.951  -7.353  18.268  1.00  0.00     0.293 C 
HETATM   24  O   UNL     1      42.070  -7.831  18.395  1.00  0.00    -0.259 OA
BRANCH  23  25
HETATM   25  O   UNL     1      40.114  -7.003  19.272  1.00  0.00    -0.323 OA
HETATM   26  C   UNL     1      40.773  -6.606  20.478  1.00  0.00     0.213 C 
ENDBRANCH  23  25
ENDBRANCH  19  23
ENDBRANCH  15  17
ENDBRANCH  13  15
ENDBRANCH  11  13
ENDBRANCH  10  11
ENDBRANCH   4  10
BRANCH   1  27
HETATM   27  C   UNL     1      43.246 -11.430   6.935  1.00  0.00     0.038 C 
HETATM   28  N   UNL     1      42.046 -11.668   6.303  1.00  0.00    -0.277 N 
HETATM   29  C   UNL     1      40.848 -10.871   6.194  1.00  0.00     0.179 C 
HETATM   30  N   UNL     1      42.018 -12.852   5.663  1.00  0.00    -0.172 NA
HETATM   31  C   UNL     1      43.129 -13.494   6.036  1.00  0.00     0.089 C 
HETATM   32  C   UNL     1      43.916 -12.644   6.844  1.00  0.00     0.061 C 
BRANCH  31  33
HETATM   33  C   UNL     1      43.455 -14.844   5.583  1.00  0.00    -0.005 A 
HETATM   34  C   UNL     1      44.093 -15.748   6.432  1.00  0.00     0.016 A 
HETATM   35  C   UNL     1      44.328 -17.071   6.023  1.00  0.00     0.030 A 
HETATM   36  C   UNL     1      43.961 -17.539   4.750  1.00  0.00     0.029 A 
HETATM   37  C   UNL     1      43.341 -16.601   3.906  1.00  0.00     0.030 A 
HETATM   38  C   UNL     1      43.091 -15.280   4.307  1.00  0.00     0.016 A 
BRANCH  36  39
HETATM   39  N   UNL     1      44.143 -18.866   4.350  1.00  0.00    -0.390 N 
HETATM   40  C   UNL     1      43.767 -19.270   2.997  1.00  0.00     0.149 C 
HETATM   41  C   UNL     1      44.026 -19.909   5.371  1.00  0.00     0.149 C 
ENDBRANCH  36  39
ENDBRANCH  31  33
ENDBRANCH   1  27
TORSDOF 10
ENDMDL
MODEL 8
REMARK VINA RESULT:      -7.5      1.597      2.247
REMARK  10 active torsions:
REMARK  status: ('A' for Active; 'I' for Inactive)
REMARK    1  A    between atoms: C_4  and  C_5 
REMARK    2  A    between atoms: C_8  and  N_9 
REMARK    3  A    between atoms: C_15  and  C_16 
REMARK    4  A    between atoms: C_19  and  C_20 
REMARK    5  A    between atoms: C_20  and  N_21 
REMARK    6  A    between atoms: N_21  and  C_22 
REMARK    7  A    between atoms: C_22  and  N_23 
REMARK    8  A    between atoms: N_23  and  C_24 
REMARK    9  A    between atoms: C_26  and  C_27 
REMARK   10  A    between atoms: C_27  and  O_28 
ROOT
HETATM    1  C   UNL     1      40.248 -11.111  -1.331  1.00  0.00     0.067 C 
HETATM    2  C   UNL     1      41.511 -10.233  -1.383  1.00  0.00     0.001 C 
HETATM    3  C   UNL     1      41.632  -9.342  -0.130  1.00  0.00     0.040 C 
HETATM    4  C   UNL     1      40.477  -8.336  -0.029  1.00  0.00     0.206 C 
HETATM    5  N   UNL     1      39.426  -8.766  -1.046  1.00  0.00    -0.065 N 
HETATM    6  H   UNL     1      38.576  -8.199  -0.921  1.00  0.00     0.280 HD
HETATM    7  C   UNL     1      39.049 -10.241  -0.885  1.00  0.00     0.246 C 
HETATM    8  C   UNL     1      41.314  -9.261  -2.577  1.00  0.00     0.033 C 
HETATM    9  C   UNL     1      39.969  -8.526  -2.450  1.00  0.00     0.236 C 
ENDROOT
BRANCH   4  10
HETATM   10  C   UNL     1      39.909  -8.182   1.400  1.00  0.00     0.155 C 
BRANCH  10  11
HETATM   11  N   UNL     1      40.948  -7.854   2.373  1.00  0.00    -0.365 N 
HETATM   12  H   UNL     1      41.712  -7.258   2.063  1.00  0.00     0.161 HD
BRANCH  11  13
HETATM   13  C   UNL     1      40.795  -7.811   3.735  1.00  0.00     0.172 C 
HETATM   14  S   UNL     1      41.500  -6.687   4.742  1.00  0.00    -0.041 SA
BRANCH  13  15
HETATM   15  N   UNL     1      40.043  -8.814   4.288  1.00  0.00    -0.333 N 
HETATM   16  H   UNL     1      39.065  -8.564   4.421  1.00  0.00     0.168 HD
BRANCH  15  17
HETATM   17  C   UNL     1      40.372 -10.159   4.563  1.00  0.00     0.035 A 
HETATM   18  C   UNL     1      41.646 -10.566   4.969  1.00  0.00     0.047 A 
HETATM   19  C   UNL     1      41.926 -11.914   5.240  1.00  0.00     0.041 A 
HETATM   20  C   UNL     1      40.921 -12.871   5.071  1.00  0.00     0.018 A 
HETATM   21  C   UNL     1      39.659 -12.478   4.620  1.00  0.00     0.003 A 
HETATM   22  C   UNL     1      39.390 -11.131   4.361  1.00  0.00     0.029 A 
BRANCH  19  23
HETATM   23  C   UNL     1      43.298 -12.250   5.707  1.00  0.00     0.293 C 
HETATM   24  O   UNL     1      43.615 -13.367   6.092  1.00  0.00    -0.259 OA
BRANCH  23  25
HETATM   25  O   UNL     1      44.123 -11.184   5.586  1.00  0.00    -0.323 OA
HETATM   26  C   UNL     1      45.388 -11.341   6.233  1.00  0.00     0.213 C 
ENDBRANCH  23  25
ENDBRANCH  19  23
ENDBRANCH  15  17
ENDBRANCH  13  15
ENDBRANCH  11  13
ENDBRANCH  10  11
ENDBRANCH   4  10
BRANCH   1  27
HETATM   27  C   UNL     1      40.243 -12.445  -0.640  1.00  0.00     0.038 C 
HETATM   28  N   UNL     1      39.764 -13.679  -1.020  1.00  0.00    -0.277 N 
HETATM   29  C   UNL     1      38.941 -14.083  -2.135  1.00  0.00     0.179 C 
HETATM   30  N   UNL     1      40.165 -14.671  -0.202  1.00  0.00    -0.172 NA
HETATM   31  C   UNL     1      40.747 -14.070   0.840  1.00  0.00     0.089 C 
HETATM   32  C   UNL     1      40.801 -12.678   0.612  1.00  0.00     0.061 C 
BRANCH  31  33
HETATM   33  C   UNL     1      41.288 -14.807   1.979  1.00  0.00    -0.005 A 
HETATM   34  C   UNL     1      40.466 -15.621   2.759  1.00  0.00     0.016 A 
HETATM   35  C   UNL     1      41.005 -16.395   3.800  1.00  0.00     0.030 A 
HETATM   36  C   UNL     1      42.373 -16.370   4.122  1.00  0.00     0.029 A 
HETATM   37  C   UNL     1      43.174 -15.523   3.336  1.00  0.00     0.030 A 
HETATM   38  C   UNL     1      42.649 -14.755   2.287  1.00  0.00     0.016 A 
BRANCH  36  39
HETATM   39  N   UNL     1      42.929 -17.174   5.122  1.00  0.00    -0.390 N 
HETATM   40  C   UNL     1      42.661 -16.866   6.526  1.00  0.00     0.149 C 
HETATM   41  C   UNL     1      44.224 -17.800   4.854  1.00  0.00     0.149 C 
ENDBRANCH  36  39
ENDBRANCH  31  33
ENDBRANCH   1  27
TORSDOF 10
ENDMDL
MODEL 9
REMARK VINA RESULT:      -7.5      8.573     13.311
REMARK  10 active torsions:
REMARK  status: ('A' for Active; 'I' for Inactive)
REMARK    1  A    between atoms: C_4  and  C_5 
REMARK    2  A    between atoms: C_8  and  N_9 
REMARK    3  A    between atoms: C_15  and  C_16 
REMARK    4  A    between atoms: C_19  and  C_20 
REMARK    5  A    between atoms: C_20  and  N_21 
REMARK    6  A    between atoms: N_21  and  C_22 
REMARK    7  A    between atoms: C_22  and  N_23 
REMARK    8  A    between atoms: N_23  and  C_24 
REMARK    9  A    between atoms: C_26  and  C_27 
REMARK   10  A    between atoms: C_27  and  O_28 
ROOT
HETATM    1  C   UNL     1      42.459  -8.865  12.960  1.00  0.00     0.067 C 
HETATM    2  C   UNL     1      43.307  -8.191  11.867  1.00  0.00     0.001 C 
HETATM    3  C   UNL     1      42.450  -7.800  10.645  1.00  0.00     0.040 C 
HETATM    4  C   UNL     1      41.849  -9.031   9.951  1.00  0.00     0.206 C 
HETATM    5  N   UNL     1      42.052 -10.212  10.892  1.00  0.00    -0.065 N 
HETATM    6  H   UNL     1      41.547 -11.032  10.527  1.00  0.00     0.280 HD
HETATM    7  C   UNL     1      41.532  -9.915  12.300  1.00  0.00     0.246 C 
HETATM    8  C   UNL     1      44.299  -9.272  11.361  1.00  0.00     0.033 C 
HETATM    9  C   UNL     1      43.539 -10.545  10.954  1.00  0.00     0.236 C 
ENDROOT
BRANCH   4  10
HETATM   10  C   UNL     1      40.376  -8.844   9.522  1.00  0.00     0.155 C 
BRANCH  10  11
HETATM   11  N   UNL     1      40.243  -8.645   8.081  1.00  0.00    -0.365 N 
HETATM   12  H   UNL     1      40.525  -7.745   7.702  1.00  0.00     0.161 HD
BRANCH  11  13
HETATM   13  C   UNL     1      40.271  -9.627   7.125  1.00  0.00     0.172 C 
HETATM   14  S   UNL     1      39.025 -10.687   6.804  1.00  0.00    -0.041 SA
BRANCH  13  15
HETATM   15  N   UNL     1      41.445  -9.759   6.432  1.00  0.00    -0.333 N 
HETATM   16  H   UNL     1      41.629  -8.989   5.791  1.00  0.00     0.168 HD
BRANCH  15  17
HETATM   17  C   UNL     1      42.487 -10.702   6.568  1.00  0.00     0.035 A 
HETATM   18  C   UNL     1      42.360 -12.040   6.186  1.00  0.00     0.047 A 
HETATM   19  C   UNL     1      43.426 -12.941   6.331  1.00  0.00     0.041 A 
HETATM   20  C   UNL     1      44.625 -12.500   6.899  1.00  0.00     0.018 A 
HETATM   21  C   UNL     1      44.742 -11.176   7.327  1.00  0.00     0.003 A 
HETATM   22  C   UNL     1      43.676 -10.285   7.169  1.00  0.00     0.029 A 
BRANCH  19  23
HETATM   23  C   UNL     1      43.215 -14.337   5.859  1.00  0.00     0.293 C 
HETATM   24  O   UNL     1      42.544 -14.611   4.874  1.00  0.00    -0.259 OA
BRANCH  23  25
HETATM   25  O   UNL     1      43.906 -15.213   6.624  1.00  0.00    -0.323 OA
HETATM   26  C   UNL     1      43.094 -16.003   7.496  1.00  0.00     0.213 C 
ENDBRANCH  23  25
ENDBRANCH  19  23
ENDBRANCH  15  17
ENDBRANCH  13  15
ENDBRANCH  11  13
ENDBRANCH  10  11
ENDBRANCH   4  10
BRANCH   1  27
HETATM   27  C   UNL     1      41.725  -8.061  13.996  1.00  0.00     0.038 C 
HETATM   28  N   UNL     1      40.641  -7.217  13.910  1.00  0.00    -0.277 N 
HETATM   29  C   UNL     1      39.944  -6.668  12.771  1.00  0.00     0.179 C 
HETATM   30  N   UNL     1      40.150  -6.871  15.115  1.00  0.00    -0.172 NA
HETATM   31  C   UNL     1      41.031  -7.326  16.011  1.00  0.00     0.089 C 
HETATM   32  C   UNL     1      42.038  -8.062  15.350  1.00  0.00     0.061 C 
BRANCH  31  33
HETATM   33  C   UNL     1      40.878  -7.118  17.449  1.00  0.00    -0.005 A 
HETATM   34  C   UNL     1      41.275  -5.921  18.044  1.00  0.00     0.016 A 
HETATM   35  C   UNL     1      41.049  -5.692  19.412  1.00  0.00     0.030 A 
HETATM   36  C   UNL     1      40.442  -6.650  20.242  1.00  0.00     0.029 A 
HETATM   37  C   UNL     1      40.073  -7.856  19.621  1.00  0.00     0.030 A 
HETATM   38  C   UNL     1      40.284  -8.092  18.255  1.00  0.00     0.016 A 
BRANCH  36  39
HETATM   39  N   UNL     1      40.165  -6.413  21.592  1.00  0.00    -0.390 N 
HETATM   40  C   UNL     1      39.135  -7.200  22.266  1.00  0.00     0.149 C 
HETATM   41  C   UNL     1      40.343  -5.051  22.097  1.00  0.00     0.149 C 
ENDBRANCH  36  39
ENDBRANCH  31  33
ENDBRANCH   1  27
TORSDOF 10
ENDMDL
MODEL 10
REMARK VINA RESULT:      -7.5      4.967      8.374
REMARK  10 active torsions:
REMARK  status: ('A' for Active; 'I' for Inactive)
REMARK    1  A    between atoms: C_4  and  C_5 
REMARK    2  A    between atoms: C_8  and  N_9 
REMARK    3  A    between atoms: C_15  and  C_16 
REMARK    4  A    between atoms: C_19  and  C_20 
REMARK    5  A    between atoms: C_20  and  N_21 
REMARK    6  A    between atoms: N_21  and  C_22 
REMARK    7  A    between atoms: C_22  and  N_23 
REMARK    8  A    between atoms: N_23  and  C_24 
REMARK    9  A    between atoms: C_26  and  C_27 
REMARK   10  A    between atoms: C_27  and  O_28 
ROOT
HETATM    1  C   UNL     1      43.941 -10.296   7.480  1.00  0.00     0.067 C 
HETATM    2  C   UNL     1      45.297 -10.403   8.201  1.00  0.00     0.001 C 
HETATM    3  C   UNL     1      45.123 -10.835   9.671  1.00  0.00     0.040 C 
HETATM    4  C   UNL     1      44.344  -9.792  10.486  1.00  0.00     0.206 C 
HETATM    5  N   UNL     1      43.733  -8.817   9.486  1.00  0.00    -0.065 N 
HETATM    6  H   UNL     1      43.093  -8.178   9.978  1.00  0.00     0.280 HD
HETATM    7  C   UNL     1      42.945  -9.541   8.393  1.00  0.00     0.246 C 
HETATM    8  C   UNL     1      45.877  -8.965   8.247  1.00  0.00     0.033 C 
HETATM    9  C   UNL     1      44.851  -7.994   8.854  1.00  0.00     0.236 C 
ENDROOT
BRANCH   4  10
HETATM   10  C   UNL     1      43.301 -10.407  11.446  1.00  0.00     0.155 C 
BRANCH  10  11
HETATM   11  N   UNL     1      42.970  -9.508  12.549  1.00  0.00    -0.365 N 
HETATM   12  H   UNL     1      43.690  -8.862  12.861  1.00  0.00     0.161 HD
BRANCH  11  13
HETATM   13  C   UNL     1      41.716  -9.067  12.883  1.00  0.00     0.172 C 
HETATM   14  S   UNL     1      40.327  -9.985  12.809  1.00  0.00    -0.041 SA
BRANCH  13  15
HETATM   15  N   UNL     1      41.619  -7.750  13.249  1.00  0.00    -0.333 N 
HETATM   16  H   UNL     1      41.468  -7.615  14.247  1.00  0.00     0.168 HD
BRANCH  15  17
HETATM   17  C   UNL     1      41.832  -6.574  12.499  1.00  0.00     0.035 A 
HETATM   18  C   UNL     1      41.674  -6.513  11.112  1.00  0.00     0.047 A 
HETATM   19  C   UNL     1      41.889  -5.318  10.408  1.00  0.00     0.041 A 
HETATM   20  C   UNL     1      42.299  -4.177  11.102  1.00  0.00     0.018 A 
HETATM   21  C   UNL     1      42.504  -4.242  12.482  1.00  0.00     0.003 A 
HETATM   22  C   UNL     1      42.279  -5.436  13.174  1.00  0.00     0.029 A 
BRANCH  19  23
HETATM   23  C   UNL     1      41.657  -5.336   8.938  1.00  0.00     0.293 C 
HETATM   24  O   UNL     1      42.228  -6.111   8.184  1.00  0.00    -0.259 OA
BRANCH  23  25
HETATM   25  O   UNL     1      40.709  -4.436   8.589  1.00  0.00    -0.323 OA
HETATM   26  C   UNL     1      39.966  -4.785   7.418  1.00  0.00     0.213 C 
ENDBRANCH  23  25
ENDBRANCH  19  23
ENDBRANCH  15  17
ENDBRANCH  13  15
ENDBRANCH  11  13
ENDBRANCH  10  11
ENDBRANCH   4  10
BRANCH   1  27
HETATM   27  C   UNL     1      43.295 -11.489   6.833  1.00  0.00     0.038 C 
HETATM   28  N   UNL     1      42.102 -11.641   6.163  1.00  0.00    -0.277 N 
HETATM   29  C   UNL     1      40.974 -10.753   6.004  1.00  0.00     0.179 C 
HETATM   30  N   UNL     1      42.001 -12.829   5.537  1.00  0.00    -0.172 NA
HETATM   31  C   UNL     1      43.044 -13.550   5.956  1.00  0.00     0.089 C 
HETATM   32  C   UNL     1      43.868 -12.754   6.781  1.00  0.00     0.061 C 
BRANCH  31  33
HETATM   33  C   UNL     1      43.277 -14.928   5.531  1.00  0.00    -0.005 A 
HETATM   34  C   UNL     1      42.934 -15.347   4.246  1.00  0.00     0.016 A 
HETATM   35  C   UNL     1      43.237 -16.649   3.812  1.00  0.00     0.030 A 
HETATM   36  C   UNL     1      43.869 -17.588   4.644  1.00  0.00     0.029 A 
HETATM   37  C   UNL     1      44.181 -17.148   5.942  1.00  0.00     0.030 A 
HETATM   38  C   UNL     1      43.893 -15.847   6.383  1.00  0.00     0.016 A 
BRANCH  36  39
HETATM   39  N   UNL     1      44.221 -18.869   4.208  1.00  0.00    -0.390 N 
HETATM   40  C   UNL     1      43.974 -19.251   2.818  1.00  0.00     0.149 C 
HETATM   41  C   UNL     1      44.158 -19.963   5.178  1.00  0.00     0.149 C 
ENDBRANCH  36  39
ENDBRANCH  31  33
ENDBRANCH   1  27
TORSDOF 10
ENDMDL
