MODEL 1
REMARK VINA RESULT:      -8.3      0.000      0.000
REMARK  6 active torsions:
REMARK  status: ('A' for Active; 'I' for Inactive)
REMARK    1  A    between atoms: C_2  and  C_3 
REMARK    2  A    between atoms: C_3  and  C_4 
REMARK    3  A    between atoms: C_7  and  C_8 
REMARK    4  A    between atoms: C_14  and  C_15 
REMARK    5  A    between atoms: C_18  and  N_19 
REMARK       I    between atoms: N_19  and  C_20 
REMARK    6  A    between atoms: C_28  and  N_29 
ROOT
HETATM    1  C   UNL     1      40.913 -13.469   1.300  1.00  0.00     0.099 A 
HETATM    2  N   UNL     1      40.835 -13.071   0.013  1.00  0.00    -0.172 NA
HETATM    3  N   UNL     1      40.172 -11.903   0.049  1.00  0.00    -0.256 N 
HETATM    4  H   UNL     1      39.983 -11.419  -0.821  1.00  0.00     0.191 HD
HETATM    5  C   UNL     1      39.825 -11.537   1.305  1.00  0.00     0.175 A 
HETATM    6  C   UNL     1      40.305 -12.505   2.154  1.00  0.00     0.040 A 
HETATM    7  C   UNL     1      40.103 -12.350   3.627  1.00  0.00     0.105 C 
HETATM    8  C   UNL     1      39.143 -11.192   3.904  1.00  0.00     0.067 C 
HETATM    9  C   UNL     1      38.508 -11.119   5.282  1.00  0.00     0.020 C 
HETATM   10  N   UNL     1      37.979 -11.059   6.425  1.00  0.00    -0.096 N 
HETATM   11  C   UNL     1      38.721 -10.325   2.943  1.00  0.00     0.139 C 
HETATM   12  O   UNL     1      39.141 -10.441   1.608  1.00  0.00    -0.279 OA
ENDROOT
BRANCH   7  13
HETATM   13  C   UNL     1      41.494 -12.124   4.205  1.00  0.00    -0.044 A 
HETATM   14  C   UNL     1      42.238 -13.163   4.791  1.00  0.00     0.010 A 
HETATM   15  C   UNL     1      43.492 -12.923   5.364  1.00  0.00     0.030 A 
HETATM   16  C   UNL     1      44.038 -11.642   5.362  1.00  0.00     0.034 A 
HETATM   17  C   UNL     1      43.316 -10.606   4.759  1.00  0.00     0.030 A 
HETATM   18  C   UNL     1      42.062 -10.843   4.183  1.00  0.00     0.010 A 
BRANCH  16  19
HETATM   19  N   UNL     1      45.276 -11.312   5.950  1.00  0.00    -0.328 N 
HETATM   20  C   UNL     1      45.542 -11.114   7.294  1.00  0.00     0.218 C 
HETATM   21  C   UNL     1      46.978 -10.719   7.537  1.00  0.00     0.117 C 
HETATM   22  O   UNL     1      44.765 -11.251   8.231  1.00  0.00    -0.274 OA
HETATM   23  H   UNL     1      46.052 -11.198   5.311  1.00  0.00     0.169 HD
ENDBRANCH  16  19
ENDBRANCH   7  13
BRANCH  11  24
HETATM   24  N   UNL     1      37.845  -9.281   3.136  1.00  0.00    -0.282 NA
HETATM   25  H   UNL     1      38.268  -8.358   3.200  1.00  0.00     0.126 HD
HETATM   26  H   UNL     1      37.066  -9.311   2.483  1.00  0.00     0.126 HD
ENDBRANCH  11  24
BRANCH   1  27
HETATM   27  C   UNL     1      41.573 -14.733   1.633  1.00  0.00    -0.005 A 
HETATM   28  C   UNL     1      40.813 -15.803   2.124  1.00  0.00     0.014 A 
HETATM   29  C   UNL     1      41.419 -17.011   2.479  1.00  0.00     0.008 A 
HETATM   30  C   UNL     1      42.802 -17.174   2.347  1.00  0.00    -0.058 A 
HETATM   31  C   UNL     1      43.565 -16.108   1.857  1.00  0.00     0.008 A 
HETATM   32  C   UNL     1      42.958 -14.894   1.514  1.00  0.00     0.014 A 
BRANCH  30  33
HETATM   33  C   UNL     1      43.459 -18.477   2.737  1.00  0.00     0.042 C 
BRANCH  33  34
HETATM   34  C   UNL     1      44.196 -18.422   4.090  1.00  0.00    -0.019 C 
HETATM   35  C   UNL     1      44.287 -19.798   4.755  1.00  0.00     0.010 C 
HETATM   36  C   UNL     1      43.478 -17.448   5.029  1.00  0.00     0.010 C 
ENDBRANCH  33  34
ENDBRANCH  30  33
ENDBRANCH   1  27
TORSDOF 6
ENDMDL
MODEL 2
REMARK VINA RESULT:      -7.9      2.864      6.018
REMARK  6 active torsions:
REMARK  status: ('A' for Active; 'I' for Inactive)
REMARK    1  A    between atoms: C_2  and  C_3 
REMARK    2  A    between atoms: C_3  and  C_4 
REMARK    3  A    between atoms: C_7  and  C_8 
REMARK    4  A    between atoms: C_14  and  C_15 
REMARK    5  A    between atoms: C_18  and  N_19 
REMARK       I    between atoms: N_19  and  C_20 
REMARK    6  A    between atoms: C_28  and  N_29 
ROOT
HETATM    1  C   UNL     1      40.204 -12.811   4.220  1.00  0.00     0.099 A 
HETATM    2  N   UNL     1      39.490 -12.994   5.350  1.00  0.00    -0.172 NA
HETATM    3  N   UNL     1      38.823 -11.842   5.532  1.00  0.00    -0.256 N 
HETATM    4  H   UNL     1      38.222 -11.746   6.342  1.00  0.00     0.191 HD
HETATM    5  C   UNL     1      39.080 -10.931   4.565  1.00  0.00     0.175 A 
HETATM    6  C   UNL     1      39.948 -11.518   3.677  1.00  0.00     0.040 A 
HETATM    7  C   UNL     1      40.387 -10.755   2.470  1.00  0.00     0.105 C 
HETATM    8  C   UNL     1      39.939  -9.297   2.582  1.00  0.00     0.067 C 
HETATM    9  C   UNL     1      40.609  -8.282   1.670  1.00  0.00     0.020 C 
HETATM   10  N   UNL     1      41.166  -7.440   0.915  1.00  0.00    -0.096 N 
HETATM   11  C   UNL     1      39.093  -8.847   3.549  1.00  0.00     0.139 C 
HETATM   12  O   UNL     1      38.569  -9.706   4.530  1.00  0.00    -0.279 OA
ENDROOT
BRANCH   7  13
HETATM   13  C   UNL     1      39.765 -11.480   1.284  1.00  0.00    -0.044 A 
HETATM   14  C   UNL     1      38.468 -11.189   0.827  1.00  0.00     0.010 A 
HETATM   15  C   UNL     1      37.894 -11.904  -0.231  1.00  0.00     0.030 A 
HETATM   16  C   UNL     1      38.602 -12.924  -0.863  1.00  0.00     0.034 A 
HETATM   17  C   UNL     1      39.903 -13.204  -0.432  1.00  0.00     0.030 A 
HETATM   18  C   UNL     1      40.481 -12.490   0.625  1.00  0.00     0.010 A 
BRANCH  16  19
HETATM   19  N   UNL     1      38.081 -13.714  -1.908  1.00  0.00    -0.328 N 
HETATM   20  C   UNL     1      38.672 -13.990  -3.128  1.00  0.00     0.218 C 
HETATM   21  C   UNL     1      37.784 -14.830  -4.013  1.00  0.00     0.117 C 
HETATM   22  O   UNL     1      39.787 -13.650  -3.505  1.00  0.00    -0.274 OA
HETATM   23  H   UNL     1      37.166 -14.114  -1.745  1.00  0.00     0.169 HD
ENDBRANCH  16  19
ENDBRANCH   7  13
BRANCH  11  24
HETATM   24  N   UNL     1      38.676  -7.545   3.706  1.00  0.00    -0.282 NA
HETATM   25  H   UNL     1      37.874  -7.411   4.318  1.00  0.00     0.126 HD
HETATM   26  H   UNL     1      39.448  -6.921   3.927  1.00  0.00     0.126 HD
ENDBRANCH  11  24
BRANCH   1  27
HETATM   27  C   UNL     1      41.072 -13.880   3.724  1.00  0.00    -0.005 A 
HETATM   28  C   UNL     1      40.509 -15.103   3.332  1.00  0.00     0.014 A 
HETATM   29  C   UNL     1      41.314 -16.152   2.884  1.00  0.00     0.008 A 
HETATM   30  C   UNL     1      42.704 -16.000   2.816  1.00  0.00    -0.058 A 
HETATM   31  C   UNL     1      43.270 -14.781   3.206  1.00  0.00     0.008 A 
HETATM   32  C   UNL     1      42.462 -13.734   3.668  1.00  0.00     0.014 A 
BRANCH  30  33
HETATM   33  C   UNL     1      43.575 -17.137   2.338  1.00  0.00     0.042 C 
BRANCH  33  34
HETATM   34  C   UNL     1      43.376 -18.447   3.126  1.00  0.00    -0.019 C 
HETATM   35  C   UNL     1      44.451 -18.645   4.198  1.00  0.00     0.010 C 
HETATM   36  C   UNL     1      43.392 -19.636   2.161  1.00  0.00     0.010 C 
ENDBRANCH  33  34
ENDBRANCH  30  33
ENDBRANCH   1  27
TORSDOF 6
ENDMDL
MODEL 3
REMARK VINA RESULT:      -7.8     16.945     20.170
REMARK  6 active torsions:
REMARK  status: ('A' for Active; 'I' for Inactive)
REMARK    1  A    between atoms: C_2  and  C_3 
REMARK    2  A    between atoms: C_3  and  C_4 
REMARK    3  A    between atoms: C_7  and  C_8 
REMARK    4  A    between atoms: C_14  and  C_15 
REMARK    5  A    between atoms: C_18  and  N_19 
REMARK       I    between atoms: N_19  and  C_20 
REMARK    6  A    between atoms: C_28  and  N_29 
ROOT
HETATM    1  C   UNL     1      47.343 -28.868   1.034  1.00  0.00     0.099 A 
HETATM    2  N   UNL     1      47.455 -27.701   1.702  1.00  0.00    -0.172 NA
HETATM    3  N   UNL     1      48.266 -27.968   2.738  1.00  0.00    -0.256 N 
HETATM    4  H   UNL     1      48.485 -27.226   3.394  1.00  0.00     0.191 HD
HETATM    5  C   UNL     1      48.679 -29.256   2.761  1.00  0.00     0.175 A 
HETATM    6  C   UNL     1      48.130 -29.875   1.664  1.00  0.00     0.040 A 
HETATM    7  C   UNL     1      48.444 -31.313   1.403  1.00  0.00     0.105 C 
HETATM    8  C   UNL     1      49.174 -31.915   2.604  1.00  0.00     0.067 C 
HETATM    9  C   UNL     1      49.231 -33.430   2.705  1.00  0.00     0.020 C 
HETATM   10  N   UNL     1      49.277 -34.687   2.791  1.00  0.00    -0.096 N 
HETATM   11  C   UNL     1      49.635 -31.172   3.648  1.00  0.00     0.139 C 
HETATM   12  O   UNL     1      49.463 -29.779   3.696  1.00  0.00    -0.279 OA
ENDROOT
BRANCH   7  13
HETATM   13  C   UNL     1      49.282 -31.319   0.131  1.00  0.00    -0.044 A 
HETATM   14  C   UNL     1      48.731 -31.629  -1.125  1.00  0.00     0.010 A 
HETATM   15  C   UNL     1      49.529 -31.682  -2.274  1.00  0.00     0.030 A 
HETATM   16  C   UNL     1      50.895 -31.421  -2.200  1.00  0.00     0.034 A 
HETATM   17  C   UNL     1      51.448 -31.088  -0.958  1.00  0.00     0.030 A 
HETATM   18  C   UNL     1      50.652 -31.032   0.192  1.00  0.00     0.010 A 
BRANCH  16  19
HETATM   19  N   UNL     1      51.772 -31.491  -3.302  1.00  0.00    -0.328 N 
HETATM   20  C   UNL     1      52.575 -32.555  -3.672  1.00  0.00     0.218 C 
HETATM   21  C   UNL     1      53.420 -32.237  -4.881  1.00  0.00     0.117 C 
HETATM   22  O   UNL     1      52.628 -33.661  -3.146  1.00  0.00    -0.274 OA
HETATM   23  H   UNL     1      51.823 -30.661  -3.879  1.00  0.00     0.169 HD
ENDBRANCH  16  19
ENDBRANCH   7  13
BRANCH  11  24
HETATM   24  N   UNL     1      50.279 -31.667   4.759  1.00  0.00    -0.282 NA
HETATM   25  H   UNL     1      50.328 -32.681   4.824  1.00  0.00     0.126 HD
HETATM   26  H   UNL     1      51.180 -31.219   4.908  1.00  0.00     0.126 HD
ENDBRANCH  11  24
BRANCH   1  27
HETATM   27  C   UNL     1      46.506 -28.945  -0.164  1.00  0.00    -0.005 A 
HETATM   28  C   UNL     1      45.442 -29.857  -0.209  1.00  0.00     0.014 A 
HETATM   29  C   UNL     1      44.645 -29.974  -1.350  1.00  0.00     0.008 A 
HETATM   30  C   UNL     1      44.895 -29.178  -2.474  1.00  0.00    -0.058 A 
HETATM   31  C   UNL     1      45.957 -28.266  -2.433  1.00  0.00     0.008 A 
HETATM   32  C   UNL     1      46.763 -28.159  -1.293  1.00  0.00     0.014 A 
BRANCH  30  33
HETATM   33  C   UNL     1      44.039 -29.310  -3.711  1.00  0.00     0.042 C 
BRANCH  33  34
HETATM   34  C   UNL     1      44.768 -29.951  -4.907  1.00  0.00    -0.019 C 
HETATM   35  C   UNL     1      43.797 -30.602  -5.895  1.00  0.00     0.010 C 
HETATM   36  C   UNL     1      45.763 -31.001  -4.402  1.00  0.00     0.010 C 
ENDBRANCH  33  34
ENDBRANCH  30  33
ENDBRANCH   1  27
TORSDOF 6
ENDMDL
MODEL 4
REMARK VINA RESULT:      -7.7      2.163      6.068
REMARK  6 active torsions:
REMARK  status: ('A' for Active; 'I' for Inactive)
REMARK    1  A    between atoms: C_2  and  C_3 
REMARK    2  A    between atoms: C_3  and  C_4 
REMARK    3  A    between atoms: C_7  and  C_8 
REMARK    4  A    between atoms: C_14  and  C_15 
REMARK    5  A    between atoms: C_18  and  N_19 
REMARK       I    between atoms: N_19  and  C_20 
REMARK    6  A    between atoms: C_28  and  N_29 
ROOT
HETATM    1  C   UNL     1      40.210 -11.656   3.573  1.00  0.00     0.099 A 
HETATM    2  N   UNL     1      39.034 -11.355   4.162  1.00  0.00    -0.172 NA
HETATM    3  N   UNL     1      38.127 -11.396   3.171  1.00  0.00    -0.256 N 
HETATM    4  H   UNL     1      37.159 -11.186   3.383  1.00  0.00     0.191 HD
HETATM    5  C   UNL     1      38.674 -11.712   1.975  1.00  0.00     0.175 A 
HETATM    6  C   UNL     1      40.016 -11.916   2.185  1.00  0.00     0.040 A 
HETATM    7  C   UNL     1      40.884 -12.320   1.038  1.00  0.00     0.105 C 
HETATM    8  C   UNL     1      40.106 -12.198  -0.274  1.00  0.00     0.067 C 
HETATM    9  C   UNL     1      40.905 -12.180  -1.566  1.00  0.00     0.020 C 
HETATM   10  N   UNL     1      41.567 -12.164  -2.639  1.00  0.00    -0.096 N 
HETATM   11  C   UNL     1      38.768 -11.954  -0.329  1.00  0.00     0.139 C 
HETATM   12  O   UNL     1      37.998 -11.790   0.835  1.00  0.00    -0.279 OA
ENDROOT
BRANCH   7  13
HETATM   13  C   UNL     1      41.318 -13.748   1.342  1.00  0.00    -0.044 A 
HETATM   14  C   UNL     1      40.391 -14.787   1.535  1.00  0.00     0.010 A 
HETATM   15  C   UNL     1      40.808 -16.081   1.866  1.00  0.00     0.030 A 
HETATM   16  C   UNL     1      42.163 -16.373   2.008  1.00  0.00     0.034 A 
HETATM   17  C   UNL     1      43.096 -15.352   1.794  1.00  0.00     0.030 A 
HETATM   18  C   UNL     1      42.681 -14.056   1.461  1.00  0.00     0.010 A 
BRANCH  16  19
HETATM   19  N   UNL     1      42.661 -17.639   2.376  1.00  0.00    -0.328 N 
HETATM   20  C   UNL     1      43.456 -17.945   3.467  1.00  0.00     0.218 C 
HETATM   21  C   UNL     1      43.838 -19.405   3.500  1.00  0.00     0.117 C 
HETATM   22  O   UNL     1      43.825 -17.183   4.352  1.00  0.00    -0.274 OA
HETATM   23  H   UNL     1      42.415 -18.406   1.763  1.00  0.00     0.169 HD
ENDBRANCH  16  19
ENDBRANCH   7  13
BRANCH  11  24
HETATM   24  N   UNL     1      38.026 -11.815  -1.480  1.00  0.00    -0.282 NA
HETATM   25  H   UNL     1      37.963 -12.645  -2.065  1.00  0.00     0.126 HD
HETATM   26  H   UNL     1      37.120 -11.390  -1.301  1.00  0.00     0.126 HD
ENDBRANCH  11  24
BRANCH   1  27
HETATM   27  C   UNL     1      41.437 -11.690   4.371  1.00  0.00    -0.005 A 
HETATM   28  C   UNL     1      41.910 -12.914   4.862  1.00  0.00     0.014 A 
HETATM   29  C   UNL     1      43.061 -12.974   5.651  1.00  0.00     0.008 A 
HETATM   30  C   UNL     1      43.766 -11.807   5.965  1.00  0.00    -0.058 A 
HETATM   31  C   UNL     1      43.297 -10.582   5.476  1.00  0.00     0.008 A 
HETATM   32  C   UNL     1      42.136 -10.522   4.696  1.00  0.00     0.014 A 
BRANCH  30  33
HETATM   33  C   UNL     1      45.007 -11.870   6.824  1.00  0.00     0.042 C 
BRANCH  33  34
HETATM   34  C   UNL     1      45.322 -10.553   7.559  1.00  0.00    -0.019 C 
HETATM   35  C   UNL     1      46.829 -10.323   7.712  1.00  0.00     0.010 C 
HETATM   36  C   UNL     1      44.665 -10.562   8.942  1.00  0.00     0.010 C 
ENDBRANCH  33  34
ENDBRANCH  30  33
ENDBRANCH   1  27
TORSDOF 6
ENDMDL
MODEL 5
REMARK VINA RESULT:      -7.6     16.608     18.541
REMARK  6 active torsions:
REMARK  status: ('A' for Active; 'I' for Inactive)
REMARK    1  A    between atoms: C_2  and  C_3 
REMARK    2  A    between atoms: C_3  and  C_4 
REMARK    3  A    between atoms: C_7  and  C_8 
REMARK    4  A    between atoms: C_14  and  C_15 
REMARK    5  A    between atoms: C_18  and  N_19 
REMARK       I    between atoms: N_19  and  C_20 
REMARK    6  A    between atoms: C_28  and  N_29 
ROOT
HETATM    1  C   UNL     1      46.920 -28.599  -0.927  1.00  0.00     0.099 A 
HETATM    2  N   UNL     1      47.225 -27.389  -1.441  1.00  0.00    -0.172 NA
HETATM    3  N   UNL     1      46.576 -27.335  -2.616  1.00  0.00    -0.256 N 
HETATM    4  H   UNL     1      46.672 -26.507  -3.192  1.00  0.00     0.191 HD
HETATM    5  C   UNL     1      45.868 -28.459  -2.874  1.00  0.00     0.175 A 
HETATM    6  C   UNL     1      46.036 -29.298  -1.799  1.00  0.00     0.040 A 
HETATM    7  C   UNL     1      45.334 -30.617  -1.784  1.00  0.00     0.105 C 
HETATM    8  C   UNL     1      44.710 -30.892  -3.153  1.00  0.00     0.067 C 
HETATM    9  C   UNL     1      44.299 -32.322  -3.464  1.00  0.00     0.020 C 
HETATM   10  N   UNL     1      43.959 -33.508  -3.723  1.00  0.00    -0.096 N 
HETATM   11  C   UNL     1      44.646 -29.964  -4.146  1.00  0.00     0.139 C 
HETATM   12  O   UNL     1      45.164 -28.668  -3.980  1.00  0.00    -0.279 OA
ENDROOT
BRANCH   7  13
HETATM   13  C   UNL     1      44.303 -30.514  -0.668  1.00  0.00    -0.044 A 
HETATM   14  C   UNL     1      43.731 -29.286  -0.291  1.00  0.00     0.010 A 
HETATM   15  C   UNL     1      42.824 -29.204   0.773  1.00  0.00     0.030 A 
HETATM   16  C   UNL     1      42.461 -30.346   1.483  1.00  0.00     0.034 A 
HETATM   17  C   UNL     1      43.006 -31.577   1.099  1.00  0.00     0.030 A 
HETATM   18  C   UNL     1      43.912 -31.662   0.035  1.00  0.00     0.010 A 
BRANCH  16  19
HETATM   19  N   UNL     1      41.586 -30.342   2.588  1.00  0.00    -0.328 N 
HETATM   20  C   UNL     1      41.802 -30.903   3.834  1.00  0.00     0.218 C 
HETATM   21  C   UNL     1      40.609 -30.743   4.745  1.00  0.00     0.117 C 
HETATM   22  O   UNL     1      42.821 -31.456   4.231  1.00  0.00    -0.274 OA
HETATM   23  H   UNL     1      40.696 -29.882   2.444  1.00  0.00     0.169 HD
ENDBRANCH  16  19
ENDBRANCH   7  13
BRANCH  11  24
HETATM   24  N   UNL     1      44.114 -30.166  -5.399  1.00  0.00    -0.282 NA
HETATM   25  H   UNL     1      44.384 -29.486  -6.106  1.00  0.00     0.126 HD
HETATM   26  H   UNL     1      44.232 -31.126  -5.712  1.00  0.00     0.126 HD
ENDBRANCH  11  24
BRANCH   1  27
HETATM   27  C   UNL     1      47.477 -29.004   0.365  1.00  0.00    -0.005 A 
HETATM   28  C   UNL     1      48.532 -29.925   0.406  1.00  0.00     0.014 A 
HETATM   29  C   UNL     1      49.064 -30.353   1.624  1.00  0.00     0.008 A 
HETATM   30  C   UNL     1      48.553 -29.864   2.831  1.00  0.00    -0.058 A 
HETATM   31  C   UNL     1      47.499 -28.943   2.795  1.00  0.00     0.008 A 
HETATM   32  C   UNL     1      46.958 -28.525   1.573  1.00  0.00     0.014 A 
BRANCH  30  33
HETATM   33  C   UNL     1      49.123 -30.332   4.149  1.00  0.00     0.042 C 
BRANCH  33  34
HETATM   34  C   UNL     1      50.223 -31.401   4.007  1.00  0.00    -0.019 C 
HETATM   35  C   UNL     1      49.701 -32.811   4.298  1.00  0.00     0.010 C 
HETATM   36  C   UNL     1      51.381 -31.080   4.957  1.00  0.00     0.010 C 
ENDBRANCH  33  34
ENDBRANCH  30  33
ENDBRANCH   1  27
TORSDOF 6
ENDMDL
MODEL 6
REMARK VINA RESULT:      -7.5      4.871      9.281
REMARK  6 active torsions:
REMARK  status: ('A' for Active; 'I' for Inactive)
REMARK    1  A    between atoms: C_2  and  C_3 
REMARK    2  A    between atoms: C_3  and  C_4 
REMARK    3  A    between atoms: C_7  and  C_8 
REMARK    4  A    between atoms: C_14  and  C_15 
REMARK    5  A    between atoms: C_18  and  N_19 
REMARK       I    between atoms: N_19  and  C_20 
REMARK    6  A    between atoms: C_28  and  N_29 
ROOT
HETATM    1  C   UNL     1      44.597 -10.078   8.650  1.00  0.00     0.099 A 
HETATM    2  N   UNL     1      45.901  -9.850   8.387  1.00  0.00    -0.172 NA
HETATM    3  N   UNL     1      46.073 -10.237   7.112  1.00  0.00    -0.256 N 
HETATM    4  H   UNL     1      46.995 -10.166   6.698  1.00  0.00     0.191 HD
HETATM    5  C   UNL     1      44.934 -10.702   6.549  1.00  0.00     0.175 A 
HETATM    6  C   UNL     1      43.943 -10.596   7.494  1.00  0.00     0.040 A 
HETATM    7  C   UNL     1      42.549 -11.004   7.143  1.00  0.00     0.105 C 
HETATM    8  C   UNL     1      42.540 -11.719   5.790  1.00  0.00     0.067 C 
HETATM    9  C   UNL     1      41.314 -12.546   5.440  1.00  0.00     0.020 C 
HETATM   10  N   UNL     1      40.298 -13.233   5.150  1.00  0.00    -0.096 N 
HETATM   11  C   UNL     1      43.622 -11.773   4.966  1.00  0.00     0.139 C 
HETATM   12  O   UNL     1      44.843 -11.170   5.310  1.00  0.00    -0.279 OA
ENDROOT
BRANCH   7  13
HETATM   13  C   UNL     1      41.738  -9.715   7.141  1.00  0.00    -0.044 A 
HETATM   14  C   UNL     1      41.792  -8.799   6.076  1.00  0.00     0.010 A 
HETATM   15  C   UNL     1      41.080  -7.595   6.117  1.00  0.00     0.030 A 
HETATM   16  C   UNL     1      40.292  -7.276   7.221  1.00  0.00     0.034 A 
HETATM   17  C   UNL     1      40.213  -8.192   8.276  1.00  0.00     0.030 A 
HETATM   18  C   UNL     1      40.922  -9.398   8.236  1.00  0.00     0.010 A 
BRANCH  16  19
HETATM   19  N   UNL     1      39.577  -6.069   7.355  1.00  0.00    -0.328 N 
HETATM   20  C   UNL     1      38.217  -5.873   7.186  1.00  0.00     0.218 C 
HETATM   21  C   UNL     1      37.825  -4.427   7.361  1.00  0.00     0.117 C 
HETATM   22  O   UNL     1      37.370  -6.726   6.947  1.00  0.00    -0.274 OA
HETATM   23  H   UNL     1      40.127  -5.253   7.594  1.00  0.00     0.169 HD
ENDBRANCH  16  19
ENDBRANCH   7  13
BRANCH  11  24
HETATM   24  N   UNL     1      43.672 -12.419   3.751  1.00  0.00    -0.282 NA
HETATM   25  H   UNL     1      42.817 -12.386   3.201  1.00  0.00     0.126 HD
HETATM   26  H   UNL     1      44.495 -12.159   3.215  1.00  0.00     0.126 HD
ENDBRANCH  11  24
BRANCH   1  27
HETATM   27  C   UNL     1      44.058  -9.777   9.977  1.00  0.00    -0.005 A 
HETATM   28  C   UNL     1      43.766 -10.825  10.860  1.00  0.00     0.014 A 
HETATM   29  C   UNL     1      43.223 -10.570  12.122  1.00  0.00     0.008 A 
HETATM   30  C   UNL     1      42.961  -9.257  12.528  1.00  0.00    -0.058 A 
HETATM   31  C   UNL     1      43.250  -8.207  11.648  1.00  0.00     0.008 A 
HETATM   32  C   UNL     1      43.783  -8.465  10.379  1.00  0.00     0.014 A 
BRANCH  30  33
HETATM   33  C   UNL     1      42.366  -8.981  13.888  1.00  0.00     0.042 C 
BRANCH  33  34
HETATM   34  C   UNL     1      41.983  -7.506  14.112  1.00  0.00    -0.019 C 
HETATM   35  C   UNL     1      42.502  -6.971  15.450  1.00  0.00     0.010 C 
HETATM   36  C   UNL     1      40.460  -7.354  14.059  1.00  0.00     0.010 C 
ENDBRANCH  33  34
ENDBRANCH  30  33
ENDBRANCH   1  27
TORSDOF 6
ENDMDL
MODEL 7
REMARK VINA RESULT:      -7.5      2.788      6.146
REMARK  6 active torsions:
REMARK  status: ('A' for Active; 'I' for Inactive)
REMARK    1  A    between atoms: C_2  and  C_3 
REMARK    2  A    between atoms: C_3  and  C_4 
REMARK    3  A    between atoms: C_7  and  C_8 
REMARK    4  A    between atoms: C_14  and  C_15 
REMARK    5  A    between atoms: C_18  and  N_19 
REMARK       I    between atoms: N_19  and  C_20 
REMARK    6  A    between atoms: C_28  and  N_29 
ROOT
HETATM    1  C   UNL     1      39.880 -11.845   5.674  1.00  0.00     0.099 A 
HETATM    2  N   UNL     1      39.127 -11.964   6.788  1.00  0.00    -0.172 NA
HETATM    3  N   UNL     1      38.451 -10.807   6.877  1.00  0.00    -0.256 N 
HETATM    4  H   UNL     1      37.821 -10.665   7.659  1.00  0.00     0.191 HD
HETATM    5  C   UNL     1      38.738  -9.954   5.866  1.00  0.00     0.175 A 
HETATM    6  C   UNL     1      39.638 -10.589   5.045  1.00  0.00     0.040 A 
HETATM    7  C   UNL     1      40.116  -9.898   3.810  1.00  0.00     0.105 C 
HETATM    8  C   UNL     1      39.660  -8.438   3.819  1.00  0.00     0.067 C 
HETATM    9  C   UNL     1      40.358  -7.477   2.870  1.00  0.00     0.020 C 
HETATM   10  N   UNL     1      40.937  -6.680   2.085  1.00  0.00    -0.096 N 
HETATM   11  C   UNL     1      38.779  -7.935   4.727  1.00  0.00     0.139 C 
HETATM   12  O   UNL     1      38.225  -8.736   5.739  1.00  0.00    -0.279 OA
ENDROOT
BRANCH   7  13
HETATM   13  C   UNL     1      39.538 -10.697   2.649  1.00  0.00    -0.044 A 
HETATM   14  C   UNL     1      40.325 -11.564   1.872  1.00  0.00     0.010 A 
HETATM   15  C   UNL     1      39.787 -12.249   0.777  1.00  0.00     0.030 A 
HETATM   16  C   UNL     1      38.447 -12.090   0.432  1.00  0.00     0.034 A 
HETATM   17  C   UNL     1      37.648 -11.248   1.215  1.00  0.00     0.030 A 
HETATM   18  C   UNL     1      38.184 -10.563   2.312  1.00  0.00     0.010 A 
BRANCH  16  19
HETATM   19  N   UNL     1      37.839 -12.713  -0.676  1.00  0.00    -0.328 N 
HETATM   20  C   UNL     1      37.903 -12.320  -2.002  1.00  0.00     0.218 C 
HETATM   21  C   UNL     1      37.075 -13.208  -2.899  1.00  0.00     0.117 C 
HETATM   22  O   UNL     1      38.552 -11.392  -2.469  1.00  0.00    -0.274 OA
HETATM   23  H   UNL     1      37.285 -13.536  -0.472  1.00  0.00     0.169 HD
ENDBRANCH  16  19
ENDBRANCH   7  13
BRANCH  11  24
HETATM   24  N   UNL     1      38.353  -6.628   4.790  1.00  0.00    -0.282 NA
HETATM   25  H   UNL     1      38.526  -6.152   5.672  1.00  0.00     0.126 HD
HETATM   26  H   UNL     1      38.658  -6.089   3.985  1.00  0.00     0.126 HD
ENDBRANCH  11  24
BRANCH   1  27
HETATM   27  C   UNL     1      40.767 -12.939   5.274  1.00  0.00    -0.005 A 
HETATM   28  C   UNL     1      42.145 -12.709   5.166  1.00  0.00     0.014 A 
HETATM   29  C   UNL     1      43.013 -13.724   4.758  1.00  0.00     0.008 A 
HETATM   30  C   UNL     1      42.518 -14.997   4.450  1.00  0.00    -0.058 A 
HETATM   31  C   UNL     1      41.143 -15.231   4.557  1.00  0.00     0.008 A 
HETATM   32  C   UNL     1      40.272 -14.208   4.953  1.00  0.00     0.014 A 
BRANCH  30  33
HETATM   33  C   UNL     1      43.455 -16.093   4.001  1.00  0.00     0.042 C 
BRANCH  33  34
HETATM   34  C   UNL     1      42.963 -16.863   2.761  1.00  0.00    -0.019 C 
HETATM   35  C   UNL     1      43.588 -18.257   2.659  1.00  0.00     0.010 C 
HETATM   36  C   UNL     1      43.289 -16.064   1.495  1.00  0.00     0.010 C 
ENDBRANCH  33  34
ENDBRANCH  30  33
ENDBRANCH   1  27
TORSDOF 6
ENDMDL
MODEL 8
REMARK VINA RESULT:      -7.4     11.366     15.156
REMARK  6 active torsions:
REMARK  status: ('A' for Active; 'I' for Inactive)
REMARK    1  A    between atoms: C_2  and  C_3 
REMARK    2  A    between atoms: C_3  and  C_4 
REMARK    3  A    between atoms: C_7  and  C_8 
REMARK    4  A    between atoms: C_14  and  C_15 
REMARK    5  A    between atoms: C_18  and  N_19 
REMARK       I    between atoms: N_19  and  C_20 
REMARK    6  A    between atoms: C_28  and  N_29 
ROOT
HETATM    1  C   UNL     1      41.268  -7.329  16.992  1.00  0.00     0.099 A 
HETATM    2  N   UNL     1      40.875  -8.323  17.816  1.00  0.00    -0.172 NA
HETATM    3  N   UNL     1      40.583  -7.718  18.979  1.00  0.00    -0.256 N 
HETATM    4  H   UNL     1      40.273  -8.282  19.761  1.00  0.00     0.191 HD
HETATM    5  C   UNL     1      40.771  -6.379  18.933  1.00  0.00     0.175 A 
HETATM    6  C   UNL     1      41.189  -6.073  17.661  1.00  0.00     0.040 A 
HETATM    7  C   UNL     1      41.444  -4.646  17.298  1.00  0.00     0.105 C 
HETATM    8  C   UNL     1      41.409  -3.773  18.553  1.00  0.00     0.067 C 
HETATM    9  C   UNL     1      42.021  -2.385  18.463  1.00  0.00     0.020 C 
HETATM   10  N   UNL     1      42.530  -1.235  18.388  1.00  0.00    -0.096 N 
HETATM   11  C   UNL     1      41.000  -4.229  19.770  1.00  0.00     0.139 C 
HETATM   12  O   UNL     1      40.581  -5.556  19.957  1.00  0.00    -0.279 OA
ENDROOT
BRANCH   7  13
HETATM   13  C   UNL     1      40.360  -4.285  16.290  1.00  0.00    -0.044 A 
HETATM   14  C   UNL     1      38.997  -4.263  16.634  1.00  0.00     0.010 A 
HETATM   15  C   UNL     1      38.012  -3.980  15.681  1.00  0.00     0.030 A 
HETATM   16  C   UNL     1      38.362  -3.708  14.361  1.00  0.00     0.034 A 
HETATM   17  C   UNL     1      39.718  -3.703  14.013  1.00  0.00     0.030 A 
HETATM   18  C   UNL     1      40.706  -3.984  14.965  1.00  0.00     0.010 A 
BRANCH  16  19
HETATM   19  N   UNL     1      37.430  -3.452  13.335  1.00  0.00    -0.328 N 
HETATM   20  C   UNL     1      36.871  -4.367  12.459  1.00  0.00     0.218 C 
HETATM   21  C   UNL     1      35.952  -3.708  11.459  1.00  0.00     0.117 C 
HETATM   22  O   UNL     1      37.034  -5.581  12.453  1.00  0.00    -0.274 OA
HETATM   23  H   UNL     1      37.149  -2.486  13.224  1.00  0.00     0.169 HD
ENDBRANCH  16  19
ENDBRANCH   7  13
BRANCH  11  24
HETATM   24  N   UNL     1      40.969  -3.492  20.931  1.00  0.00    -0.282 NA
HETATM   25  H   UNL     1      40.060  -3.422  21.383  1.00  0.00     0.126 HD
HETATM   26  H   UNL     1      41.708  -3.764  21.575  1.00  0.00     0.126 HD
ENDBRANCH  11  24
BRANCH   1  27
HETATM   27  C   UNL     1      41.679  -7.637  15.622  1.00  0.00    -0.005 A 
HETATM   28  C   UNL     1      42.824  -7.031  15.088  1.00  0.00     0.014 A 
HETATM   29  C   UNL     1      43.224  -7.282  13.774  1.00  0.00     0.008 A 
HETATM   30  C   UNL     1      42.485  -8.151  12.963  1.00  0.00    -0.058 A 
HETATM   31  C   UNL     1      41.341  -8.759  13.491  1.00  0.00     0.008 A 
HETATM   32  C   UNL     1      40.934  -8.496  14.805  1.00  0.00     0.014 A 
BRANCH  30  33
HETATM   33  C   UNL     1      42.912  -8.418  11.539  1.00  0.00     0.042 C 
BRANCH  33  34
HETATM   34  C   UNL     1      44.118  -9.369  11.419  1.00  0.00    -0.019 C 
HETATM   35  C   UNL     1      44.811  -9.256  10.058  1.00  0.00     0.010 C 
HETATM   36  C   UNL     1      43.659 -10.814  11.640  1.00  0.00     0.010 C 
ENDBRANCH  33  34
ENDBRANCH  30  33
ENDBRANCH   1  27
TORSDOF 6
ENDMDL
MODEL 9
REMARK VINA RESULT:      -7.3      3.077      6.471
REMARK  6 active torsions:
REMARK  status: ('A' for Active; 'I' for Inactive)
REMARK    1  A    between atoms: C_2  and  C_3 
REMARK    2  A    between atoms: C_3  and  C_4 
REMARK    3  A    between atoms: C_7  and  C_8 
REMARK    4  A    between atoms: C_14  and  C_15 
REMARK    5  A    between atoms: C_18  and  N_19 
REMARK       I    between atoms: N_19  and  C_20 
REMARK    6  A    between atoms: C_28  and  N_29 
ROOT
HETATM    1  C   UNL     1      40.444 -14.949   3.505  1.00  0.00     0.099 A 
HETATM    2  N   UNL     1      39.837 -16.128   3.758  1.00  0.00    -0.172 NA
HETATM    3  N   UNL     1      40.216 -16.455   5.004  1.00  0.00    -0.256 N 
HETATM    4  H   UNL     1      39.884 -17.325   5.405  1.00  0.00     0.191 HD
HETATM    5  C   UNL     1      41.038 -15.535   5.560  1.00  0.00     0.175 A 
HETATM    6  C   UNL     1      41.196 -14.527   4.640  1.00  0.00     0.040 A 
HETATM    7  C   UNL     1      42.032 -13.339   4.992  1.00  0.00     0.105 C 
HETATM    8  C   UNL     1      42.782 -13.598   6.300  1.00  0.00     0.067 C 
HETATM    9  C   UNL     1      43.964 -12.699   6.623  1.00  0.00     0.020 C 
HETATM   10  N   UNL     1      44.945 -11.955   6.891  1.00  0.00    -0.096 N 
HETATM   11  C   UNL     1      42.541 -14.673   7.100  1.00  0.00     0.139 C 
HETATM   12  O   UNL     1      41.573 -15.637   6.770  1.00  0.00    -0.279 OA
ENDROOT
BRANCH   7  13
HETATM   13  C   UNL     1      41.059 -12.172   5.084  1.00  0.00    -0.044 A 
HETATM   14  C   UNL     1      39.908 -12.220   5.890  1.00  0.00     0.010 A 
HETATM   15  C   UNL     1      38.997 -11.157   5.920  1.00  0.00     0.030 A 
HETATM   16  C   UNL     1      39.215 -10.016   5.150  1.00  0.00     0.034 A 
HETATM   17  C   UNL     1      40.371  -9.948   4.363  1.00  0.00     0.030 A 
HETATM   18  C   UNL     1      41.284 -11.010   4.333  1.00  0.00     0.010 A 
BRANCH  16  19
HETATM   19  N   UNL     1      38.330  -8.921   5.095  1.00  0.00    -0.328 N 
HETATM   20  C   UNL     1      38.379  -7.761   5.848  1.00  0.00     0.218 C 
HETATM   21  C   UNL     1      37.223  -6.839   5.546  1.00  0.00     0.117 C 
HETATM   22  O   UNL     1      39.239  -7.440   6.659  1.00  0.00    -0.274 OA
HETATM   23  H   UNL     1      37.566  -9.004   4.435  1.00  0.00     0.169 HD
ENDBRANCH  16  19
ENDBRANCH   7  13
BRANCH  11  24
HETATM   24  N   UNL     1      43.199 -14.962   8.274  1.00  0.00    -0.282 NA
HETATM   25  H   UNL     1      43.883 -14.271   8.575  1.00  0.00     0.126 HD
HETATM   26  H   UNL     1      42.557 -15.229   9.015  1.00  0.00     0.126 HD
ENDBRANCH  11  24
BRANCH   1  27
HETATM   27  C   UNL     1      40.258 -14.296   2.208  1.00  0.00    -0.005 A 
HETATM   28  C   UNL     1      39.504 -13.118   2.127  1.00  0.00     0.014 A 
HETATM   29  C   UNL     1      39.284 -12.489   0.899  1.00  0.00     0.008 A 
HETATM   30  C   UNL     1      39.818 -13.027  -0.277  1.00  0.00    -0.058 A 
HETATM   31  C   UNL     1      40.573 -14.203  -0.201  1.00  0.00     0.008 A 
HETATM   32  C   UNL     1      40.781 -14.840   1.029  1.00  0.00     0.014 A 
BRANCH  30  33
HETATM   33  C   UNL     1      39.575 -12.352  -1.606  1.00  0.00     0.042 C 
BRANCH  33  34
HETATM   34  C   UNL     1      38.083 -12.168  -1.946  1.00  0.00    -0.019 C 
HETATM   35  C   UNL     1      37.484 -13.411  -2.609  1.00  0.00     0.010 C 
HETATM   36  C   UNL     1      37.911 -10.961  -2.874  1.00  0.00     0.010 C 
ENDBRANCH  33  34
ENDBRANCH  30  33
ENDBRANCH   1  27
TORSDOF 6
ENDMDL
MODEL 10
REMARK VINA RESULT:      -7.3      2.514      3.998
REMARK  6 active torsions:
REMARK  status: ('A' for Active; 'I' for Inactive)
REMARK    1  A    between atoms: C_2  and  C_3 
REMARK    2  A    between atoms: C_3  and  C_4 
REMARK    3  A    between atoms: C_7  and  C_8 
REMARK    4  A    between atoms: C_14  and  C_15 
REMARK    5  A    between atoms: C_18  and  N_19 
REMARK       I    between atoms: N_19  and  C_20 
REMARK    6  A    between atoms: C_28  and  N_29 
ROOT
HETATM    1  C   UNL     1      40.390 -12.293  -0.730  1.00  0.00     0.099 A 
HETATM    2  N   UNL     1      41.208 -12.085  -1.783  1.00  0.00    -0.172 NA
HETATM    3  N   UNL     1      40.711 -11.001  -2.402  1.00  0.00    -0.256 N 
HETATM    4  H   UNL     1      41.167 -10.664  -3.242  1.00  0.00     0.191 HD
HETATM    5  C   UNL     1      39.610 -10.508  -1.788  1.00  0.00     0.175 A 
HETATM    6  C   UNL     1      39.376 -11.293  -0.686  1.00  0.00     0.040 A 
HETATM    7  C   UNL     1      38.233 -10.963   0.218  1.00  0.00     0.105 C 
HETATM    8  C   UNL     1      37.354  -9.888  -0.424  1.00  0.00     0.067 C 
HETATM    9  C   UNL     1      35.954  -9.697   0.136  1.00  0.00     0.020 C 
HETATM   10  N   UNL     1      34.792  -9.540   0.600  1.00  0.00    -0.096 N 
HETATM   11  C   UNL     1      37.704  -9.210  -1.552  1.00  0.00     0.139 C 
HETATM   12  O   UNL     1      38.915  -9.461  -2.217  1.00  0.00    -0.279 OA
ENDROOT
BRANCH   7  13
HETATM   13  C   UNL     1      38.869 -10.511   1.526  1.00  0.00    -0.044 A 
HETATM   14  C   UNL     1      39.559  -9.291   1.639  1.00  0.00     0.010 A 
HETATM   15  C   UNL     1      40.182  -8.918   2.836  1.00  0.00     0.030 A 
HETATM   16  C   UNL     1      40.127  -9.750   3.952  1.00  0.00     0.034 A 
HETATM   17  C   UNL     1      39.421 -10.955   3.857  1.00  0.00     0.030 A 
HETATM   18  C   UNL     1      38.795 -11.330   2.661  1.00  0.00     0.010 A 
BRANCH  16  19
HETATM   19  N   UNL     1      40.759  -9.465   5.179  1.00  0.00    -0.328 N 
HETATM   20  C   UNL     1      42.001  -9.900   5.607  1.00  0.00     0.218 C 
HETATM   21  C   UNL     1      42.316  -9.433   7.007  1.00  0.00     0.117 C 
HETATM   22  O   UNL     1      42.812 -10.565   4.973  1.00  0.00    -0.274 OA
HETATM   23  H   UNL     1      40.235  -8.883   5.821  1.00  0.00     0.169 HD
ENDBRANCH  16  19
ENDBRANCH   7  13
BRANCH  11  24
HETATM   24  N   UNL     1      36.942  -8.251  -2.178  1.00  0.00    -0.282 NA
HETATM   25  H   UNL     1      36.528  -8.529  -3.065  1.00  0.00     0.126 HD
HETATM   26  H   UNL     1      36.269  -7.826  -1.546  1.00  0.00     0.126 HD
ENDBRANCH  11  24
BRANCH   1  27
HETATM   27  C   UNL     1      40.634 -13.421   0.171  1.00  0.00    -0.005 A 
HETATM   28  C   UNL     1      41.662 -13.339   1.121  1.00  0.00     0.014 A 
HETATM   29  C   UNL     1      41.938 -14.410   1.974  1.00  0.00     0.008 A 
HETATM   30  C   UNL     1      41.188 -15.589   1.896  1.00  0.00    -0.058 A 
HETATM   31  C   UNL     1      40.161 -15.675   0.949  1.00  0.00     0.008 A 
HETATM   32  C   UNL     1      39.894 -14.605   0.085  1.00  0.00     0.014 A 
BRANCH  30  33
HETATM   33  C   UNL     1      41.491 -16.751   2.812  1.00  0.00     0.042 C 
BRANCH  33  34
HETATM   34  C   UNL     1      42.960 -17.212   2.767  1.00  0.00    -0.019 C 
HETATM   35  C   UNL     1      43.099 -18.652   2.265  1.00  0.00     0.010 C 
HETATM   36  C   UNL     1      43.581 -17.096   4.162  1.00  0.00     0.010 C 
ENDBRANCH  33  34
ENDBRANCH  30  33
ENDBRANCH   1  27
TORSDOF 6
ENDMDL
