MODEL 1
REMARK VINA RESULT:      -8.6      0.000      0.000
REMARK  3 active torsions:
REMARK  status: ('A' for Active; 'I' for Inactive)
REMARK    1  A    between atoms: C_7  and  C_8 
REMARK       I    between atoms: C_8  and  N_9 
REMARK    2  A    between atoms: N_9  and  C_10 
REMARK    3  A    between atoms: C_11  and  O_12 
ROOT
HETATM    1  C   UNL     1      44.400 -11.473   7.945  1.00  0.00     0.252 C 
HETATM    2  N   UNL     1      43.696 -11.012   9.033  1.00  0.00    -0.346 N 
HETATM    3  O   UNL     1      45.611 -11.316   7.827  1.00  0.00    -0.268 OA
HETATM    4  H   UNL     1      42.689 -11.090   9.057  1.00  0.00     0.163 HD
ENDROOT
BRANCH   1   5
HETATM    5  C   UNL     1      43.609 -12.153   6.888  1.00  0.00     0.033 A 
HETATM    6  C   UNL     1      42.619 -11.418   6.231  1.00  0.00     0.019 A 
HETATM    7  C   UNL     1      41.821 -12.008   5.249  1.00  0.00     0.031 A 
HETATM    8  C   UNL     1      42.060 -13.352   4.940  1.00  0.00     0.043 A 
HETATM    9  C   UNL     1      43.056 -14.108   5.557  1.00  0.00    -0.001 A 
HETATM   10  N   UNL     1      41.435 -14.171   4.031  1.00  0.00    -0.359 N 
HETATM   11  C   UNL     1      43.024 -15.416   4.974  1.00  0.00    -0.027 A 
HETATM   12  C   UNL     1      43.848 -13.495   6.551  1.00  0.00     0.031 A 
HETATM   13  C   UNL     1      43.915 -16.564   5.300  1.00  0.00     0.051 C 
HETATM   14  C   UNL     1      42.001 -15.422   4.039  1.00  0.00     0.012 A 
HETATM   15  C   UNL     1      41.513 -16.504   3.146  1.00  0.00     0.068 C 
HETATM   16  H   UNL     1      40.669 -13.884   3.439  1.00  0.00     0.166 HD
ENDBRANCH   1   5
BRANCH   2  17
HETATM   17  C   UNL     1      44.340 -10.196  10.045  1.00  0.00     0.147 C 
HETATM   18  C   UNL     1      44.028 -10.613  11.519  1.00  0.00     0.149 C 
HETATM   19  C   UNL     1      42.826  -9.759  11.969  1.00  0.00     0.073 C 
HETATM   20  C   UNL     1      42.954  -8.549  11.096  1.00  0.00    -0.047 A 
HETATM   21  C   UNL     1      43.803  -8.794  10.012  1.00  0.00    -0.027 A 
HETATM   22  C   UNL     1      42.319  -7.327  11.242  1.00  0.00     0.008 A 
HETATM   23  C   UNL     1      44.035  -7.820   9.053  1.00  0.00     0.010 A 
HETATM   24  C   UNL     1      43.406  -6.583   9.197  1.00  0.00     0.001 A 
HETATM   25  C   UNL     1      42.554  -6.338  10.285  1.00  0.00     0.001 A 
BRANCH  18  26
HETATM   26  O   UNL     1      43.747 -11.998  11.701  1.00  0.00    -0.393 OA
HETATM   27  H   UNL     1      42.987 -12.049  12.318  1.00  0.00     0.210 HD
ENDBRANCH  18  26
ENDBRANCH   2  17
TORSDOF 3
ENDMDL
MODEL 2
REMARK VINA RESULT:      -8.3      2.024      2.870
REMARK  3 active torsions:
REMARK  status: ('A' for Active; 'I' for Inactive)
REMARK    1  A    between atoms: C_7  and  C_8 
REMARK       I    between atoms: C_8  and  N_9 
REMARK    2  A    between atoms: N_9  and  C_10 
REMARK    3  A    between atoms: C_11  and  O_12 
ROOT
HETATM    1  C   UNL     1      43.317 -11.192   6.362  1.00  0.00     0.252 C 
HETATM    2  N   UNL     1      44.214 -10.827   7.337  1.00  0.00    -0.346 N 
HETATM    3  O   UNL     1      42.561 -10.388   5.825  1.00  0.00    -0.268 OA
HETATM    4  H   UNL     1      44.764 -11.530   7.811  1.00  0.00     0.163 HD
ENDROOT
BRANCH   1   5
HETATM    5  C   UNL     1      43.280 -12.633   6.005  1.00  0.00     0.033 A 
HETATM    6  C   UNL     1      43.422 -13.569   7.033  1.00  0.00     0.019 A 
HETATM    7  C   UNL     1      43.427 -14.939   6.759  1.00  0.00     0.031 A 
HETATM    8  C   UNL     1      43.269 -15.334   5.425  1.00  0.00     0.043 A 
HETATM    9  C   UNL     1      43.099 -14.429   4.379  1.00  0.00    -0.001 A 
HETATM   10  N   UNL     1      43.237 -16.594   4.879  1.00  0.00    -0.359 N 
HETATM   11  C   UNL     1      42.944 -15.189   3.175  1.00  0.00    -0.027 A 
HETATM   12  C   UNL     1      43.103 -13.049   4.676  1.00  0.00     0.031 A 
HETATM   13  C   UNL     1      42.718 -14.657   1.803  1.00  0.00     0.051 C 
HETATM   14  C   UNL     1      43.045 -16.527   3.521  1.00  0.00     0.012 A 
HETATM   15  C   UNL     1      42.970 -17.751   2.683  1.00  0.00     0.068 C 
HETATM   16  H   UNL     1      43.338 -17.448   5.410  1.00  0.00     0.166 HD
ENDBRANCH   1   5
BRANCH   2  17
HETATM   17  C   UNL     1      44.224  -9.479   7.874  1.00  0.00     0.147 C 
HETATM   18  C   UNL     1      45.629  -8.964   8.326  1.00  0.00     0.149 C 
HETATM   19  C   UNL     1      45.747  -9.282   9.829  1.00  0.00     0.073 C 
HETATM   20  C   UNL     1      44.314  -9.306  10.261  1.00  0.00    -0.047 A 
HETATM   21  C   UNL     1      43.456  -9.420   9.162  1.00  0.00    -0.027 A 
HETATM   22  C   UNL     1      43.817  -9.272  11.553  1.00  0.00     0.008 A 
HETATM   23  C   UNL     1      42.082  -9.500   9.335  1.00  0.00     0.010 A 
HETATM   24  C   UNL     1      41.572  -9.457  10.633  1.00  0.00     0.001 A 
HETATM   25  C   UNL     1      42.434  -9.343  11.735  1.00  0.00     0.001 A 
BRANCH  18  26
HETATM   26  O   UNL     1      46.728  -9.522   7.612  1.00  0.00    -0.393 OA
HETATM   27  H   UNL     1      46.441 -10.409   7.308  1.00  0.00     0.210 HD
ENDBRANCH  18  26
ENDBRANCH   2  17
TORSDOF 3
ENDMDL
MODEL 3
REMARK VINA RESULT:      -8.2      6.189      8.829
REMARK  3 active torsions:
REMARK  status: ('A' for Active; 'I' for Inactive)
REMARK    1  A    between atoms: C_7  and  C_8 
REMARK       I    between atoms: C_8  and  N_9 
REMARK    2  A    between atoms: N_9  and  C_10 
REMARK    3  A    between atoms: C_11  and  O_12 
ROOT
HETATM    1  C   UNL     1      40.467 -14.329   2.271  1.00  0.00     0.252 C 
HETATM    2  N   UNL     1      40.906 -14.671   3.528  1.00  0.00    -0.346 N 
HETATM    3  O   UNL     1      39.802 -15.089   1.574  1.00  0.00    -0.268 OA
HETATM    4  H   UNL     1      41.518 -14.050   4.040  1.00  0.00     0.163 HD
ENDROOT
BRANCH   1   5
HETATM    5  C   UNL     1      40.868 -12.989   1.774  1.00  0.00     0.033 A 
HETATM    6  C   UNL     1      41.305 -12.045   2.707  1.00  0.00     0.019 A 
HETATM    7  C   UNL     1      41.668 -10.756   2.308  1.00  0.00     0.031 A 
HETATM    8  C   UNL     1      41.591 -10.456   0.943  1.00  0.00     0.043 A 
HETATM    9  C   UNL     1      41.185 -11.380  -0.018  1.00  0.00    -0.001 A 
HETATM   10  N   UNL     1      41.881  -9.286   0.281  1.00  0.00    -0.359 N 
HETATM   11  C   UNL     1      41.256 -10.732  -1.294  1.00  0.00    -0.027 A 
HETATM   12  C   UNL     1      40.817 -12.675   0.407  1.00  0.00     0.031 A 
HETATM   13  C   UNL     1      40.936 -11.328  -2.620  1.00  0.00     0.051 C 
HETATM   14  C   UNL     1      41.682  -9.433  -1.069  1.00  0.00     0.012 A 
HETATM   15  C   UNL     1      41.923  -8.316  -2.018  1.00  0.00     0.068 C 
HETATM   16  H   UNL     1      42.200  -8.441   0.733  1.00  0.00     0.166 HD
ENDBRANCH   1   5
BRANCH   2  17
HETATM   17  C   UNL     1      40.709 -16.011   4.048  1.00  0.00     0.147 C 
HETATM   18  C   UNL     1      40.505 -16.091   5.595  1.00  0.00     0.149 C 
HETATM   19  C   UNL     1      41.898 -16.343   6.206  1.00  0.00     0.073 C 
HETATM   20  C   UNL     1      42.617 -17.022   5.083  1.00  0.00    -0.047 A 
HETATM   21  C   UNL     1      41.951 -16.835   3.867  1.00  0.00    -0.027 A 
HETATM   22  C   UNL     1      43.810 -17.724   5.141  1.00  0.00     0.008 A 
HETATM   23  C   UNL     1      42.465 -17.348   2.685  1.00  0.00     0.010 A 
HETATM   24  C   UNL     1      43.661 -18.064   2.736  1.00  0.00     0.001 A 
HETATM   25  C   UNL     1      44.329 -18.251   3.957  1.00  0.00     0.001 A 
BRANCH  18  26
HETATM   26  O   UNL     1      39.908 -14.937   6.180  1.00  0.00    -0.393 OA
HETATM   27  H   UNL     1      40.498 -14.660   6.913  1.00  0.00     0.210 HD
ENDBRANCH  18  26
ENDBRANCH   2  17
TORSDOF 3
ENDMDL
MODEL 4
REMARK VINA RESULT:      -8.1      6.736      9.648
REMARK  3 active torsions:
REMARK  status: ('A' for Active; 'I' for Inactive)
REMARK    1  A    between atoms: C_7  and  C_8 
REMARK       I    between atoms: C_8  and  N_9 
REMARK    2  A    between atoms: N_9  and  C_10 
REMARK    3  A    between atoms: C_11  and  O_12 
ROOT
HETATM    1  C   UNL     1      40.067 -14.354   1.846  1.00  0.00     0.252 C 
HETATM    2  N   UNL     1      40.176 -14.472   0.481  1.00  0.00    -0.346 N 
HETATM    3  O   UNL     1      39.204 -13.667   2.384  1.00  0.00    -0.268 OA
HETATM    4  H   UNL     1      40.947 -14.983   0.074  1.00  0.00     0.163 HD
ENDROOT
BRANCH   1   5
HETATM    5  C   UNL     1      41.079 -15.082   2.653  1.00  0.00     0.033 A 
HETATM    6  C   UNL     1      41.596 -14.450   3.786  1.00  0.00     0.019 A 
HETATM    7  C   UNL     1      42.573 -15.068   4.570  1.00  0.00     0.031 A 
HETATM    8  C   UNL     1      42.998 -16.346   4.187  1.00  0.00     0.043 A 
HETATM    9  C   UNL     1      42.485 -17.017   3.078  1.00  0.00    -0.001 A 
HETATM   10  N   UNL     1      43.931 -17.173   4.764  1.00  0.00    -0.359 N 
HETATM   11  C   UNL     1      43.130 -18.295   3.014  1.00  0.00    -0.027 A 
HETATM   12  C   UNL     1      41.503 -16.372   2.296  1.00  0.00     0.031 A 
HETATM   13  C   UNL     1      42.893 -19.368   2.009  1.00  0.00     0.051 C 
HETATM   14  C   UNL     1      44.026 -18.353   4.069  1.00  0.00     0.012 A 
HETATM   15  C   UNL     1      44.964 -19.428   4.483  1.00  0.00     0.068 C 
HETATM   16  H   UNL     1      44.465 -16.940   5.589  1.00  0.00     0.166 HD
ENDBRANCH   1   5
BRANCH   2  17
HETATM   17  C   UNL     1      39.343 -13.680  -0.404  1.00  0.00     0.147 C 
HETATM   18  C   UNL     1      38.948 -14.387  -1.741  1.00  0.00     0.149 C 
HETATM   19  C   UNL     1      40.001 -13.967  -2.785  1.00  0.00     0.073 C 
HETATM   20  C   UNL     1      40.466 -12.648  -2.251  1.00  0.00    -0.047 A 
HETATM   21  C   UNL     1      40.099 -12.486  -0.911  1.00  0.00    -0.027 A 
HETATM   22  C   UNL     1      41.205 -11.679  -2.910  1.00  0.00     0.008 A 
HETATM   23  C   UNL     1      40.462 -11.349  -0.204  1.00  0.00     0.010 A 
HETATM   24  C   UNL     1      41.199 -10.364  -0.863  1.00  0.00     0.001 A 
HETATM   25  C   UNL     1      41.567 -10.528  -2.207  1.00  0.00     0.001 A 
BRANCH  18  26
HETATM   26  O   UNL     1      38.865 -15.807  -1.663  1.00  0.00    -0.393 OA
HETATM   27  H   UNL     1      39.525 -16.159  -2.297  1.00  0.00     0.210 HD
ENDBRANCH  18  26
ENDBRANCH   2  17
TORSDOF 3
ENDMDL
MODEL 5
REMARK VINA RESULT:      -8.1      6.495      8.297
REMARK  3 active torsions:
REMARK  status: ('A' for Active; 'I' for Inactive)
REMARK    1  A    between atoms: C_7  and  C_8 
REMARK       I    between atoms: C_8  and  N_9 
REMARK    2  A    between atoms: N_9  and  C_10 
REMARK    3  A    between atoms: C_11  and  O_12 
ROOT
HETATM    1  C   UNL     1      42.535 -13.724   2.743  1.00  0.00     0.252 C 
HETATM    2  N   UNL     1      41.272 -13.465   2.266  1.00  0.00    -0.346 N 
HETATM    3  O   UNL     1      43.335 -12.832   3.009  1.00  0.00    -0.268 OA
HETATM    4  H   UNL     1      40.669 -14.226   1.983  1.00  0.00     0.163 HD
ENDROOT
BRANCH   1   5
HETATM    5  C   UNL     1      42.904 -15.154   2.892  1.00  0.00     0.033 A 
HETATM    6  C   UNL     1      43.103 -15.907   1.732  1.00  0.00     0.019 A 
HETATM    7  C   UNL     1      43.422 -17.265   1.805  1.00  0.00     0.031 A 
HETATM    8  C   UNL     1      43.549 -17.833   3.078  1.00  0.00     0.043 A 
HETATM    9  C   UNL     1      43.383 -17.106   4.255  1.00  0.00    -0.001 A 
HETATM   10  N   UNL     1      43.849 -19.125   3.439  1.00  0.00    -0.359 N 
HETATM   11  C   UNL     1      43.613 -18.003   5.349  1.00  0.00    -0.027 A 
HETATM   12  C   UNL     1      43.055 -15.737   4.160  1.00  0.00     0.031 A 
HETATM   13  C   UNL     1      43.565 -17.675   6.801  1.00  0.00     0.051 C 
HETATM   14  C   UNL     1      43.890 -19.247   4.805  1.00  0.00     0.012 A 
HETATM   15  C   UNL     1      44.195 -20.544   5.463  1.00  0.00     0.068 C 
HETATM   16  H   UNL     1      44.021 -19.874   2.783  1.00  0.00     0.166 HD
ENDBRANCH   1   5
BRANCH   2  17
HETATM   17  C   UNL     1      40.863 -12.114   1.931  1.00  0.00     0.147 C 
HETATM   18  C   UNL     1      39.681 -11.555   2.789  1.00  0.00     0.149 C 
HETATM   19  C   UNL     1      38.390 -11.860   2.004  1.00  0.00     0.073 C 
HETATM   20  C   UNL     1      38.886 -11.922   0.593  1.00  0.00    -0.047 A 
HETATM   21  C   UNL     1      40.276 -12.068   0.550  1.00  0.00    -0.027 A 
HETATM   22  C   UNL     1      38.136 -11.893  -0.572  1.00  0.00     0.008 A 
HETATM   23  C   UNL     1      40.945 -12.185  -0.660  1.00  0.00     0.010 A 
HETATM   24  C   UNL     1      40.198 -12.148  -1.838  1.00  0.00     0.001 A 
HETATM   25  C   UNL     1      38.803 -12.002  -1.794  1.00  0.00     0.001 A 
BRANCH  18  26
HETATM   26  O   UNL     1      39.597 -12.087   4.108  1.00  0.00    -0.393 OA
HETATM   27  H   UNL     1      38.794 -12.651   4.130  1.00  0.00     0.210 HD
ENDBRANCH  18  26
ENDBRANCH   2  17
TORSDOF 3
ENDMDL
MODEL 6
REMARK VINA RESULT:      -8.0      1.120      2.314
REMARK  3 active torsions:
REMARK  status: ('A' for Active; 'I' for Inactive)
REMARK    1  A    between atoms: C_7  and  C_8 
REMARK       I    between atoms: C_8  and  N_9 
REMARK    2  A    between atoms: N_9  and  C_10 
REMARK    3  A    between atoms: C_11  and  O_12 
ROOT
HETATM    1  C   UNL     1      44.277 -11.501   7.907  1.00  0.00     0.252 C 
HETATM    2  N   UNL     1      43.622 -11.002   9.008  1.00  0.00    -0.346 N 
HETATM    3  O   UNL     1      45.490 -11.395   7.755  1.00  0.00    -0.268 OA
HETATM    4  H   UNL     1      42.613 -11.038   9.059  1.00  0.00     0.163 HD
ENDROOT
BRANCH   1   5
HETATM    5  C   UNL     1      43.431 -12.155   6.877  1.00  0.00     0.033 A 
HETATM    6  C   UNL     1      43.754 -13.459   6.491  1.00  0.00     0.019 A 
HETATM    7  C   UNL     1      43.016 -14.118   5.505  1.00  0.00     0.031 A 
HETATM    8  C   UNL     1      41.938 -13.431   4.934  1.00  0.00     0.043 A 
HETATM    9  C   UNL     1      41.572 -12.141   5.313  1.00  0.00    -0.001 A 
HETATM   10  N   UNL     1      41.057 -13.831   3.959  1.00  0.00    -0.359 N 
HETATM   11  C   UNL     1      40.420 -11.778   4.542  1.00  0.00    -0.027 A 
HETATM   12  C   UNL     1      42.334 -11.489   6.307  1.00  0.00     0.031 A 
HETATM   13  C   UNL     1      39.662 -10.498   4.612  1.00  0.00     0.051 C 
HETATM   14  C   UNL     1      40.135 -12.846   3.707  1.00  0.00     0.012 A 
HETATM   15  C   UNL     1      39.064 -13.021   2.692  1.00  0.00     0.068 C 
HETATM   16  H   UNL     1      41.086 -14.730   3.499  1.00  0.00     0.166 HD
ENDBRANCH   1   5
BRANCH   2  17
HETATM   17  C   UNL     1      44.325 -10.207   9.996  1.00  0.00     0.147 C 
HETATM   18  C   UNL     1      44.068 -10.626  11.480  1.00  0.00     0.149 C 
HETATM   19  C   UNL     1      42.904  -9.750  11.986  1.00  0.00     0.073 C 
HETATM   20  C   UNL     1      43.021  -8.538  11.115  1.00  0.00    -0.047 A 
HETATM   21  C   UNL     1      43.817  -8.794   9.994  1.00  0.00    -0.027 A 
HETATM   22  C   UNL     1      42.417  -7.304  11.294  1.00  0.00     0.008 A 
HETATM   23  C   UNL     1      44.028  -7.818   9.030  1.00  0.00     0.010 A 
HETATM   24  C   UNL     1      43.431  -6.569   9.208  1.00  0.00     0.001 A 
HETATM   25  C   UNL     1      42.632  -6.314  10.333  1.00  0.00     0.001 A 
BRANCH  18  26
HETATM   26  O   UNL     1      43.767 -12.006  11.666  1.00  0.00    -0.393 OA
HETATM   27  H   UNL     1      43.904 -12.195  12.619  1.00  0.00     0.210 HD
ENDBRANCH  18  26
ENDBRANCH   2  17
TORSDOF 3
ENDMDL
MODEL 7
REMARK VINA RESULT:      -8.0      7.157      9.994
REMARK  3 active torsions:
REMARK  status: ('A' for Active; 'I' for Inactive)
REMARK    1  A    between atoms: C_7  and  C_8 
REMARK       I    between atoms: C_8  and  N_9 
REMARK    2  A    between atoms: N_9  and  C_10 
REMARK    3  A    between atoms: C_11  and  O_12 
ROOT
HETATM    1  C   UNL     1      40.285 -14.435  -0.152  1.00  0.00     0.252 C 
HETATM    2  N   UNL     1      40.562 -13.276  -0.837  1.00  0.00    -0.346 N 
HETATM    3  O   UNL     1      39.445 -15.244  -0.536  1.00  0.00    -0.268 OA
HETATM    4  H   UNL     1      41.203 -12.597  -0.449  1.00  0.00     0.163 HD
ENDROOT
BRANCH   1   5
HETATM    5  C   UNL     1      41.036 -14.652   1.110  1.00  0.00     0.033 A 
HETATM    6  C   UNL     1      41.097 -13.601   2.028  1.00  0.00     0.019 A 
HETATM    7  C   UNL     1      41.814 -13.731   3.220  1.00  0.00     0.031 A 
HETATM    8  C   UNL     1      42.451 -14.954   3.463  1.00  0.00     0.043 A 
HETATM    9  C   UNL     1      42.389 -16.031   2.581  1.00  0.00    -0.001 A 
HETATM   10  N   UNL     1      43.213 -15.352   4.535  1.00  0.00    -0.359 N 
HETATM   11  C   UNL     1      43.129 -17.109   3.168  1.00  0.00    -0.027 A 
HETATM   12  C   UNL     1      41.665 -15.878   1.379  1.00  0.00     0.031 A 
HETATM   13  C   UNL     1      43.329 -18.472   2.602  1.00  0.00     0.051 C 
HETATM   14  C   UNL     1      43.633 -16.648   4.374  1.00  0.00     0.012 A 
HETATM   15  C   UNL     1      44.474 -17.327   5.393  1.00  0.00     0.068 C 
HETATM   16  H   UNL     1      43.425 -14.767   5.331  1.00  0.00     0.166 HD
ENDBRANCH   1   5
BRANCH   2  17
HETATM   17  C   UNL     1      39.777 -12.886  -1.993  1.00  0.00     0.147 C 
HETATM   18  C   UNL     1      40.615 -12.466  -3.244  1.00  0.00     0.149 C 
HETATM   19  C   UNL     1      40.777 -10.934  -3.166  1.00  0.00     0.073 C 
HETATM   20  C   UNL     1      39.573 -10.530  -2.373  1.00  0.00    -0.047 A 
HETATM   21  C   UNL     1      39.011 -11.626  -1.710  1.00  0.00    -0.027 A 
HETATM   22  C   UNL     1      39.045  -9.258  -2.222  1.00  0.00     0.008 A 
HETATM   23  C   UNL     1      37.908 -11.472  -0.884  1.00  0.00     0.010 A 
HETATM   24  C   UNL     1      37.364 -10.195  -0.734  1.00  0.00     0.001 A 
HETATM   25  C   UNL     1      37.929  -9.097  -1.399  1.00  0.00     0.001 A 
BRANCH  18  26
HETATM   26  O   UNL     1      41.889 -13.094  -3.348  1.00  0.00    -0.393 OA
HETATM   27  H   UNL     1      41.780 -13.844  -3.971  1.00  0.00     0.210 HD
ENDBRANCH  18  26
ENDBRANCH   2  17
TORSDOF 3
ENDMDL
MODEL 8
REMARK VINA RESULT:      -8.0      7.350      9.435
REMARK  3 active torsions:
REMARK  status: ('A' for Active; 'I' for Inactive)
REMARK    1  A    between atoms: C_7  and  C_8 
REMARK       I    between atoms: C_8  and  N_9 
REMARK    2  A    between atoms: N_9  and  C_10 
REMARK    3  A    between atoms: C_11  and  O_12 
ROOT
HETATM    1  C   UNL     1      40.606 -14.691   0.385  1.00  0.00     0.252 C 
HETATM    2  N   UNL     1      40.977 -13.437  -0.038  1.00  0.00    -0.346 N 
HETATM    3  O   UNL     1      39.615 -15.269  -0.050  1.00  0.00    -0.268 OA
HETATM    4  H   UNL     1      41.754 -12.961   0.401  1.00  0.00     0.163 HD
ENDROOT
BRANCH   1   5
HETATM    5  C   UNL     1      41.454 -15.311   1.434  1.00  0.00     0.033 A 
HETATM    6  C   UNL     1      42.741 -15.726   1.080  1.00  0.00     0.019 A 
HETATM    7  C   UNL     1      43.577 -16.344   2.013  1.00  0.00     0.031 A 
HETATM    8  C   UNL     1      43.083 -16.515   3.312  1.00  0.00     0.043 A 
HETATM    9  C   UNL     1      41.816 -16.090   3.706  1.00  0.00    -0.001 A 
HETATM   10  N   UNL     1      43.679 -17.083   4.412  1.00  0.00    -0.359 N 
HETATM   11  C   UNL     1      41.671 -16.405   5.097  1.00  0.00    -0.027 A 
HETATM   12  C   UNL     1      40.984 -15.473   2.747  1.00  0.00     0.031 A 
HETATM   13  C   UNL     1      40.491 -16.123   5.960  1.00  0.00     0.051 C 
HETATM   14  C   UNL     1      42.841 -17.028   5.498  1.00  0.00     0.012 A 
HETATM   15  C   UNL     1      43.242 -17.574   6.820  1.00  0.00     0.068 C 
HETATM   16  H   UNL     1      44.608 -17.480   4.415  1.00  0.00     0.166 HD
ENDBRANCH   1   5
BRANCH   2  17
HETATM   17  C   UNL     1      40.135 -12.674  -0.940  1.00  0.00     0.147 C 
HETATM   18  C   UNL     1      40.432 -12.894  -2.459  1.00  0.00     0.149 C 
HETATM   19  C   UNL     1      41.424 -11.789  -2.873  1.00  0.00     0.073 C 
HETATM   20  C   UNL     1      41.124 -10.708  -1.883  1.00  0.00    -0.047 A 
HETATM   21  C   UNL     1      40.401 -11.204  -0.793  1.00  0.00    -0.027 A 
HETATM   22  C   UNL     1      41.511  -9.378  -1.936  1.00  0.00     0.008 A 
HETATM   23  C   UNL     1      40.049 -10.379   0.265  1.00  0.00     0.010 A 
HETATM   24  C   UNL     1      40.426  -9.037   0.216  1.00  0.00     0.001 A 
HETATM   25  C   UNL     1      41.152  -8.540  -0.878  1.00  0.00     0.001 A 
BRANCH  18  26
HETATM   26  O   UNL     1      40.954 -14.178  -2.785  1.00  0.00    -0.393 OA
HETATM   27  H   UNL     1      40.555 -14.811  -2.151  1.00  0.00     0.210 HD
ENDBRANCH  18  26
ENDBRANCH   2  17
TORSDOF 3
ENDMDL
MODEL 9
REMARK VINA RESULT:      -8.0      5.895      8.975
REMARK  3 active torsions:
REMARK  status: ('A' for Active; 'I' for Inactive)
REMARK    1  A    between atoms: C_7  and  C_8 
REMARK       I    between atoms: C_8  and  N_9 
REMARK    2  A    between atoms: N_9  and  C_10 
REMARK    3  A    between atoms: C_11  and  O_12 
ROOT
HETATM    1  C   UNL     1      42.220 -12.924   2.368  1.00  0.00     0.252 C 
HETATM    2  N   UNL     1      41.227 -13.171   1.450  1.00  0.00    -0.346 N 
HETATM    3  O   UNL     1      42.776 -11.834   2.462  1.00  0.00    -0.268 OA
HETATM    4  H   UNL     1      40.848 -14.103   1.350  1.00  0.00     0.163 HD
ENDROOT
BRANCH   1   5
HETATM    5  C   UNL     1      42.619 -14.063   3.233  1.00  0.00     0.033 A 
HETATM    6  C   UNL     1      42.861 -13.809   4.585  1.00  0.00     0.019 A 
HETATM    7  C   UNL     1      43.269 -14.832   5.445  1.00  0.00     0.031 A 
HETATM    8  C   UNL     1      43.408 -16.115   4.904  1.00  0.00     0.043 A 
HETATM    9  C   UNL     1      43.149 -16.409   3.566  1.00  0.00    -0.001 A 
HETATM   10  N   UNL     1      43.790 -17.289   5.509  1.00  0.00    -0.359 N 
HETATM   11  C   UNL     1      43.371 -17.813   3.385  1.00  0.00    -0.027 A 
HETATM   12  C   UNL     1      42.744 -15.361   2.713  1.00  0.00     0.031 A 
HETATM   13  C   UNL     1      43.203 -18.591   2.126  1.00  0.00     0.051 C 
HETATM   14  C   UNL     1      43.776 -18.324   4.608  1.00  0.00     0.012 A 
HETATM   15  C   UNL     1      44.147 -19.707   5.003  1.00  0.00     0.068 C 
HETATM   16  H   UNL     1      44.039 -17.371   6.484  1.00  0.00     0.166 HD
ENDBRANCH   1   5
BRANCH   2  17
HETATM   17  C   UNL     1      40.870 -12.181   0.452  1.00  0.00     0.147 C 
HETATM   18  C   UNL     1      39.820 -11.124   0.922  1.00  0.00     0.149 C 
HETATM   19  C   UNL     1      38.439 -11.663   0.500  1.00  0.00     0.073 C 
HETATM   20  C   UNL     1      38.783 -12.532  -0.669  1.00  0.00    -0.047 A 
HETATM   21  C   UNL     1      40.150 -12.827  -0.696  1.00  0.00    -0.027 A 
HETATM   22  C   UNL     1      37.921 -13.057  -1.618  1.00  0.00     0.008 A 
HETATM   23  C   UNL     1      40.682 -13.652  -1.676  1.00  0.00     0.010 A 
HETATM   24  C   UNL     1      39.823 -14.179  -2.641  1.00  0.00     0.001 A 
HETATM   25  C   UNL     1      38.451 -13.882  -2.612  1.00  0.00     0.001 A 
BRANCH  18  26
HETATM   26  O   UNL     1      39.838 -10.844   2.318  1.00  0.00    -0.393 OA
HETATM   27  H   UNL     1      39.739 -11.706   2.776  1.00  0.00     0.210 HD
ENDBRANCH  18  26
ENDBRANCH   2  17
TORSDOF 3
ENDMDL
MODEL 10
REMARK VINA RESULT:      -7.9      2.904      8.387
REMARK  3 active torsions:
REMARK  status: ('A' for Active; 'I' for Inactive)
REMARK    1  A    between atoms: C_7  and  C_8 
REMARK       I    between atoms: C_8  and  N_9 
REMARK    2  A    between atoms: N_9  and  C_10 
REMARK    3  A    between atoms: C_11  and  O_12 
ROOT
HETATM    1  C   UNL     1      42.979 -11.519   4.018  1.00  0.00     0.252 C 
HETATM    2  N   UNL     1      42.014 -12.498   4.004  1.00  0.00    -0.346 N 
HETATM    3  O   UNL     1      43.350 -10.942   3.000  1.00  0.00    -0.268 OA
HETATM    4  H   UNL     1      41.792 -13.005   4.849  1.00  0.00     0.163 HD
ENDROOT
BRANCH   1   5
HETATM    5  C   UNL     1      43.584 -11.209   5.338  1.00  0.00     0.033 A 
HETATM    6  C   UNL     1      44.917 -11.567   5.551  1.00  0.00     0.019 A 
HETATM    7  C   UNL     1      45.536 -11.331   6.781  1.00  0.00     0.031 A 
HETATM    8  C   UNL     1      44.776 -10.709   7.779  1.00  0.00     0.043 A 
HETATM    9  C   UNL     1      43.453 -10.315   7.592  1.00  0.00    -0.001 A 
HETATM   10  N   UNL     1      45.124 -10.363   9.062  1.00  0.00    -0.359 N 
HETATM   11  C   UNL     1      43.014  -9.697   8.808  1.00  0.00    -0.027 A 
HETATM   12  C   UNL     1      42.844 -10.568   6.344  1.00  0.00     0.031 A 
HETATM   13  C   UNL     1      41.676  -9.102   9.079  1.00  0.00     0.051 C 
HETATM   14  C   UNL     1      44.073  -9.753   9.700  1.00  0.00     0.012 A 
HETATM   15  C   UNL     1      44.183  -9.276  11.103  1.00  0.00     0.068 C 
HETATM   16  H   UNL     1      46.033 -10.532   9.471  1.00  0.00     0.166 HD
ENDBRANCH   1   5
BRANCH   2  17
HETATM   17  C   UNL     1      41.471 -12.992   2.752  1.00  0.00     0.147 C 
HETATM   18  C   UNL     1      39.946 -13.331   2.788  1.00  0.00     0.149 C 
HETATM   19  C   UNL     1      39.840 -14.833   3.122  1.00  0.00     0.073 C 
HETATM   20  C   UNL     1      41.147 -15.361   2.616  1.00  0.00    -0.047 A 
HETATM   21  C   UNL     1      42.066 -14.327   2.410  1.00  0.00    -0.027 A 
HETATM   22  C   UNL     1      41.499 -16.682   2.397  1.00  0.00     0.008 A 
HETATM   23  C   UNL     1      43.356 -14.595   1.978  1.00  0.00     0.010 A 
HETATM   24  C   UNL     1      43.717 -15.923   1.746  1.00  0.00     0.001 A 
HETATM   25  C   UNL     1      42.794 -16.959   1.953  1.00  0.00     0.001 A 
BRANCH  18  26
HETATM   26  O   UNL     1      39.184 -12.563   3.714  1.00  0.00    -0.393 OA
HETATM   27  H   UNL     1      39.638 -11.697   3.797  1.00  0.00     0.210 HD
ENDBRANCH  18  26
ENDBRANCH   2  17
TORSDOF 3
ENDMDL
