MODEL 1
REMARK VINA RESULT:      -7.3      0.000      0.000
REMARK  5 active torsions:
REMARK  status: ('A' for Active; 'I' for Inactive)
REMARK    1  A    between atoms: C_2  and  C_3 
REMARK    2  A    between atoms: C_3  and  N_4 
REMARK    3  A    between atoms: C_3  and  C_14 
REMARK       I    between atoms: N_4  and  C_5 
REMARK    4  A    between atoms: C_5  and  C_6 
REMARK    5  A    between atoms: C_17  and  O_18 
ROOT
HETATM    1  C   UNL     1      41.264 -13.283   1.932  1.00  0.00     0.117 C 
ENDROOT
BRANCH   1   2
HETATM    2  C   UNL     1      42.068 -11.987   2.150  1.00  0.00     0.025 C 
HETATM    3  C   UNL     1      43.256 -12.166   3.088  1.00  0.00     0.007 C 
ENDBRANCH   1   2
BRANCH   1   4
HETATM    4  N   UNL     1      42.050 -14.469   2.251  1.00  0.00    -0.348 N 
HETATM    5  C   UNL     1      41.635 -15.404   3.174  1.00  0.00     0.253 C 
HETATM    6  O   UNL     1      40.589 -15.320   3.804  1.00  0.00    -0.268 OA
HETATM    7  H   UNL     1      42.976 -14.520   1.859  1.00  0.00     0.163 HD
BRANCH   5   8
HETATM    8  C   UNL     1      42.550 -16.545   3.418  1.00  0.00     0.050 A 
HETATM    9  C   UNL     1      43.407 -16.485   4.513  1.00  0.00     0.133 A 
HETATM   10  N   UNL     1      44.299 -17.457   4.832  1.00  0.00    -0.271 NA
HETATM   11  C   UNL     1      44.324 -18.544   4.027  1.00  0.00     0.135 A 
HETATM   12  C   UNL     1      43.495 -18.701   2.926  1.00  0.00     0.029 A 
HETATM   13 BR   UNL     1      43.589 -20.257   1.864  1.00  0.00    -0.050 Br
HETATM   14  C   UNL     1      42.589 -17.690   2.616  1.00  0.00     0.039 A 
ENDBRANCH   5   8
ENDBRANCH   1   4
BRANCH   1  15
HETATM   15  C   UNL     1      40.767 -13.379   0.497  1.00  0.00    -0.035 A 
HETATM   16  C   UNL     1      40.000 -14.482   0.100  1.00  0.00     0.012 A 
HETATM   17  C   UNL     1      39.540 -14.593  -1.215  1.00  0.00     0.037 A 
HETATM   18  C   UNL     1      39.845 -13.614  -2.163  1.00  0.00     0.068 A 
HETATM   19  C   UNL     1      40.602 -12.510  -1.778  1.00  0.00     0.037 A 
HETATM   20  C   UNL     1      41.056 -12.391  -0.458  1.00  0.00     0.012 A 
BRANCH  18  21
HETATM   21  O   UNL     1      39.342 -13.850  -3.412  1.00  0.00    -0.356 OA
HETATM   22  C   UNL     1      38.207 -14.702  -3.496  1.00  0.00     0.210 C 
ENDBRANCH  18  21
ENDBRANCH   1  15
TORSDOF 5
ENDMDL
MODEL 2
REMARK VINA RESULT:      -7.0      3.022      7.268
REMARK  5 active torsions:
REMARK  status: ('A' for Active; 'I' for Inactive)
REMARK    1  A    between atoms: C_2  and  C_3 
REMARK    2  A    between atoms: C_3  and  N_4 
REMARK    3  A    between atoms: C_3  and  C_14 
REMARK       I    between atoms: N_4  and  C_5 
REMARK    4  A    between atoms: C_5  and  C_6 
REMARK    5  A    between atoms: C_17  and  O_18 
ROOT
HETATM    1  C   UNL     1      42.364 -16.293   3.095  1.00  0.00     0.117 C 
ENDROOT
BRANCH   1   2
HETATM    2  C   UNL     1      43.469 -17.278   2.670  1.00  0.00     0.025 C 
HETATM    3  C   UNL     1      42.937 -18.656   2.296  1.00  0.00     0.007 C 
ENDBRANCH   1   2
BRANCH   1   4
HETATM    4  N   UNL     1      41.964 -15.420   1.998  1.00  0.00    -0.348 N 
HETATM    5  C   UNL     1      40.661 -15.332   1.560  1.00  0.00     0.253 C 
HETATM    6  O   UNL     1      39.737 -15.975   2.042  1.00  0.00    -0.268 OA
HETATM    7  H   UNL     1      42.703 -14.969   1.482  1.00  0.00     0.163 HD
BRANCH   5   8
HETATM    8  C   UNL     1      40.407 -14.425   0.415  1.00  0.00     0.050 A 
HETATM    9  C   UNL     1      40.982 -13.158   0.434  1.00  0.00     0.133 A 
HETATM   10  N   UNL     1      40.812 -12.233  -0.545  1.00  0.00    -0.271 NA
HETATM   11  C   UNL     1      40.044 -12.599  -1.597  1.00  0.00     0.135 A 
HETATM   12  C   UNL     1      39.446 -13.845  -1.711  1.00  0.00     0.029 A 
HETATM   13 BR   UNL     1      38.398 -14.275  -3.220  1.00  0.00    -0.050 Br
HETATM   14  C   UNL     1      39.632 -14.777  -0.694  1.00  0.00     0.039 A 
ENDBRANCH   5   8
ENDBRANCH   1   4
BRANCH   1  15
HETATM   15  C   UNL     1      42.817 -15.443   4.274  1.00  0.00    -0.035 A 
HETATM   16  C   UNL     1      42.715 -14.048   4.205  1.00  0.00     0.012 A 
HETATM   17  C   UNL     1      43.132 -13.250   5.273  1.00  0.00     0.037 A 
HETATM   18  C   UNL     1      43.670 -13.824   6.426  1.00  0.00     0.068 A 
HETATM   19  C   UNL     1      43.771 -15.211   6.509  1.00  0.00     0.037 A 
HETATM   20  C   UNL     1      43.344 -16.014   5.444  1.00  0.00     0.012 A 
BRANCH  18  21
HETATM   21  O   UNL     1      44.046 -12.930   7.390  1.00  0.00    -0.356 OA
HETATM   22  C   UNL     1      44.772 -11.788   6.957  1.00  0.00     0.210 C 
ENDBRANCH  18  21
ENDBRANCH   1  15
TORSDOF 5
ENDMDL
MODEL 3
REMARK VINA RESULT:      -6.9      4.005      6.683
REMARK  5 active torsions:
REMARK  status: ('A' for Active; 'I' for Inactive)
REMARK    1  A    between atoms: C_2  and  C_3 
REMARK    2  A    between atoms: C_3  and  N_4 
REMARK    3  A    between atoms: C_3  and  C_14 
REMARK       I    between atoms: N_4  and  C_5 
REMARK    4  A    between atoms: C_5  and  C_6 
REMARK    5  A    between atoms: C_17  and  O_18 
ROOT
HETATM    1  C   UNL     1      42.149 -12.929   4.693  1.00  0.00     0.117 C 
ENDROOT
BRANCH   1   2
HETATM    2  C   UNL     1      40.629 -12.869   4.938  1.00  0.00     0.025 C 
HETATM    3  C   UNL     1      40.163 -13.784   6.064  1.00  0.00     0.007 C 
ENDBRANCH   1   2
BRANCH   1   4
HETATM    4  N   UNL     1      42.652 -14.297   4.745  1.00  0.00    -0.348 N 
HETATM    5  C   UNL     1      42.789 -15.078   3.618  1.00  0.00     0.253 C 
HETATM    6  O   UNL     1      42.497 -14.701   2.490  1.00  0.00    -0.268 OA
HETATM    7  H   UNL     1      42.783 -14.699   5.659  1.00  0.00     0.163 HD
BRANCH   5   8
HETATM    8  C   UNL     1      43.286 -16.459   3.826  1.00  0.00     0.050 A 
HETATM    9  C   UNL     1      43.926 -16.759   5.025  1.00  0.00     0.133 A 
HETATM   10  N   UNL     1      44.437 -17.980   5.327  1.00  0.00    -0.271 NA
HETATM   11  C   UNL     1      44.288 -18.947   4.392  1.00  0.00     0.135 A 
HETATM   12  C   UNL     1      43.648 -18.746   3.178  1.00  0.00     0.029 A 
HETATM   13 BR   UNL     1      43.475 -20.155   1.936  1.00  0.00    -0.050 Br
HETATM   14  C   UNL     1      43.134 -17.485   2.888  1.00  0.00     0.039 A 
ENDBRANCH   5   8
ENDBRANCH   1   4
BRANCH   1  15
HETATM   15  C   UNL     1      42.897 -12.079   5.709  1.00  0.00    -0.035 A 
HETATM   16  C   UNL     1      44.134 -12.514   6.203  1.00  0.00     0.012 A 
HETATM   17  C   UNL     1      44.834 -11.751   7.141  1.00  0.00     0.037 A 
HETATM   18  C   UNL     1      44.311 -10.546   7.615  1.00  0.00     0.068 A 
HETATM   19  C   UNL     1      43.085 -10.100   7.126  1.00  0.00     0.037 A 
HETATM   20  C   UNL     1      42.386 -10.858   6.178  1.00  0.00     0.012 A 
BRANCH  18  21
HETATM   21  O   UNL     1      45.092  -9.906   8.536  1.00  0.00    -0.356 OA
HETATM   22  C   UNL     1      46.272  -9.278   8.051  1.00  0.00     0.210 C 
ENDBRANCH  18  21
ENDBRANCH   1  15
TORSDOF 5
ENDMDL
MODEL 4
REMARK VINA RESULT:      -6.9      2.881      6.941
REMARK  5 active torsions:
REMARK  status: ('A' for Active; 'I' for Inactive)
REMARK    1  A    between atoms: C_2  and  C_3 
REMARK    2  A    between atoms: C_3  and  N_4 
REMARK    3  A    between atoms: C_3  and  C_14 
REMARK       I    between atoms: N_4  and  C_5 
REMARK    4  A    between atoms: C_5  and  C_6 
REMARK    5  A    between atoms: C_17  and  O_18 
ROOT
HETATM    1  C   UNL     1      42.849 -14.778   3.386  1.00  0.00     0.117 C 
ENDROOT
BRANCH   1   2
HETATM    2  C   UNL     1      42.412 -14.293   4.781  1.00  0.00     0.025 C 
HETATM    3  C   UNL     1      40.928 -14.500   5.055  1.00  0.00     0.007 C 
ENDBRANCH   1   2
BRANCH   1   4
HETATM    4  N   UNL     1      41.842 -14.487   2.372  1.00  0.00    -0.348 N 
HETATM    5  C   UNL     1      41.754 -13.262   1.747  1.00  0.00     0.253 C 
HETATM    6  O   UNL     1      42.499 -12.321   1.990  1.00  0.00    -0.268 OA
HETATM    7  H   UNL     1      41.125 -15.180   2.230  1.00  0.00     0.163 HD
BRANCH   5   8
HETATM    8  C   UNL     1      40.663 -13.100   0.757  1.00  0.00     0.050 A 
HETATM    9  C   UNL     1      39.873 -11.955   0.824  1.00  0.00     0.133 A 
HETATM   10  N   UNL     1      38.837 -11.700  -0.015  1.00  0.00    -0.271 NA
HETATM   11  C   UNL     1      38.590 -12.624  -0.972  1.00  0.00     0.135 A 
HETATM   12  C   UNL     1      39.335 -13.783  -1.127  1.00  0.00     0.029 A 
HETATM   13 BR   UNL     1      38.927 -15.014  -2.497  1.00  0.00    -0.050 Br
HETATM   14  C   UNL     1      40.392 -14.027  -0.253  1.00  0.00     0.039 A 
ENDBRANCH   5   8
ENDBRANCH   1   4
BRANCH   1  15
HETATM   15  C   UNL     1      43.136 -16.272   3.395  1.00  0.00    -0.035 A 
HETATM   16  C   UNL     1      43.704 -16.864   4.531  1.00  0.00     0.012 A 
HETATM   17  C   UNL     1      43.982 -18.233   4.558  1.00  0.00     0.037 A 
HETATM   18  C   UNL     1      43.710 -19.038   3.450  1.00  0.00     0.068 A 
HETATM   19  C   UNL     1      43.138 -18.462   2.317  1.00  0.00     0.037 A 
HETATM   20  C   UNL     1      42.850 -17.092   2.291  1.00  0.00     0.012 A 
BRANCH  18  21
HETATM   21  O   UNL     1      44.038 -20.356   3.606  1.00  0.00    -0.356 OA
HETATM   22  C   UNL     1      44.301 -20.799   4.930  1.00  0.00     0.210 C 
ENDBRANCH  18  21
ENDBRANCH   1  15
TORSDOF 5
ENDMDL
MODEL 5
REMARK VINA RESULT:      -6.9      3.644      7.118
REMARK  5 active torsions:
REMARK  status: ('A' for Active; 'I' for Inactive)
REMARK    1  A    between atoms: C_2  and  C_3 
REMARK    2  A    between atoms: C_3  and  N_4 
REMARK    3  A    between atoms: C_3  and  C_14 
REMARK       I    between atoms: N_4  and  C_5 
REMARK    4  A    between atoms: C_5  and  C_6 
REMARK    5  A    between atoms: C_17  and  O_18 
ROOT
HETATM    1  C   UNL     1      41.917 -15.298   2.994  1.00  0.00     0.117 C 
ENDROOT
BRANCH   1   2
HETATM    2  C   UNL     1      42.154 -14.930   1.516  1.00  0.00     0.025 C 
HETATM    3  C   UNL     1      40.869 -14.625   0.757  1.00  0.00     0.007 C 
ENDBRANCH   1   2
BRANCH   1   4
HETATM    4  N   UNL     1      42.337 -14.229   3.892  1.00  0.00    -0.348 N 
HETATM    5  C   UNL     1      41.438 -13.390   4.514  1.00  0.00     0.253 C 
HETATM    6  O   UNL     1      40.225 -13.463   4.365  1.00  0.00    -0.268 OA
HETATM    7  H   UNL     1      43.325 -14.043   3.947  1.00  0.00     0.163 HD
BRANCH   5   8
HETATM    8  C   UNL     1      42.010 -12.330   5.378  1.00  0.00     0.050 A 
HETATM    9  C   UNL     1      41.154 -11.361   5.892  1.00  0.00     0.133 A 
HETATM   10  N   UNL     1      41.559 -10.333   6.682  1.00  0.00    -0.271 NA
HETATM   11  C   UNL     1      42.877 -10.283   6.982  1.00  0.00     0.135 A 
HETATM   12  C   UNL     1      43.801 -11.215   6.532  1.00  0.00     0.029 A 
HETATM   13 BR   UNL     1      45.620 -11.074   7.009  1.00  0.00    -0.050 Br
HETATM   14  C   UNL     1      43.364 -12.259   5.721  1.00  0.00     0.039 A 
ENDBRANCH   5   8
ENDBRANCH   1   4
BRANCH   1  15
HETATM   15  C   UNL     1      42.651 -16.580   3.359  1.00  0.00    -0.035 A 
HETATM   16  C   UNL     1      43.111 -16.768   4.669  1.00  0.00     0.012 A 
HETATM   17  C   UNL     1      43.792 -17.935   5.024  1.00  0.00     0.037 A 
HETATM   18  C   UNL     1      44.040 -18.932   4.079  1.00  0.00     0.068 A 
HETATM   19  C   UNL     1      43.581 -18.759   2.774  1.00  0.00     0.037 A 
HETATM   20  C   UNL     1      42.889 -17.595   2.419  1.00  0.00     0.012 A 
BRANCH  18  21
HETATM   21  O   UNL     1      44.724 -20.016   4.556  1.00  0.00    -0.356 OA
HETATM   22  C   UNL     1      44.007 -20.905   5.401  1.00  0.00     0.210 C 
ENDBRANCH  18  21
ENDBRANCH   1  15
TORSDOF 5
ENDMDL
MODEL 6
REMARK VINA RESULT:      -6.8      4.261      7.359
REMARK  5 active torsions:
REMARK  status: ('A' for Active; 'I' for Inactive)
REMARK    1  A    between atoms: C_2  and  C_3 
REMARK    2  A    between atoms: C_3  and  N_4 
REMARK    3  A    between atoms: C_3  and  C_14 
REMARK       I    between atoms: N_4  and  C_5 
REMARK    4  A    between atoms: C_5  and  C_6 
REMARK    5  A    between atoms: C_17  and  O_18 
ROOT
HETATM    1  C   UNL     1      42.503 -14.746   3.435  1.00  0.00     0.117 C 
ENDROOT
BRANCH   1   2
HETATM    2  C   UNL     1      42.884 -14.248   2.028  1.00  0.00     0.025 C 
HETATM    3  C   UNL     1      41.686 -13.792   1.204  1.00  0.00     0.007 C 
ENDBRANCH   1   2
BRANCH   1   4
HETATM    4  N   UNL     1      42.990 -13.849   4.477  1.00  0.00    -0.348 N 
HETATM    5  C   UNL     1      42.180 -12.919   5.090  1.00  0.00     0.253 C 
HETATM    6  O   UNL     1      40.997 -12.761   4.814  1.00  0.00    -0.268 OA
HETATM    7  H   UNL     1      43.982 -13.849   4.650  1.00  0.00     0.163 HD
BRANCH   5   8
HETATM    8  C   UNL     1      42.818 -12.056   6.112  1.00  0.00     0.050 A 
HETATM    9  C   UNL     1      43.896 -12.565   6.830  1.00  0.00     0.133 A 
HETATM   10  N   UNL     1      44.553 -11.879   7.800  1.00  0.00    -0.271 NA
HETATM   11  C   UNL     1      44.121 -10.622   8.051  1.00  0.00     0.135 A 
HETATM   12  C   UNL     1      43.069 -10.025   7.374  1.00  0.00     0.029 A 
HETATM   13 BR   UNL     1      42.539  -8.261   7.782  1.00  0.00    -0.050 Br
HETATM   14  C   UNL     1      42.407 -10.748   6.385  1.00  0.00     0.039 A 
ENDBRANCH   5   8
ENDBRANCH   1   4
BRANCH   1  15
HETATM   15  C   UNL     1      43.046 -16.146   3.682  1.00  0.00    -0.035 A 
HETATM   16  C   UNL     1      42.974 -17.108   2.666  1.00  0.00     0.012 A 
HETATM   17  C   UNL     1      43.461 -18.401   2.874  1.00  0.00     0.037 A 
HETATM   18  C   UNL     1      44.017 -18.765   4.101  1.00  0.00     0.068 A 
HETATM   19  C   UNL     1      44.100 -17.815   5.117  1.00  0.00     0.037 A 
HETATM   20  C   UNL     1      43.623 -16.515   4.907  1.00  0.00     0.012 A 
BRANCH  18  21
HETATM   21  O   UNL     1      44.446 -20.062   4.174  1.00  0.00    -0.356 OA
HETATM   22  C   UNL     1      44.111 -20.783   5.352  1.00  0.00     0.210 C 
ENDBRANCH  18  21
ENDBRANCH   1  15
TORSDOF 5
ENDMDL
MODEL 7
REMARK VINA RESULT:      -6.7      3.475      7.305
REMARK  5 active torsions:
REMARK  status: ('A' for Active; 'I' for Inactive)
REMARK    1  A    between atoms: C_2  and  C_3 
REMARK    2  A    between atoms: C_3  and  N_4 
REMARK    3  A    between atoms: C_3  and  C_14 
REMARK       I    between atoms: N_4  and  C_5 
REMARK    4  A    between atoms: C_5  and  C_6 
REMARK    5  A    between atoms: C_17  and  O_18 
ROOT
HETATM    1  C   UNL     1      42.258 -15.066   2.180  1.00  0.00     0.117 C 
ENDROOT
BRANCH   1   2
HETATM    2  C   UNL     1      43.379 -16.057   1.815  1.00  0.00     0.025 C 
HETATM    3  C   UNL     1      43.133 -17.466   2.340  1.00  0.00     0.007 C 
ENDBRANCH   1   2
BRANCH   1   4
HETATM    4  N   UNL     1      41.708 -14.410   0.999  1.00  0.00    -0.348 N 
HETATM    5  C   UNL     1      40.511 -14.789   0.433  1.00  0.00     0.253 C 
HETATM    6  O   UNL     1      39.815 -15.701   0.861  1.00  0.00    -0.268 OA
HETATM    7  H   UNL     1      42.301 -13.743   0.532  1.00  0.00     0.163 HD
BRANCH   5   8
HETATM    8  C   UNL     1      40.090 -14.052  -0.782  1.00  0.00     0.050 A 
HETATM    9  C   UNL     1      39.171 -14.653  -1.637  1.00  0.00     0.133 A 
HETATM   10  N   UNL     1      38.720 -14.087  -2.785  1.00  0.00    -0.271 NA
HETATM   11  C   UNL     1      39.200 -12.857  -3.084  1.00  0.00     0.135 A 
HETATM   12  C   UNL     1      40.103 -12.173  -2.283  1.00  0.00     0.029 A 
HETATM   13 BR   UNL     1      40.711 -10.456  -2.770  1.00  0.00    -0.050 Br
HETATM   14  C   UNL     1      40.554 -12.774  -1.111  1.00  0.00     0.039 A 
ENDBRANCH   5   8
ENDBRANCH   1   4
BRANCH   1  15
HETATM   15  C   UNL     1      42.762 -14.010   3.153  1.00  0.00    -0.035 A 
HETATM   16  C   UNL     1      42.787 -14.286   4.527  1.00  0.00     0.012 A 
HETATM   17  C   UNL     1      43.239 -13.328   5.437  1.00  0.00     0.037 A 
HETATM   18  C   UNL     1      43.664 -12.072   5.000  1.00  0.00     0.068 A 
HETATM   19  C   UNL     1      43.650 -11.788   3.636  1.00  0.00     0.037 A 
HETATM   20  C   UNL     1      43.207 -12.750   2.720  1.00  0.00     0.012 A 
BRANCH  18  21
HETATM   21  O   UNL     1      44.073 -11.227   5.995  1.00  0.00    -0.356 OA
HETATM   22  C   UNL     1      45.342 -11.490   6.578  1.00  0.00     0.210 C 
ENDBRANCH  18  21
ENDBRANCH   1  15
TORSDOF 5
ENDMDL
MODEL 8
REMARK VINA RESULT:      -6.6      3.416      7.013
REMARK  5 active torsions:
REMARK  status: ('A' for Active; 'I' for Inactive)
REMARK    1  A    between atoms: C_2  and  C_3 
REMARK    2  A    between atoms: C_3  and  N_4 
REMARK    3  A    between atoms: C_3  and  C_14 
REMARK       I    between atoms: N_4  and  C_5 
REMARK    4  A    between atoms: C_5  and  C_6 
REMARK    5  A    between atoms: C_17  and  O_18 
ROOT
HETATM    1  C   UNL     1      42.501 -14.278   2.961  1.00  0.00     0.117 C 
ENDROOT
BRANCH   1   2
HETATM    2  C   UNL     1      41.939 -13.675   4.262  1.00  0.00     0.025 C 
HETATM    3  C   UNL     1      40.531 -14.158   4.591  1.00  0.00     0.007 C 
ENDBRANCH   1   2
BRANCH   1   4
HETATM    4  N   UNL     1      41.525 -14.237   1.878  1.00  0.00    -0.348 N 
HETATM    5  C   UNL     1      41.231 -13.079   1.193  1.00  0.00     0.253 C 
HETATM    6  O   UNL     1      41.749 -11.996   1.432  1.00  0.00    -0.268 OA
HETATM    7  H   UNL     1      40.977 -15.068   1.728  1.00  0.00     0.163 HD
BRANCH   5   8
HETATM    8  C   UNL     1      40.197 -13.181   0.135  1.00  0.00     0.050 A 
HETATM    9  C   UNL     1      40.044 -14.395  -0.528  1.00  0.00     0.133 A 
HETATM   10  N   UNL     1      39.144 -14.609  -1.522  1.00  0.00    -0.271 NA
HETATM   11  C   UNL     1      38.353 -13.564  -1.858  1.00  0.00     0.135 A 
HETATM   12  C   UNL     1      38.420 -12.324  -1.241  1.00  0.00     0.029 A 
HETATM   13 BR   UNL     1      37.269 -10.925  -1.765  1.00  0.00    -0.050 Br
HETATM   14  C   UNL     1      39.352 -12.127  -0.224  1.00  0.00     0.039 A 
ENDBRANCH   5   8
ENDBRANCH   1   4
BRANCH   1  15
HETATM   15  C   UNL     1      42.951 -15.715   3.179  1.00  0.00    -0.035 A 
HETATM   16  C   UNL     1      42.825 -16.648   2.140  1.00  0.00     0.012 A 
HETATM   17  C   UNL     1      43.226 -17.974   2.322  1.00  0.00     0.037 A 
HETATM   18  C   UNL     1      43.748 -18.401   3.544  1.00  0.00     0.068 A 
HETATM   19  C   UNL     1      43.884 -17.481   4.582  1.00  0.00     0.037 A 
HETATM   20  C   UNL     1      43.493 -16.149   4.400  1.00  0.00     0.012 A 
BRANCH  18  21
HETATM   21  O   UNL     1      44.092 -19.723   3.590  1.00  0.00    -0.356 OA
HETATM   22  C   UNL     1      43.654 -20.537   2.510  1.00  0.00     0.210 C 
ENDBRANCH  18  21
ENDBRANCH   1  15
TORSDOF 5
ENDMDL
MODEL 9
REMARK VINA RESULT:      -6.3      3.846      7.295
REMARK  5 active torsions:
REMARK  status: ('A' for Active; 'I' for Inactive)
REMARK    1  A    between atoms: C_2  and  C_3 
REMARK    2  A    between atoms: C_3  and  N_4 
REMARK    3  A    between atoms: C_3  and  C_14 
REMARK       I    between atoms: N_4  and  C_5 
REMARK    4  A    between atoms: C_5  and  C_6 
REMARK    5  A    between atoms: C_17  and  O_18 
ROOT
HETATM    1  C   UNL     1      41.194 -15.309   2.715  1.00  0.00     0.117 C 
ENDROOT
BRANCH   1   2
HETATM    2  C   UNL     1      41.404 -15.082   1.206  1.00  0.00     0.025 C 
HETATM    3  C   UNL     1      40.103 -15.055   0.413  1.00  0.00     0.007 C 
ENDBRANCH   1   2
BRANCH   1   4
HETATM    4  N   UNL     1      41.403 -14.086   3.481  1.00  0.00    -0.348 N 
HETATM    5  C   UNL     1      40.389 -13.188   3.732  1.00  0.00     0.253 C 
HETATM    6  O   UNL     1      39.240 -13.332   3.335  1.00  0.00    -0.268 OA
HETATM    7  H   UNL     1      42.355 -13.855   3.718  1.00  0.00     0.163 HD
BRANCH   5   8
HETATM    8  C   UNL     1      40.755 -11.974   4.500  1.00  0.00     0.050 A 
HETATM    9  C   UNL     1      41.839 -11.218   4.067  1.00  0.00     0.133 A 
HETATM   10  N   UNL     1      42.280 -10.096   4.692  1.00  0.00    -0.271 NA
HETATM   11  C   UNL     1      41.595  -9.707   5.791  1.00  0.00     0.135 A 
HETATM   12  C   UNL     1      40.491 -10.385   6.286  1.00  0.00     0.029 A 
HETATM   13 BR   UNL     1      39.587  -9.765   7.820  1.00  0.00    -0.050 Br
HETATM   14  C   UNL     1      40.058 -11.535   5.630  1.00  0.00     0.039 A 
ENDBRANCH   5   8
ENDBRANCH   1   4
BRANCH   1  15
HETATM   15  C   UNL     1      42.124 -16.395   3.236  1.00  0.00    -0.035 A 
HETATM   16  C   UNL     1      42.637 -17.353   2.352  1.00  0.00     0.012 A 
HETATM   17  C   UNL     1      43.488 -18.362   2.812  1.00  0.00     0.037 A 
HETATM   18  C   UNL     1      43.834 -18.444   4.161  1.00  0.00     0.068 A 
HETATM   19  C   UNL     1      43.335 -17.493   5.048  1.00  0.00     0.037 A 
HETATM   20  C   UNL     1      42.491 -16.474   4.589  1.00  0.00     0.012 A 
BRANCH  18  21
HETATM   21  O   UNL     1      44.665 -19.483   4.477  1.00  0.00    -0.356 OA
HETATM   22  C   UNL     1      44.106 -20.541   5.244  1.00  0.00     0.210 C 
ENDBRANCH  18  21
ENDBRANCH   1  15
TORSDOF 5
ENDMDL
MODEL 10
REMARK VINA RESULT:      -6.3      3.945      7.094
REMARK  5 active torsions:
REMARK  status: ('A' for Active; 'I' for Inactive)
REMARK    1  A    between atoms: C_2  and  C_3 
REMARK    2  A    between atoms: C_3  and  N_4 
REMARK    3  A    between atoms: C_3  and  C_14 
REMARK       I    between atoms: N_4  and  C_5 
REMARK    4  A    between atoms: C_5  and  C_6 
REMARK    5  A    between atoms: C_17  and  O_18 
ROOT
HETATM    1  C   UNL     1      42.905 -14.577   4.519  1.00  0.00     0.117 C 
ENDROOT
BRANCH   1   2
HETATM    2  C   UNL     1      42.127 -14.552   5.849  1.00  0.00     0.025 C 
HETATM    3  C   UNL     1      40.710 -15.098   5.728  1.00  0.00     0.007 C 
ENDBRANCH   1   2
BRANCH   1   4
HETATM    4  N   UNL     1      42.195 -13.867   3.462  1.00  0.00    -0.348 N 
HETATM    5  C   UNL     1      42.660 -12.688   2.923  1.00  0.00     0.253 C 
HETATM    6  O   UNL     1      43.692 -12.136   3.282  1.00  0.00    -0.268 OA
HETATM    7  H   UNL     1      41.278 -14.207   3.222  1.00  0.00     0.163 HD
BRANCH   5   8
HETATM    8  C   UNL     1      41.819 -12.062   1.875  1.00  0.00     0.050 A 
HETATM    9  C   UNL     1      40.976 -12.879   1.126  1.00  0.00     0.133 A 
HETATM   10  N   UNL     1      40.170 -12.427   0.131  1.00  0.00    -0.271 NA
HETATM   11  C   UNL     1      40.199 -11.098  -0.115  1.00  0.00     0.135 A 
HETATM   12  C   UNL     1      40.991 -10.205   0.591  1.00  0.00     0.029 A 
HETATM   13 BR   UNL     1      40.960  -8.363   0.188  1.00  0.00    -0.050 Br
HETATM   14  C   UNL     1      41.812 -10.690   1.606  1.00  0.00     0.039 A 
ENDBRANCH   5   8
ENDBRANCH   1   4
BRANCH   1  15
HETATM   15  C   UNL     1      43.172 -16.008   4.073  1.00  0.00    -0.035 A 
HETATM   16  C   UNL     1      43.912 -16.866   4.896  1.00  0.00     0.012 A 
HETATM   17  C   UNL     1      44.174 -18.181   4.502  1.00  0.00     0.037 A 
HETATM   18  C   UNL     1      43.714 -18.663   3.275  1.00  0.00     0.068 A 
HETATM   19  C   UNL     1      42.971 -17.821   2.451  1.00  0.00     0.037 A 
HETATM   20  C   UNL     1      42.698 -16.506   2.848  1.00  0.00     0.012 A 
BRANCH  18  21
HETATM   21  O   UNL     1      44.047 -19.962   3.009  1.00  0.00    -0.356 OA
HETATM   22  C   UNL     1      43.624 -20.490   1.759  1.00  0.00     0.210 C 
ENDBRANCH  18  21
ENDBRANCH   1  15
TORSDOF 5
ENDMDL
