MODEL 1
REMARK VINA RESULT:      -8.8      0.000      0.000
REMARK  3 active torsions:
REMARK  status: ('A' for Active; 'I' for Inactive)
REMARK    1  A    between atoms: C_2  and  C_3 
REMARK    2  A    between atoms: C_10  and  O_11 
REMARK    3  A    between atoms: C_10  and  C_12 
ROOT
HETATM    1  C   UNL     1      43.923 -20.067   4.026  1.00  0.00    -0.058 A 
HETATM    2  C   UNL     1      43.769 -18.672   4.046  1.00  0.00     0.020 A 
HETATM    3  C   UNL     1      43.544 -18.043   5.263  1.00  0.00     0.018 A 
HETATM    4  C   UNL     1      43.495 -18.789   6.441  1.00  0.00     0.045 A 
HETATM    5  N   UNL     1      43.280 -17.960   7.531  1.00  0.00    -0.323 N 
HETATM    6  C   UNL     1      43.160 -16.624   7.142  1.00  0.00     0.266 A 
HETATM    7  O   UNL     1      42.984 -15.699   7.921  1.00  0.00    -0.269 OA
HETATM    8  C   UNL     1      43.354 -16.574   5.583  1.00  0.00     0.199 A 
HETATM    9  C   UNL     1      43.645 -20.159   6.458  1.00  0.00     0.031 A 
HETATM   10  C   UNL     1      43.855 -20.799   5.233  1.00  0.00     0.009 A 
HETATM   11  H   UNL     1      43.202 -18.254   8.493  1.00  0.00     0.169 HD
ENDROOT
BRANCH   8  12
HETATM   12  O   UNL     1      44.541 -15.860   5.251  1.00  0.00    -0.371 OA
HETATM   13  H   UNL     1      44.423 -14.958   5.591  1.00  0.00     0.212 HD
ENDBRANCH   8  12
BRANCH   8  14
HETATM   14  C   UNL     1      42.124 -16.129   4.818  1.00  0.00     0.025 A 
HETATM   15  C   UNL     1      42.089 -15.753   3.419  1.00  0.00     0.003 A 
HETATM   16  C   UNL     1      40.769 -15.452   3.089  1.00  0.00     0.043 A 
HETATM   17  C   UNL     1      43.058 -15.656   2.395  1.00  0.00     0.014 A 
HETATM   18  C   UNL     1      40.368 -15.065   1.803  1.00  0.00     0.030 A 
HETATM   19  N   UNL     1      40.024 -15.611   4.228  1.00  0.00    -0.359 N 
HETATM   20  C   UNL     1      41.350 -14.981   0.814  1.00  0.00     0.002 A 
HETATM   21  C   UNL     1      42.678 -15.270   1.103  1.00  0.00     0.001 A 
HETATM   22  H   UNL     1      39.028 -15.450   4.277  1.00  0.00     0.166 HD
HETATM   23  C   UNL     1      40.806 -16.033   5.272  1.00  0.00     0.016 A 
HETATM   24  C   UNL     1      40.190 -16.305   6.600  1.00  0.00     0.069 C 
ENDBRANCH   8  14
BRANCH   1  25
HETATM   25  C   UNL     1      44.125 -20.783   2.712  1.00  0.00     0.034 C 
HETATM   26  C   UNL     1      43.198 -20.247   1.631  1.00  0.00     0.010 C 
ENDBRANCH   1  25
TORSDOF 3
ENDMDL
MODEL 2
REMARK VINA RESULT:      -8.2      2.906      4.156
REMARK  3 active torsions:
REMARK  status: ('A' for Active; 'I' for Inactive)
REMARK    1  A    between atoms: C_2  and  C_3 
REMARK    2  A    between atoms: C_10  and  O_11 
REMARK    3  A    between atoms: C_10  and  C_12 
ROOT
HETATM    1  C   UNL     1      43.547 -18.395   4.205  1.00  0.00    -0.058 A 
HETATM    2  C   UNL     1      42.524 -17.498   4.550  1.00  0.00     0.020 A 
HETATM    3  C   UNL     1      42.047 -16.624   3.583  1.00  0.00     0.018 A 
HETATM    4  C   UNL     1      42.565 -16.658   2.289  1.00  0.00     0.045 A 
HETATM    5  N   UNL     1      41.935 -15.718   1.488  1.00  0.00    -0.323 N 
HETATM    6  C   UNL     1      40.975 -14.999   2.204  1.00  0.00     0.266 A 
HETATM    7  O   UNL     1      40.272 -14.126   1.717  1.00  0.00    -0.269 OA
HETATM    8  C   UNL     1      40.959 -15.572   3.668  1.00  0.00     0.199 A 
HETATM    9  C   UNL     1      43.568 -17.526   1.914  1.00  0.00     0.031 A 
HETATM   10  C   UNL     1      44.064 -18.396   2.889  1.00  0.00     0.009 A 
HETATM   11  H   UNL     1      42.130 -15.541   0.515  1.00  0.00     0.169 HD
ENDROOT
BRANCH   8  12
HETATM   12  O   UNL     1      39.711 -16.202   3.942  1.00  0.00    -0.371 OA
HETATM   13  H   UNL     1      39.460 -16.678   3.134  1.00  0.00     0.212 HD
ENDBRANCH   8  12
BRANCH   8  14
HETATM   14  C   UNL     1      41.404 -14.585   4.727  1.00  0.00     0.025 A 
HETATM   15  C   UNL     1      42.317 -13.479   4.522  1.00  0.00     0.003 A 
HETATM   16  C   UNL     1      42.432 -12.789   5.727  1.00  0.00     0.043 A 
HETATM   17  C   UNL     1      43.047 -12.990   3.414  1.00  0.00     0.014 A 
HETATM   18  C   UNL     1      43.227 -11.646   5.883  1.00  0.00     0.030 A 
HETATM   19  N   UNL     1      41.649 -13.443   6.641  1.00  0.00    -0.359 N 
HETATM   20  C   UNL     1      43.934 -11.187   4.769  1.00  0.00     0.002 A 
HETATM   21  C   UNL     1      43.848 -11.849   3.550  1.00  0.00     0.001 A 
HETATM   22  H   UNL     1      41.552 -13.159   7.606  1.00  0.00     0.166 HD
HETATM   23  C   UNL     1      41.009 -14.510   6.065  1.00  0.00     0.016 A 
HETATM   24  C   UNL     1      40.074 -15.340   6.875  1.00  0.00     0.069 C 
ENDBRANCH   8  14
BRANCH   1  25
HETATM   25  C   UNL     1      44.115 -19.326   5.248  1.00  0.00     0.034 C 
HETATM   26  C   UNL     1      44.055 -20.779   4.799  1.00  0.00     0.010 C 
ENDBRANCH   1  25
TORSDOF 3
ENDMDL
MODEL 3
REMARK VINA RESULT:      -8.1     13.105     14.685
REMARK  3 active torsions:
REMARK  status: ('A' for Active; 'I' for Inactive)
REMARK    1  A    between atoms: C_2  and  C_3 
REMARK    2  A    between atoms: C_10  and  O_11 
REMARK    3  A    between atoms: C_10  and  C_12 
ROOT
HETATM    1  C   UNL     1      50.651 -30.747  -1.322  1.00  0.00    -0.058 A 
HETATM    2  C   UNL     1      49.475 -29.980  -1.352  1.00  0.00     0.020 A 
HETATM    3  C   UNL     1      48.915 -29.571  -0.150  1.00  0.00     0.018 A 
HETATM    4  C   UNL     1      49.526 -29.901   1.059  1.00  0.00     0.045 A 
HETATM    5  N   UNL     1      48.810 -29.378   2.124  1.00  0.00    -0.323 N 
HETATM    6  C   UNL     1      47.679 -28.683   1.688  1.00  0.00     0.266 A 
HETATM    7  O   UNL     1      46.896 -28.116   2.435  1.00  0.00    -0.269 OA
HETATM    8  C   UNL     1      47.676 -28.739   0.117  1.00  0.00     0.199 A 
HETATM    9  C   UNL     1      50.681 -30.651   1.125  1.00  0.00     0.031 A 
HETATM   10  C   UNL     1      51.240 -31.080  -0.082  1.00  0.00     0.009 A 
HETATM   11  H   UNL     1      49.041 -29.478   3.101  1.00  0.00     0.169 HD
ENDROOT
BRANCH   8  12
HETATM   12  O   UNL     1      47.854 -27.435  -0.427  1.00  0.00    -0.371 OA
HETATM   13  H   UNL     1      47.669 -27.506  -1.378  1.00  0.00     0.212 HD
ENDBRANCH   8  12
BRANCH   8  14
HETATM   14  C   UNL     1      46.513 -29.508  -0.475  1.00  0.00     0.025 A 
HETATM   15  C   UNL     1      45.828 -29.186  -1.711  1.00  0.00     0.003 A 
HETATM   16  C   UNL     1      44.851 -30.156  -1.925  1.00  0.00     0.043 A 
HETATM   17  C   UNL     1      45.958 -28.164  -2.678  1.00  0.00     0.014 A 
HETATM   18  C   UNL     1      44.008 -30.163  -3.044  1.00  0.00     0.030 A 
HETATM   19  N   UNL     1      44.910 -31.026  -0.868  1.00  0.00    -0.359 N 
HETATM   20  C   UNL     1      44.164 -29.140  -3.982  1.00  0.00     0.002 A 
HETATM   21  C   UNL     1      45.125 -28.152  -3.803  1.00  0.00     0.001 A 
HETATM   22  H   UNL     1      44.304 -31.828  -0.763  1.00  0.00     0.166 HD
HETATM   23  C   UNL     1      45.907 -30.672   0.004  1.00  0.00     0.016 A 
HETATM   24  C   UNL     1      46.171 -31.507   1.209  1.00  0.00     0.069 C 
ENDBRANCH   8  14
BRANCH   1  25
HETATM   25  C   UNL     1      51.258 -31.243  -2.612  1.00  0.00     0.034 C 
HETATM   26  C   UNL     1      52.653 -31.810  -2.396  1.00  0.00     0.010 C 
ENDBRANCH   1  25
TORSDOF 3
ENDMDL
MODEL 4
REMARK VINA RESULT:      -8.0      3.586      5.625
REMARK  3 active torsions:
REMARK  status: ('A' for Active; 'I' for Inactive)
REMARK    1  A    between atoms: C_2  and  C_3 
REMARK    2  A    between atoms: C_10  and  O_11 
REMARK    3  A    between atoms: C_10  and  C_12 
ROOT
HETATM    1  C   UNL     1      42.016 -16.812   3.005  1.00  0.00    -0.058 A 
HETATM    2  C   UNL     1      41.888 -15.681   3.826  1.00  0.00     0.020 A 
HETATM    3  C   UNL     1      40.913 -14.742   3.521  1.00  0.00     0.018 A 
HETATM    4  C   UNL     1      40.067 -14.936   2.430  1.00  0.00     0.045 A 
HETATM    5  N   UNL     1      39.164 -13.890   2.324  1.00  0.00    -0.323 N 
HETATM    6  C   UNL     1      39.365 -12.937   3.325  1.00  0.00     0.266 A 
HETATM    7  O   UNL     1      38.685 -11.930   3.456  1.00  0.00    -0.269 OA
HETATM    8  C   UNL     1      40.546 -13.451   4.227  1.00  0.00     0.199 A 
HETATM    9  C   UNL     1      40.163 -16.035   1.603  1.00  0.00     0.031 A 
HETATM   10  C   UNL     1      41.155 -16.976   1.896  1.00  0.00     0.009 A 
HETATM   11  H   UNL     1      38.450 -13.792   1.618  1.00  0.00     0.169 HD
ENDROOT
BRANCH   8  12
HETATM   12  O   UNL     1      40.078 -13.745   5.539  1.00  0.00    -0.371 OA
HETATM   13  H   UNL     1      39.668 -12.931   5.874  1.00  0.00     0.212 HD
ENDBRANCH   8  12
BRANCH   8  14
HETATM   14  C   UNL     1      41.784 -12.578   4.187  1.00  0.00     0.025 A 
HETATM   15  C   UNL     1      42.773 -12.465   5.239  1.00  0.00     0.003 A 
HETATM   16  C   UNL     1      43.771 -11.600   4.798  1.00  0.00     0.043 A 
HETATM   17  C   UNL     1      42.919 -13.032   6.526  1.00  0.00     0.014 A 
HETATM   18  C   UNL     1      44.900 -11.276   5.563  1.00  0.00     0.030 A 
HETATM   19  N   UNL     1      43.414 -11.180   3.544  1.00  0.00    -0.359 N 
HETATM   20  C   UNL     1      45.016 -11.855   6.829  1.00  0.00     0.002 A 
HETATM   21  C   UNL     1      44.039 -12.721   7.307  1.00  0.00     0.001 A 
HETATM   22  H   UNL     1      43.959 -10.536   2.988  1.00  0.00     0.166 HD
HETATM   23  C   UNL     1      42.238 -11.764   3.146  1.00  0.00     0.016 A 
HETATM   24  C   UNL     1      41.684 -11.473   1.795  1.00  0.00     0.069 C 
ENDBRANCH   8  14
BRANCH   1  25
HETATM   25  C   UNL     1      43.096 -17.828   3.286  1.00  0.00     0.034 C 
HETATM   26  C   UNL     1      43.130 -18.922   2.229  1.00  0.00     0.010 C 
ENDBRANCH   1  25
TORSDOF 3
ENDMDL
MODEL 5
REMARK VINA RESULT:      -8.0      2.632      3.294
REMARK  3 active torsions:
REMARK  status: ('A' for Active; 'I' for Inactive)
REMARK    1  A    between atoms: C_2  and  C_3 
REMARK    2  A    between atoms: C_10  and  O_11 
REMARK    3  A    between atoms: C_10  and  C_12 
ROOT
HETATM    1  C   UNL     1      43.102 -17.199   3.356  1.00  0.00    -0.058 A 
HETATM    2  C   UNL     1      42.848 -15.830   3.184  1.00  0.00     0.020 A 
HETATM    3  C   UNL     1      43.054 -14.973   4.257  1.00  0.00     0.018 A 
HETATM    4  C   UNL     1      43.525 -15.469   5.472  1.00  0.00     0.045 A 
HETATM    5  N   UNL     1      43.674 -14.441   6.391  1.00  0.00    -0.323 N 
HETATM    6  C   UNL     1      43.300 -13.211   5.847  1.00  0.00     0.266 A 
HETATM    7  O   UNL     1      43.357 -12.151   6.452  1.00  0.00    -0.269 OA
HETATM    8  C   UNL     1      42.875 -13.471   4.355  1.00  0.00     0.199 A 
HETATM    9  C   UNL     1      43.787 -16.807   5.675  1.00  0.00     0.031 A 
HETATM   10  C   UNL     1      43.565 -17.676   4.604  1.00  0.00     0.009 A 
HETATM   11  H   UNL     1      43.996 -14.538   7.342  1.00  0.00     0.169 HD
ENDROOT
BRANCH   8  12
HETATM   12  O   UNL     1      43.778 -12.827   3.462  1.00  0.00    -0.371 OA
HETATM   13  H   UNL     1      44.465 -12.417   4.013  1.00  0.00     0.212 HD
ENDBRANCH   8  12
BRANCH   8  14
HETATM   14  C   UNL     1      41.413 -13.197   4.069  1.00  0.00     0.025 A 
HETATM   15  C   UNL     1      40.881 -12.650   2.838  1.00  0.00     0.003 A 
HETATM   16  C   UNL     1      39.494 -12.595   2.957  1.00  0.00     0.043 A 
HETATM   17  C   UNL     1      41.452 -12.208   1.622  1.00  0.00     0.014 A 
HETATM   18  C   UNL     1      38.653 -12.130   1.937  1.00  0.00     0.030 A 
HETATM   19  N   UNL     1      39.179 -13.064   4.205  1.00  0.00    -0.359 N 
HETATM   20  C   UNL     1      39.248 -11.703   0.747  1.00  0.00     0.002 A 
HETATM   21  C   UNL     1      40.629 -11.739   0.590  1.00  0.00     0.001 A 
HETATM   22  H   UNL     1      38.236 -13.128   4.562  1.00  0.00     0.166 HD
HETATM   23  C   UNL     1      40.306 -13.449   4.884  1.00  0.00     0.016 A 
HETATM   24  C   UNL     1      40.189 -14.026   6.252  1.00  0.00     0.069 C 
ENDBRANCH   8  14
BRANCH   1  25
HETATM   25  C   UNL     1      42.846 -18.160   2.221  1.00  0.00     0.034 C 
HETATM   26  C   UNL     1      43.563 -19.485   2.431  1.00  0.00     0.010 C 
ENDBRANCH   1  25
TORSDOF 3
ENDMDL
MODEL 6
REMARK VINA RESULT:      -7.5      3.741      6.651
REMARK  3 active torsions:
REMARK  status: ('A' for Active; 'I' for Inactive)
REMARK    1  A    between atoms: C_2  and  C_3 
REMARK    2  A    between atoms: C_10  and  O_11 
REMARK    3  A    between atoms: C_10  and  C_12 
ROOT
HETATM    1  C   UNL     1      44.410 -11.400   6.094  1.00  0.00    -0.058 A 
HETATM    2  C   UNL     1      44.152 -12.252   5.009  1.00  0.00     0.020 A 
HETATM    3  C   UNL     1      42.832 -12.533   4.681  1.00  0.00     0.018 A 
HETATM    4  C   UNL     1      41.790 -11.958   5.407  1.00  0.00     0.045 A 
HETATM    5  N   UNL     1      40.565 -12.358   4.897  1.00  0.00    -0.323 N 
HETATM    6  C   UNL     1      40.721 -13.230   3.817  1.00  0.00     0.266 A 
HETATM    7  O   UNL     1      39.790 -13.708   3.186  1.00  0.00    -0.269 OA
HETATM    8  C   UNL     1      42.264 -13.395   3.571  1.00  0.00     0.199 A 
HETATM    9  C   UNL     1      42.008 -11.116   6.476  1.00  0.00     0.031 A 
HETATM   10  C   UNL     1      43.334 -10.844   6.822  1.00  0.00     0.009 A 
HETATM   11  H   UNL     1      39.659 -12.086   5.247  1.00  0.00     0.169 HD
ENDROOT
BRANCH   8  12
HETATM   12  O   UNL     1      42.629 -12.844   2.309  1.00  0.00    -0.371 OA
HETATM   13  H   UNL     1      43.307 -13.432   1.938  1.00  0.00     0.212 HD
ENDBRANCH   8  12
BRANCH   8  14
HETATM   14  C   UNL     1      42.786 -14.797   3.813  1.00  0.00     0.025 A 
HETATM   15  C   UNL     1      42.881 -15.452   5.101  1.00  0.00     0.003 A 
HETATM   16  C   UNL     1      43.367 -16.741   4.892  1.00  0.00     0.043 A 
HETATM   17  C   UNL     1      42.583 -15.073   6.430  1.00  0.00     0.014 A 
HETATM   18  C   UNL     1      43.567 -17.664   5.927  1.00  0.00     0.030 A 
HETATM   19  N   UNL     1      43.583 -16.875   3.546  1.00  0.00    -0.359 N 
HETATM   20  C   UNL     1      43.261 -17.259   7.228  1.00  0.00     0.002 A 
HETATM   21  C   UNL     1      42.777 -15.980   7.479  1.00  0.00     0.001 A 
HETATM   22  H   UNL     1      43.944 -17.714   3.113  1.00  0.00     0.166 HD
HETATM   23  C   UNL     1      43.227 -15.733   2.875  1.00  0.00     0.016 A 
HETATM   24  C   UNL     1      43.346 -15.675   1.392  1.00  0.00     0.069 C 
ENDBRANCH   8  14
BRANCH   1  25
HETATM   25  C   UNL     1      45.835 -11.113   6.502  1.00  0.00     0.034 C 
HETATM   26  C   UNL     1      45.900 -10.270   7.766  1.00  0.00     0.010 C 
ENDBRANCH   1  25
TORSDOF 3
ENDMDL
MODEL 7
REMARK VINA RESULT:      -7.4     12.783     14.406
REMARK  3 active torsions:
REMARK  status: ('A' for Active; 'I' for Inactive)
REMARK    1  A    between atoms: C_2  and  C_3 
REMARK    2  A    between atoms: C_10  and  O_11 
REMARK    3  A    between atoms: C_10  and  C_12 
ROOT
HETATM    1  C   UNL     1      47.791 -30.059   1.573  1.00  0.00    -0.058 A 
HETATM    2  C   UNL     1      46.848 -29.734   0.585  1.00  0.00     0.020 A 
HETATM    3  C   UNL     1      45.519 -29.582   0.955  1.00  0.00     0.018 A 
HETATM    4  C   UNL     1      45.139 -29.730   2.289  1.00  0.00     0.045 A 
HETATM    5  N   UNL     1      43.777 -29.518   2.433  1.00  0.00    -0.323 N 
HETATM    6  C   UNL     1      43.172 -29.232   1.207  1.00  0.00     0.266 A 
HETATM    7  O   UNL     1      41.981 -28.991   1.073  1.00  0.00    -0.269 OA
HETATM    8  C   UNL     1      44.306 -29.229   0.117  1.00  0.00     0.199 A 
HETATM    9  C   UNL     1      46.038 -30.047   3.284  1.00  0.00     0.031 A 
HETATM   10  C   UNL     1      47.375 -30.217   2.914  1.00  0.00     0.009 A 
HETATM   11  H   UNL     1      43.256 -29.570   3.295  1.00  0.00     0.169 HD
ENDROOT
BRANCH   8  12
HETATM   12  O   UNL     1      44.470 -27.923  -0.426  1.00  0.00    -0.371 OA
HETATM   13  H   UNL     1      45.101 -28.007  -1.159  1.00  0.00     0.212 HD
ENDBRANCH   8  12
BRANCH   8  14
HETATM   14  C   UNL     1      44.173 -30.324  -0.921  1.00  0.00     0.025 A 
HETATM   15  C   UNL     1      44.353 -30.161  -2.349  1.00  0.00     0.003 A 
HETATM   16  C   UNL     1      44.189 -31.408  -2.947  1.00  0.00     0.043 A 
HETATM   17  C   UNL     1      44.656 -29.066  -3.191  1.00  0.00     0.014 A 
HETATM   18  C   UNL     1      44.313 -31.621  -4.327  1.00  0.00     0.030 A 
HETATM   19  N   UNL     1      43.901 -32.299  -1.947  1.00  0.00    -0.359 N 
HETATM   20  C   UNL     1      44.616 -30.519  -5.130  1.00  0.00     0.002 A 
HETATM   21  C   UNL     1      44.784 -29.257  -4.572  1.00  0.00     0.001 A 
HETATM   22  H   UNL     1      43.727 -33.282  -2.100  1.00  0.00     0.166 HD
HETATM   23  C   UNL     1      43.904 -31.681  -0.723  1.00  0.00     0.016 A 
HETATM   24  C   UNL     1      43.650 -32.474   0.511  1.00  0.00     0.069 C 
ENDBRANCH   8  14
BRANCH   1  25
HETATM   25  C   UNL     1      49.235 -30.273   1.192  1.00  0.00     0.034 C 
HETATM   26  C   UNL     1      50.159 -30.151   2.395  1.00  0.00     0.010 C 
ENDBRANCH   1  25
TORSDOF 3
ENDMDL
MODEL 8
REMARK VINA RESULT:      -7.4      3.061      4.922
REMARK  3 active torsions:
REMARK  status: ('A' for Active; 'I' for Inactive)
REMARK    1  A    between atoms: C_2  and  C_3 
REMARK    2  A    between atoms: C_10  and  O_11 
REMARK    3  A    between atoms: C_10  and  C_12 
ROOT
HETATM    1  C   UNL     1      43.529 -17.067   6.097  1.00  0.00    -0.058 A 
HETATM    2  C   UNL     1      42.509 -16.223   5.632  1.00  0.00     0.020 A 
HETATM    3  C   UNL     1      42.117 -16.317   4.304  1.00  0.00     0.018 A 
HETATM    4  C   UNL     1      42.716 -17.251   3.460  1.00  0.00     0.045 A 
HETATM    5  N   UNL     1      42.161 -17.185   2.191  1.00  0.00    -0.323 N 
HETATM    6  C   UNL     1      41.175 -16.198   2.115  1.00  0.00     0.266 A 
HETATM    7  O   UNL     1      40.527 -15.956   1.108  1.00  0.00    -0.269 OA
HETATM    8  C   UNL     1      41.052 -15.553   3.543  1.00  0.00     0.199 A 
HETATM    9  C   UNL     1      43.719 -18.097   3.882  1.00  0.00     0.031 A 
HETATM   10  C   UNL     1      44.129 -17.994   5.214  1.00  0.00     0.009 A 
HETATM   11  H   UNL     1      42.422 -17.752   1.399  1.00  0.00     0.169 HD
ENDROOT
BRANCH   8  12
HETATM   12  O   UNL     1      39.774 -15.832   4.107  1.00  0.00    -0.371 OA
HETATM   13  H   UNL     1      39.373 -14.973   4.317  1.00  0.00     0.212 HD
ENDBRANCH   8  12
BRANCH   8  14
HETATM   14  C   UNL     1      41.454 -14.093   3.603  1.00  0.00     0.025 A 
HETATM   15  C   UNL     1      40.829 -13.077   4.425  1.00  0.00     0.003 A 
HETATM   16  C   UNL     1      41.516 -11.881   4.225  1.00  0.00     0.043 A 
HETATM   17  C   UNL     1      39.748 -13.067   5.336  1.00  0.00     0.014 A 
HETATM   18  C   UNL     1      41.187 -10.688   4.882  1.00  0.00     0.030 A 
HETATM   19  N   UNL     1      42.504 -12.134   3.311  1.00  0.00    -0.359 N 
HETATM   20  C   UNL     1      40.115 -10.712   5.777  1.00  0.00     0.002 A 
HETATM   21  C   UNL     1      39.402 -11.884   6.001  1.00  0.00     0.001 A 
HETATM   22  H   UNL     1      43.153 -11.436   2.975  1.00  0.00     0.166 HD
HETATM   23  C   UNL     1      42.501 -13.453   2.936  1.00  0.00     0.016 A 
HETATM   24  C   UNL     1      43.521 -13.953   1.973  1.00  0.00     0.069 C 
ENDBRANCH   8  14
BRANCH   1  25
HETATM   25  C   UNL     1      44.006 -16.956   7.524  1.00  0.00     0.034 C 
HETATM   26  C   UNL     1      43.304 -15.829   8.267  1.00  0.00     0.010 C 
ENDBRANCH   1  25
TORSDOF 3
ENDMDL
MODEL 9
REMARK VINA RESULT:      -7.4      3.857      5.816
REMARK  3 active torsions:
REMARK  status: ('A' for Active; 'I' for Inactive)
REMARK    1  A    between atoms: C_2  and  C_3 
REMARK    2  A    between atoms: C_10  and  O_11 
REMARK    3  A    between atoms: C_10  and  C_12 
ROOT
HETATM    1  C   UNL     1      42.903 -16.601   3.912  1.00  0.00    -0.058 A 
HETATM    2  C   UNL     1      41.995 -15.547   4.101  1.00  0.00     0.020 A 
HETATM    3  C   UNL     1      41.666 -14.748   3.015  1.00  0.00     0.018 A 
HETATM    4  C   UNL     1      42.215 -15.007   1.760  1.00  0.00     0.045 A 
HETATM    5  N   UNL     1      41.737 -14.103   0.824  1.00  0.00    -0.323 N 
HETATM    6  C   UNL     1      40.857 -13.185   1.404  1.00  0.00     0.266 A 
HETATM    7  O   UNL     1      40.290 -12.298   0.783  1.00  0.00    -0.269 OA
HETATM    8  C   UNL     1      40.722 -13.565   2.923  1.00  0.00     0.199 A 
HETATM    9  C   UNL     1      43.107 -16.034   1.538  1.00  0.00     0.031 A 
HETATM   10  C   UNL     1      43.455 -16.832   2.632  1.00  0.00     0.009 A 
HETATM   11  H   UNL     1      41.983 -14.074  -0.154  1.00  0.00     0.169 HD
ENDROOT
BRANCH   8  12
HETATM   12  O   UNL     1      39.395 -13.995   3.212  1.00  0.00    -0.371 OA
HETATM   13  H   UNL     1      39.125 -13.528   4.020  1.00  0.00     0.212 HD
ENDBRANCH   8  12
BRANCH   8  14
HETATM   14  C   UNL     1      41.260 -12.518   3.876  1.00  0.00     0.025 A 
HETATM   15  C   UNL     1      40.510 -11.873   4.935  1.00  0.00     0.003 A 
HETATM   16  C   UNL     1      41.373 -11.010   5.607  1.00  0.00     0.043 A 
HETATM   17  C   UNL     1      39.176 -11.956   5.395  1.00  0.00     0.014 A 
HETATM   18  C   UNL     1      40.980 -10.234   6.706  1.00  0.00     0.030 A 
HETATM   19  N   UNL     1      42.592 -11.096   4.987  1.00  0.00    -0.359 N 
HETATM   20  C   UNL     1      39.656 -10.341   7.137  1.00  0.00     0.002 A 
HETATM   21  C   UNL     1      38.763 -11.188   6.491  1.00  0.00     0.001 A 
HETATM   22  H   UNL     1      43.405 -10.567   5.268  1.00  0.00     0.166 HD
HETATM   23  C   UNL     1      42.557 -12.005   3.960  1.00  0.00     0.016 A 
HETATM   24  C   UNL     1      43.790 -12.282   3.173  1.00  0.00     0.069 C 
ENDBRANCH   8  14
BRANCH   1  25
HETATM   25  C   UNL     1      43.313 -17.459   5.085  1.00  0.00     0.034 C 
HETATM   26  C   UNL     1      44.167 -18.640   4.647  1.00  0.00     0.010 C 
ENDBRANCH   1  25
TORSDOF 3
ENDMDL
MODEL 10
REMARK VINA RESULT:      -7.2      3.421      5.807
REMARK  3 active torsions:
REMARK  status: ('A' for Active; 'I' for Inactive)
REMARK    1  A    between atoms: C_2  and  C_3 
REMARK    2  A    between atoms: C_10  and  O_11 
REMARK    3  A    between atoms: C_10  and  C_12 
ROOT
HETATM    1  C   UNL     1      40.999 -13.729   1.509  1.00  0.00    -0.058 A 
HETATM    2  C   UNL     1      41.775 -13.614   2.673  1.00  0.00     0.020 A 
HETATM    3  C   UNL     1      41.498 -14.451   3.746  1.00  0.00     0.018 A 
HETATM    4  C   UNL     1      40.480 -15.400   3.652  1.00  0.00     0.045 A 
HETATM    5  N   UNL     1      40.391 -16.134   4.824  1.00  0.00    -0.323 N 
HETATM    6  C   UNL     1      41.331 -15.709   5.766  1.00  0.00     0.266 A 
HETATM    7  O   UNL     1      41.463 -16.211   6.873  1.00  0.00    -0.269 OA
HETATM    8  C   UNL     1      42.167 -14.556   5.101  1.00  0.00     0.199 A 
HETATM    9  C   UNL     1      39.701 -15.542   2.524  1.00  0.00     0.031 A 
HETATM   10  C   UNL     1      39.964 -14.690   1.448  1.00  0.00     0.009 A 
HETATM   11  H   UNL     1      39.735 -16.877   5.010  1.00  0.00     0.169 HD
ENDROOT
BRANCH   8  12
HETATM   12  O   UNL     1      43.522 -14.960   4.931  1.00  0.00    -0.371 OA
HETATM   13  H   UNL     1      43.645 -15.752   5.479  1.00  0.00     0.212 HD
ENDBRANCH   8  12
BRANCH   8  14
HETATM   14  C   UNL     1      41.999 -13.204   5.764  1.00  0.00     0.025 A 
HETATM   15  C   UNL     1      43.062 -12.405   6.338  1.00  0.00     0.003 A 
HETATM   16  C   UNL     1      42.502 -11.218   6.805  1.00  0.00     0.043 A 
HETATM   17  C   UNL     1      44.456 -12.577   6.492  1.00  0.00     0.014 A 
HETATM   18  C   UNL     1      43.253 -10.200   7.408  1.00  0.00     0.030 A 
HETATM   19  N   UNL     1      41.156 -11.281   6.553  1.00  0.00    -0.359 N 
HETATM   20  C   UNL     1      44.628 -10.399   7.543  1.00  0.00     0.002 A 
HETATM   21  C   UNL     1      45.225 -11.572   7.094  1.00  0.00     0.001 A 
HETATM   22  H   UNL     1      40.502 -10.551   6.796  1.00  0.00     0.166 HD
HETATM   23  C   UNL     1      40.831 -12.451   5.914  1.00  0.00     0.016 A 
HETATM   24  C   UNL     1      39.421 -12.710   5.512  1.00  0.00     0.069 C 
ENDBRANCH   8  14
BRANCH   1  25
HETATM   25  C   UNL     1      41.249 -12.802   0.344  1.00  0.00     0.034 C 
HETATM   26  C   UNL     1      40.332 -13.113  -0.829  1.00  0.00     0.010 C 
ENDBRANCH   1  25
TORSDOF 3
ENDMDL
