MODEL 1
REMARK VINA RESULT:      -7.7      0.000      0.000
REMARK  5 active torsions:
REMARK  status: ('A' for Active; 'I' for Inactive)
REMARK    1  A    between atoms: C_2  and  O_3 
REMARK    2  A    between atoms: O_3  and  C_4 
REMARK    3  A    between atoms: C_5  and  N_6 
REMARK       I    between atoms: N_6  and  C_7 
REMARK       I    between atoms: C_7  and  N_8 
REMARK    4  A    between atoms: N_8  and  C_9 
REMARK    5  A    between atoms: C_9  and  C_10 
ROOT
HETATM    1  N   UNL     1      42.223 -16.611   2.022  1.00  0.00    -0.306 N 
HETATM    2  C   UNL     1      42.830 -15.501   1.502  1.00  0.00     0.321 C 
HETATM    3  N   UNL     1      41.981 -14.648   0.847  1.00  0.00    -0.337 N 
HETATM    4  O   UNL     1      44.024 -15.229   1.534  1.00  0.00    -0.247 OA
HETATM    5  H   UNL     1      41.487 -16.952   1.405  1.00  0.00     0.171 HD
HETATM    6  H   UNL     1      42.500 -13.848   0.509  1.00  0.00     0.164 HD
ENDROOT
BRANCH   1   7
HETATM    7  C   UNL     1      42.857 -17.558   2.851  1.00  0.00     0.069 A 
HETATM    8  C   UNL     1      43.169 -17.337   4.201  1.00  0.00     0.096 A 
HETATM    9  C   UNL     1      43.879 -18.303   4.921  1.00  0.00     0.039 A 
HETATM   10  C   UNL     1      44.213 -19.520   4.329  1.00  0.00     0.003 A 
HETATM   11  C   UNL     1      43.836 -19.776   3.014  1.00  0.00     0.002 A 
HETATM   12  C   UNL     1      43.154 -18.803   2.280  1.00  0.00     0.032 A 
BRANCH   8  13
HETATM   13  O   UNL     1      42.806 -16.222   4.912  1.00  0.00    -0.344 OA
BRANCH  13  14
HETATM   14  C   UNL     1      41.992 -16.510   6.060  1.00  0.00     0.121 C 
HETATM   15  C   UNL     1      40.555 -16.163   5.683  1.00  0.00     0.040 C 
HETATM   16  C   UNL     1      42.438 -15.669   7.254  1.00  0.00     0.040 C 
ENDBRANCH  13  14
ENDBRANCH   8  13
ENDBRANCH   1   7
BRANCH   3  17
HETATM   17  C   UNL     1      40.602 -14.407   1.235  1.00  0.00     0.183 C 
BRANCH  17  18
HETATM   18  C   UNL     1      39.687 -13.822   0.169  1.00  0.00     0.053 A 
HETATM   19  N   UNL     1      39.187 -12.566   0.332  1.00  0.00    -0.264 NA
HETATM   20  C   UNL     1      38.433 -12.050  -0.666  1.00  0.00     0.118 A 
HETATM   21  C   UNL     1      38.165 -12.713  -1.846  1.00  0.00     0.043 A 
HETATM   22  C   UNL     1      38.698 -13.983  -2.001  1.00  0.00     0.037 A 
HETATM   23 CL   UNL     1      38.417 -14.857  -3.456  1.00  0.00    -0.084 Cl
HETATM   24  C   UNL     1      39.469 -14.553  -0.994  1.00  0.00     0.052 A 
ENDBRANCH  17  18
ENDBRANCH   3  17
TORSDOF 5
ENDMDL
MODEL 2
REMARK VINA RESULT:      -7.6      4.975      7.354
REMARK  5 active torsions:
REMARK  status: ('A' for Active; 'I' for Inactive)
REMARK    1  A    between atoms: C_2  and  O_3 
REMARK    2  A    between atoms: O_3  and  C_4 
REMARK    3  A    between atoms: C_5  and  N_6 
REMARK       I    between atoms: N_6  and  C_7 
REMARK       I    between atoms: C_7  and  N_8 
REMARK    4  A    between atoms: N_8  and  C_9 
REMARK    5  A    between atoms: C_9  and  C_10 
ROOT
HETATM    1  N   UNL     1      43.501 -15.361   5.512  1.00  0.00    -0.306 N 
HETATM    2  C   UNL     1      42.634 -15.247   6.563  1.00  0.00     0.321 C 
HETATM    3  N   UNL     1      42.672 -14.034   7.198  1.00  0.00    -0.337 N 
HETATM    4  O   UNL     1      41.882 -16.111   6.997  1.00  0.00    -0.247 OA
HETATM    5  H   UNL     1      44.380 -14.882   5.705  1.00  0.00     0.171 HD
HETATM    6  H   UNL     1      41.994 -14.023   7.948  1.00  0.00     0.164 HD
ENDROOT
BRANCH   1   7
HETATM    7  C   UNL     1      43.547 -16.455   4.624  1.00  0.00     0.069 A 
HETATM    8  C   UNL     1      42.874 -16.497   3.394  1.00  0.00     0.096 A 
HETATM    9  C   UNL     1      42.906 -17.661   2.620  1.00  0.00     0.039 A 
HETATM   10  C   UNL     1      43.669 -18.757   3.024  1.00  0.00     0.003 A 
HETATM   11  C   UNL     1      44.403 -18.690   4.205  1.00  0.00     0.002 A 
HETATM   12  C   UNL     1      44.349 -17.541   4.998  1.00  0.00     0.032 A 
BRANCH   8  13
HETATM   13  O   UNL     1      42.175 -15.449   2.852  1.00  0.00    -0.344 OA
BRANCH  13  14
HETATM   14  C   UNL     1      40.788 -15.428   3.225  1.00  0.00     0.121 C 
HETATM   15  C   UNL     1      39.982 -15.641   1.947  1.00  0.00     0.040 C 
HETATM   16  C   UNL     1      40.426 -14.084   3.854  1.00  0.00     0.040 C 
ENDBRANCH  13  14
ENDBRANCH   8  13
ENDBRANCH   1   7
BRANCH   3  17
HETATM   17  C   UNL     1      42.918 -12.767   6.530  1.00  0.00     0.183 C 
BRANCH  17  18
HETATM   18  C   UNL     1      44.097 -11.949   7.036  1.00  0.00     0.053 A 
HETATM   19  N   UNL     1      45.212 -11.834   6.264  1.00  0.00    -0.264 NA
HETATM   20  C   UNL     1      46.215 -11.043   6.713  1.00  0.00     0.118 A 
HETATM   21  C   UNL     1      46.160 -10.330   7.892  1.00  0.00     0.043 A 
HETATM   22  C   UNL     1      45.008 -10.446   8.655  1.00  0.00     0.037 A 
HETATM   23 CL   UNL     1      44.868  -9.569  10.129  1.00  0.00    -0.084 Cl
HETATM   24  C   UNL     1      43.960 -11.256   8.235  1.00  0.00     0.052 A 
ENDBRANCH  17  18
ENDBRANCH   3  17
TORSDOF 5
ENDMDL
MODEL 3
REMARK VINA RESULT:      -7.4      5.060      7.287
REMARK  5 active torsions:
REMARK  status: ('A' for Active; 'I' for Inactive)
REMARK    1  A    between atoms: C_2  and  O_3 
REMARK    2  A    between atoms: O_3  and  C_4 
REMARK    3  A    between atoms: C_5  and  N_6 
REMARK       I    between atoms: N_6  and  C_7 
REMARK       I    between atoms: C_7  and  N_8 
REMARK    4  A    between atoms: N_8  and  C_9 
REMARK    5  A    between atoms: C_9  and  C_10 
ROOT
HETATM    1  N   UNL     1      42.628 -13.784   4.900  1.00  0.00    -0.306 N 
HETATM    2  C   UNL     1      41.462 -13.607   5.592  1.00  0.00     0.321 C 
HETATM    3  N   UNL     1      41.467 -12.533   6.442  1.00  0.00    -0.337 N 
HETATM    4  O   UNL     1      40.464 -14.317   5.552  1.00  0.00    -0.247 OA
HETATM    5  H   UNL     1      43.437 -13.557   5.476  1.00  0.00     0.171 HD
HETATM    6  H   UNL     1      40.568 -12.460   6.901  1.00  0.00     0.164 HD
ENDROOT
BRANCH   1   7
HETATM    7  C   UNL     1      42.815 -14.729   3.872  1.00  0.00     0.069 A 
HETATM    8  C   UNL     1      42.890 -16.114   4.082  1.00  0.00     0.096 A 
HETATM    9  C   UNL     1      43.167 -16.970   3.011  1.00  0.00     0.039 A 
HETATM   10  C   UNL     1      43.291 -16.463   1.718  1.00  0.00     0.003 A 
HETATM   11  C   UNL     1      43.138 -15.098   1.492  1.00  0.00     0.002 A 
HETATM   12  C   UNL     1      42.893 -14.236   2.563  1.00  0.00     0.032 A 
BRANCH   8  13
HETATM   13  O   UNL     1      42.688 -16.731   5.290  1.00  0.00    -0.344 OA
BRANCH  13  14
HETATM   14  C   UNL     1      43.864 -17.370   5.814  1.00  0.00     0.121 C 
HETATM   15  C   UNL     1      43.442 -18.762   6.277  1.00  0.00     0.040 C 
HETATM   16  C   UNL     1      44.424 -16.574   6.991  1.00  0.00     0.040 C 
ENDBRANCH  13  14
ENDBRANCH   8  13
ENDBRANCH   1   7
BRANCH   3  17
HETATM   17  C   UNL     1      42.161 -11.284   6.180  1.00  0.00     0.183 C 
BRANCH  17  18
HETATM   18  C   UNL     1      43.577 -11.166   6.723  1.00  0.00     0.053 A 
HETATM   19  N   UNL     1      44.632 -11.457   5.912  1.00  0.00    -0.264 NA
HETATM   20  C   UNL     1      45.879 -11.276   6.405  1.00  0.00     0.118 A 
HETATM   21  C   UNL     1      46.141 -10.791   7.670  1.00  0.00     0.043 A 
HETATM   22  C   UNL     1      45.055 -10.483   8.474  1.00  0.00     0.037 A 
HETATM   23 CL   UNL     1      45.312  -9.856  10.055  1.00  0.00    -0.084 Cl
HETATM   24  C   UNL     1      43.757 -10.665   8.009  1.00  0.00     0.052 A 
ENDBRANCH  17  18
ENDBRANCH   3  17
TORSDOF 5
ENDMDL
MODEL 4
REMARK VINA RESULT:      -7.3      2.580      3.070
REMARK  5 active torsions:
REMARK  status: ('A' for Active; 'I' for Inactive)
REMARK    1  A    between atoms: C_2  and  O_3 
REMARK    2  A    between atoms: O_3  and  C_4 
REMARK    3  A    between atoms: C_5  and  N_6 
REMARK       I    between atoms: N_6  and  C_7 
REMARK       I    between atoms: C_7  and  N_8 
REMARK    4  A    between atoms: N_8  and  C_9 
REMARK    5  A    between atoms: C_9  and  C_10 
ROOT
HETATM    1  N   UNL     1      42.090 -16.660   2.016  1.00  0.00    -0.306 N 
HETATM    2  C   UNL     1      42.607 -15.505   1.498  1.00  0.00     0.321 C 
HETATM    3  N   UNL     1      41.699 -14.733   0.823  1.00  0.00    -0.337 N 
HETATM    4  O   UNL     1      43.773 -15.130   1.546  1.00  0.00    -0.247 OA
HETATM    5  H   UNL     1      41.397 -17.067   1.391  1.00  0.00     0.171 HD
HETATM    6  H   UNL     1      42.152 -13.893   0.487  1.00  0.00     0.164 HD
ENDROOT
BRANCH   1   7
HETATM    7  C   UNL     1      42.790 -17.544   2.862  1.00  0.00     0.069 A 
HETATM    8  C   UNL     1      43.112 -17.263   4.199  1.00  0.00     0.096 A 
HETATM    9  C   UNL     1      43.887 -18.164   4.935  1.00  0.00     0.039 A 
HETATM   10  C   UNL     1      44.278 -19.380   4.375  1.00  0.00     0.003 A 
HETATM   11  C   UNL     1      43.893 -19.698   3.075  1.00  0.00     0.002 A 
HETATM   12  C   UNL     1      43.146 -18.788   2.325  1.00  0.00     0.032 A 
BRANCH   8  13
HETATM   13  O   UNL     1      42.700 -16.147   4.881  1.00  0.00    -0.344 OA
BRANCH  13  14
HETATM   14  C   UNL     1      41.973 -16.444   6.085  1.00  0.00     0.121 C 
HETATM   15  C   UNL     1      40.490 -16.296   5.755  1.00  0.00     0.040 C 
HETATM   16  C   UNL     1      42.362 -15.471   7.196  1.00  0.00     0.040 C 
ENDBRANCH  13  14
ENDBRANCH   8  13
ENDBRANCH   1   7
BRANCH   3  17
HETATM   17  C   UNL     1      40.298 -14.610   1.188  1.00  0.00     0.183 C 
BRANCH  17  18
HETATM   18  C   UNL     1      39.924 -13.425   2.065  1.00  0.00     0.053 A 
HETATM   19  N   UNL     1      39.396 -12.308   1.493  1.00  0.00    -0.264 NA
HETATM   20  C   UNL     1      39.012 -11.299   2.309  1.00  0.00     0.118 A 
HETATM   21  C   UNL     1      39.101 -11.349   3.684  1.00  0.00     0.043 A 
HETATM   22  C   UNL     1      39.623 -12.502   4.250  1.00  0.00     0.037 A 
HETATM   23 CL   UNL     1      39.745 -12.636   5.960  1.00  0.00    -0.084 Cl
HETATM   24  C   UNL     1      40.040 -13.557   3.446  1.00  0.00     0.052 A 
ENDBRANCH  17  18
ENDBRANCH   3  17
TORSDOF 5
ENDMDL
MODEL 5
REMARK VINA RESULT:      -7.1      1.505      3.032
REMARK  5 active torsions:
REMARK  status: ('A' for Active; 'I' for Inactive)
REMARK    1  A    between atoms: C_2  and  O_3 
REMARK    2  A    between atoms: O_3  and  C_4 
REMARK    3  A    between atoms: C_5  and  N_6 
REMARK       I    between atoms: N_6  and  C_7 
REMARK       I    between atoms: C_7  and  N_8 
REMARK    4  A    between atoms: N_8  and  C_9 
REMARK    5  A    between atoms: C_9  and  C_10 
ROOT
HETATM    1  N   UNL     1      41.869 -15.132   3.017  1.00  0.00    -0.306 N 
HETATM    2  C   UNL     1      42.538 -15.078   1.825  1.00  0.00     0.321 C 
HETATM    3  N   UNL     1      41.726 -15.027   0.723  1.00  0.00    -0.337 N 
HETATM    4  O   UNL     1      43.751 -15.109   1.657  1.00  0.00    -0.247 OA
HETATM    5  H   UNL     1      41.027 -15.701   2.941  1.00  0.00     0.171 HD
HETATM    6  H   UNL     1      42.292 -14.971  -0.113  1.00  0.00     0.164 HD
ENDROOT
BRANCH   1   7
HETATM    7  C   UNL     1      42.480 -15.052   4.284  1.00  0.00     0.069 A 
HETATM    8  C   UNL     1      42.808 -16.167   5.070  1.00  0.00     0.096 A 
HETATM    9  C   UNL     1      43.331 -15.986   6.354  1.00  0.00     0.039 A 
HETATM   10  C   UNL     1      43.604 -14.704   6.831  1.00  0.00     0.003 A 
HETATM   11  C   UNL     1      43.355 -13.598   6.024  1.00  0.00     0.002 A 
HETATM   12  C   UNL     1      42.803 -13.771   4.752  1.00  0.00     0.032 A 
BRANCH   8  13
HETATM   13  O   UNL     1      42.674 -17.471   4.667  1.00  0.00    -0.344 OA
BRANCH  13  14
HETATM   14  C   UNL     1      43.921 -18.099   4.327  1.00  0.00     0.121 C 
HETATM   15  C   UNL     1      43.865 -18.414   2.835  1.00  0.00     0.040 C 
HETATM   16  C   UNL     1      44.105 -19.386   5.128  1.00  0.00     0.040 C 
ENDBRANCH  13  14
ENDBRANCH   8  13
ENDBRANCH   1   7
BRANCH   3  17
HETATM   17  C   UNL     1      40.444 -14.344   0.681  1.00  0.00     0.183 C 
BRANCH  17  18
HETATM   18  C   UNL     1      40.050 -13.717  -0.647  1.00  0.00     0.053 A 
HETATM   19  N   UNL     1      40.522 -12.481  -0.970  1.00  0.00    -0.264 NA
HETATM   20  C   UNL     1      40.208 -11.981  -2.188  1.00  0.00     0.118 A 
HETATM   21  C   UNL     1      39.461 -12.661  -3.127  1.00  0.00     0.043 A 
HETATM   22  C   UNL     1      39.005 -13.926  -2.787  1.00  0.00     0.037 A 
HETATM   23 CL   UNL     1      38.083 -14.835  -3.919  1.00  0.00    -0.084 Cl
HETATM   24  C   UNL     1      39.296 -14.471  -1.542  1.00  0.00     0.052 A 
ENDBRANCH  17  18
ENDBRANCH   3  17
TORSDOF 5
ENDMDL
MODEL 6
REMARK VINA RESULT:      -7.0      2.015      2.280
REMARK  5 active torsions:
REMARK  status: ('A' for Active; 'I' for Inactive)
REMARK    1  A    between atoms: C_2  and  O_3 
REMARK    2  A    between atoms: O_3  and  C_4 
REMARK    3  A    between atoms: C_5  and  N_6 
REMARK       I    between atoms: N_6  and  C_7 
REMARK       I    between atoms: C_7  and  N_8 
REMARK    4  A    between atoms: N_8  and  C_9 
REMARK    5  A    between atoms: C_9  and  C_10 
ROOT
HETATM    1  N   UNL     1      41.806 -15.779   2.366  1.00  0.00    -0.306 N 
HETATM    2  C   UNL     1      40.448 -15.704   2.503  1.00  0.00     0.321 C 
HETATM    3  N   UNL     1      39.843 -14.811   1.659  1.00  0.00    -0.337 N 
HETATM    4  O   UNL     1      39.753 -16.311   3.309  1.00  0.00    -0.247 OA
HETATM    5  H   UNL     1      42.209 -14.863   2.173  1.00  0.00     0.171 HD
HETATM    6  H   UNL     1      38.843 -14.826   1.809  1.00  0.00     0.164 HD
ENDROOT
BRANCH   1   7
HETATM    7  C   UNL     1      42.629 -16.717   3.021  1.00  0.00     0.069 A 
HETATM    8  C   UNL     1      43.074 -16.583   4.345  1.00  0.00     0.096 A 
HETATM    9  C   UNL     1      43.961 -17.521   4.882  1.00  0.00     0.039 A 
HETATM   10  C   UNL     1      44.345 -18.636   4.137  1.00  0.00     0.003 A 
HETATM   11  C   UNL     1      43.843 -18.816   2.852  1.00  0.00     0.002 A 
HETATM   12  C   UNL     1      42.981 -17.865   2.299  1.00  0.00     0.032 A 
BRANCH   8  13
HETATM   13  O   UNL     1      42.686 -15.583   5.200  1.00  0.00    -0.344 OA
BRANCH  13  14
HETATM   14  C   UNL     1      42.230 -16.062   6.476  1.00  0.00     0.121 C 
HETATM   15  C   UNL     1      40.725 -15.816   6.529  1.00  0.00     0.040 C 
HETATM   16  C   UNL     1      42.924 -15.307   7.607  1.00  0.00     0.040 C 
ENDBRANCH  13  14
ENDBRANCH   8  13
ENDBRANCH   1   7
BRANCH   3  17
HETATM   17  C   UNL     1      40.289 -14.534   0.304  1.00  0.00     0.183 C 
BRANCH  17  18
HETATM   18  C   UNL     1      40.589 -13.081  -0.031  1.00  0.00     0.053 A 
HETATM   19  N   UNL     1      40.986 -12.234   0.959  1.00  0.00    -0.264 NA
HETATM   20  C   UNL     1      41.310 -10.966   0.616  1.00  0.00     0.118 A 
HETATM   21  C   UNL     1      41.286 -10.492  -0.679  1.00  0.00     0.043 A 
HETATM   22  C   UNL     1      40.896 -11.374  -1.676  1.00  0.00     0.037 A 
HETATM   23 CL   UNL     1      40.861 -10.851  -3.314  1.00  0.00    -0.084 Cl
HETATM   24  C   UNL     1      40.545 -12.682  -1.363  1.00  0.00     0.052 A 
ENDBRANCH  17  18
ENDBRANCH   3  17
TORSDOF 5
ENDMDL
MODEL 7
REMARK VINA RESULT:      -7.0      5.484      8.134
REMARK  5 active torsions:
REMARK  status: ('A' for Active; 'I' for Inactive)
REMARK    1  A    between atoms: C_2  and  O_3 
REMARK    2  A    between atoms: O_3  and  C_4 
REMARK    3  A    between atoms: C_5  and  N_6 
REMARK       I    between atoms: N_6  and  C_7 
REMARK       I    between atoms: C_7  and  N_8 
REMARK    4  A    between atoms: N_8  and  C_9 
REMARK    5  A    between atoms: C_9  and  C_10 
ROOT
HETATM    1  N   UNL     1      42.686 -13.861   4.841  1.00  0.00    -0.306 N 
HETATM    2  C   UNL     1      42.542 -14.008   6.193  1.00  0.00     0.321 C 
HETATM    3  N   UNL     1      43.294 -13.140   6.940  1.00  0.00    -0.337 N 
HETATM    4  O   UNL     1      41.857 -14.840   6.776  1.00  0.00    -0.247 OA
HETATM    5  H   UNL     1      43.649 -13.634   4.596  1.00  0.00     0.171 HD
HETATM    6  H   UNL     1      43.119 -13.300   7.923  1.00  0.00     0.164 HD
ENDROOT
BRANCH   1   7
HETATM    7  C   UNL     1      41.919 -14.539   3.874  1.00  0.00     0.069 A 
HETATM    8  C   UNL     1      42.356 -15.677   3.180  1.00  0.00     0.096 A 
HETATM    9  C   UNL     1      41.560 -16.231   2.172  1.00  0.00     0.039 A 
HETATM   10  C   UNL     1      40.296 -15.707   1.905  1.00  0.00     0.003 A 
HETATM   11  C   UNL     1      39.823 -14.627   2.646  1.00  0.00     0.002 A 
HETATM   12  C   UNL     1      40.628 -14.051   3.632  1.00  0.00     0.032 A 
BRANCH   8  13
HETATM   13  O   UNL     1      43.535 -16.334   3.425  1.00  0.00    -0.344 OA
BRANCH  13  14
HETATM   14  C   UNL     1      43.368 -17.569   4.139  1.00  0.00     0.121 C 
HETATM   15  C   UNL     1      44.072 -17.403   5.483  1.00  0.00     0.040 C 
HETATM   16  C   UNL     1      43.994 -18.724   3.359  1.00  0.00     0.040 C 
ENDBRANCH  13  14
ENDBRANCH   8  13
ENDBRANCH   1   7
BRANCH   3  17
HETATM   17  C   UNL     1      43.593 -11.772   6.551  1.00  0.00     0.183 C 
BRANCH  17  18
HETATM   18  C   UNL     1      44.420 -10.952   7.529  1.00  0.00     0.053 A 
HETATM   19  N   UNL     1      45.589 -10.392   7.113  1.00  0.00    -0.264 NA
HETATM   20  C   UNL     1      46.264  -9.612   7.989  1.00  0.00     0.118 A 
HETATM   21  C   UNL     1      45.824  -9.332   9.266  1.00  0.00     0.043 A 
HETATM   22  C   UNL     1      44.622  -9.897   9.665  1.00  0.00     0.037 A 
HETATM   23 CL   UNL     1      44.007  -9.574  11.239  1.00  0.00    -0.084 Cl
HETATM   24  C   UNL     1      43.903 -10.713   8.799  1.00  0.00     0.052 A 
ENDBRANCH  17  18
ENDBRANCH   3  17
TORSDOF 5
ENDMDL
MODEL 8
REMARK VINA RESULT:      -6.8      2.982      7.521
REMARK  5 active torsions:
REMARK  status: ('A' for Active; 'I' for Inactive)
REMARK    1  A    between atoms: C_2  and  O_3 
REMARK    2  A    between atoms: O_3  and  C_4 
REMARK    3  A    between atoms: C_5  and  N_6 
REMARK       I    between atoms: N_6  and  C_7 
REMARK       I    between atoms: C_7  and  N_8 
REMARK    4  A    between atoms: N_8  and  C_9 
REMARK    5  A    between atoms: C_9  and  C_10 
ROOT
HETATM    1  N   UNL     1      40.707 -14.383   0.556  1.00  0.00    -0.306 N 
HETATM    2  C   UNL     1      40.267 -13.908   1.760  1.00  0.00     0.321 C 
HETATM    3  N   UNL     1      41.039 -14.278   2.830  1.00  0.00    -0.337 N 
HETATM    4  O   UNL     1      39.261 -13.239   1.968  1.00  0.00    -0.247 OA
HETATM    5  H   UNL     1      41.085 -15.325   0.647  1.00  0.00     0.171 HD
HETATM    6  H   UNL     1      40.659 -13.874   3.677  1.00  0.00     0.164 HD
ENDROOT
BRANCH   1   7
HETATM    7  C   UNL     1      40.164 -14.027  -0.694  1.00  0.00     0.069 A 
HETATM    8  C   UNL     1      40.406 -12.803  -1.336  1.00  0.00     0.096 A 
HETATM    9  C   UNL     1      39.751 -12.501  -2.535  1.00  0.00     0.039 A 
HETATM   10  C   UNL     1      38.919 -13.442  -3.140  1.00  0.00     0.003 A 
HETATM   11  C   UNL     1      38.738 -14.689  -2.548  1.00  0.00     0.002 A 
HETATM   12  C   UNL     1      39.364 -14.983  -1.334  1.00  0.00     0.032 A 
BRANCH   8  13
HETATM   13  O   UNL     1      41.277 -11.845  -0.885  1.00  0.00    -0.344 OA
BRANCH  13  14
HETATM   14  C   UNL     1      40.752 -10.510  -0.956  1.00  0.00     0.121 C 
HETATM   15  C   UNL     1      41.926  -9.589  -1.278  1.00  0.00     0.040 C 
HETATM   16  C   UNL     1      40.125 -10.112   0.378  1.00  0.00     0.040 C 
ENDBRANCH  13  14
ENDBRANCH   8  13
ENDBRANCH   1   7
BRANCH   3  17
HETATM   17  C   UNL     1      42.482 -14.440   2.781  1.00  0.00     0.183 C 
BRANCH  17  18
HETATM   18  C   UNL     1      43.034 -15.766   3.282  1.00  0.00     0.053 A 
HETATM   19  N   UNL     1      43.550 -15.844   4.540  1.00  0.00    -0.264 NA
HETATM   20  C   UNL     1      43.971 -17.053   4.979  1.00  0.00     0.118 A 
HETATM   21  C   UNL     1      43.882 -18.212   4.235  1.00  0.00     0.043 A 
HETATM   22  C   UNL     1      43.337 -18.116   2.964  1.00  0.00     0.037 A 
HETATM   23 CL   UNL     1      43.181 -19.526   1.992  1.00  0.00    -0.084 Cl
HETATM   24  C   UNL     1      42.903 -16.890   2.472  1.00  0.00     0.052 A 
ENDBRANCH  17  18
ENDBRANCH   3  17
TORSDOF 5
ENDMDL
MODEL 9
REMARK VINA RESULT:      -6.7     14.146     15.598
REMARK  5 active torsions:
REMARK  status: ('A' for Active; 'I' for Inactive)
REMARK    1  A    between atoms: C_2  and  O_3 
REMARK    2  A    between atoms: O_3  and  C_4 
REMARK    3  A    between atoms: C_5  and  N_6 
REMARK       I    between atoms: N_6  and  C_7 
REMARK       I    between atoms: C_7  and  N_8 
REMARK    4  A    between atoms: N_8  and  C_9 
REMARK    5  A    between atoms: C_9  and  C_10 
ROOT
HETATM    1  N   UNL     1      46.791 -28.698   1.220  1.00  0.00    -0.306 N 
HETATM    2  C   UNL     1      45.614 -29.394   1.190  1.00  0.00     0.321 C 
HETATM    3  N   UNL     1      44.642 -28.827   0.409  1.00  0.00    -0.337 N 
HETATM    4  O   UNL     1      45.347 -30.420   1.805  1.00  0.00    -0.247 OA
HETATM    5  H   UNL     1      46.625 -27.693   1.212  1.00  0.00     0.171 HD
HETATM    6  H   UNL     1      43.813 -29.407   0.426  1.00  0.00     0.164 HD
ENDROOT
BRANCH   1   7
HETATM    7  C   UNL     1      47.975 -29.150   1.836  1.00  0.00     0.069 A 
HETATM    8  C   UNL     1      48.882 -30.039   1.240  1.00  0.00     0.096 A 
HETATM    9  C   UNL     1      49.986 -30.501   1.963  1.00  0.00     0.039 A 
HETATM   10  C   UNL     1      50.237 -30.022   3.249  1.00  0.00     0.003 A 
HETATM   11  C   UNL     1      49.384 -29.079   3.815  1.00  0.00     0.002 A 
HETATM   12  C   UNL     1      48.262 -28.638   3.108  1.00  0.00     0.032 A 
BRANCH   8  13
HETATM   13  O   UNL     1      48.789 -30.498  -0.049  1.00  0.00    -0.344 OA
BRANCH  13  14
HETATM   14  C   UNL     1      49.422 -29.641  -1.013  1.00  0.00     0.121 C 
HETATM   15  C   UNL     1      48.331 -29.172  -1.972  1.00  0.00     0.040 C 
HETATM   16  C   UNL     1      50.500 -30.404  -1.779  1.00  0.00     0.040 C 
ENDBRANCH  13  14
ENDBRANCH   8  13
ENDBRANCH   1   7
BRANCH   3  17
HETATM   17  C   UNL     1      44.900 -28.103  -0.824  1.00  0.00     0.183 C 
BRANCH  17  18
HETATM   18  C   UNL     1      44.719 -28.880  -2.119  1.00  0.00     0.053 A 
HETATM   19  N   UNL     1      44.995 -28.275  -3.307  1.00  0.00    -0.264 NA
HETATM   20  C   UNL     1      44.889 -29.015  -4.435  1.00  0.00     0.118 A 
HETATM   21  C   UNL     1      44.545 -30.351  -4.447  1.00  0.00     0.043 A 
HETATM   22  C   UNL     1      44.286 -30.955  -3.226  1.00  0.00     0.037 A 
HETATM   23 CL   UNL     1      43.869 -32.623  -3.168  1.00  0.00    -0.084 Cl
HETATM   24  C   UNL     1      44.373 -30.226  -2.045  1.00  0.00     0.052 A 
ENDBRANCH  17  18
ENDBRANCH   3  17
TORSDOF 5
ENDMDL
MODEL 10
REMARK VINA RESULT:      -6.7      5.153      7.536
REMARK  5 active torsions:
REMARK  status: ('A' for Active; 'I' for Inactive)
REMARK    1  A    between atoms: C_2  and  O_3 
REMARK    2  A    between atoms: O_3  and  C_4 
REMARK    3  A    between atoms: C_5  and  N_6 
REMARK       I    between atoms: N_6  and  C_7 
REMARK       I    between atoms: C_7  and  N_8 
REMARK    4  A    between atoms: N_8  and  C_9 
REMARK    5  A    between atoms: C_9  and  C_10 
ROOT
HETATM    1  N   UNL     1      42.529 -13.929   4.492  1.00  0.00    -0.306 N 
HETATM    2  C   UNL     1      43.079 -12.766   4.027  1.00  0.00     0.321 C 
HETATM    3  N   UNL     1      42.808 -11.666   4.797  1.00  0.00    -0.337 N 
HETATM    4  O   UNL     1      43.736 -12.617   3.003  1.00  0.00    -0.247 OA
HETATM    5  H   UNL     1      41.607 -13.766   4.892  1.00  0.00     0.171 HD
HETATM    6  H   UNL     1      43.262 -10.854   4.399  1.00  0.00     0.164 HD
ENDROOT
BRANCH   1   7
HETATM    7  C   UNL     1      42.780 -15.207   3.953  1.00  0.00     0.069 A 
HETATM    8  C   UNL     1      42.361 -15.619   2.679  1.00  0.00     0.096 A 
HETATM    9  C   UNL     1      42.578 -16.936   2.264  1.00  0.00     0.039 A 
HETATM   10  C   UNL     1      43.281 -17.825   3.077  1.00  0.00     0.003 A 
HETATM   11  C   UNL     1      43.769 -17.398   4.309  1.00  0.00     0.002 A 
HETATM   12  C   UNL     1      43.527 -16.092   4.742  1.00  0.00     0.032 A 
BRANCH   8  13
HETATM   13  O   UNL     1      41.750 -14.805   1.759  1.00  0.00    -0.344 OA
BRANCH  13  14
HETATM   14  C   UNL     1      40.328 -14.996   1.677  1.00  0.00     0.121 C 
HETATM   15  C   UNL     1      39.961 -14.963   0.196  1.00  0.00     0.040 C 
HETATM   16  C   UNL     1      39.597 -13.882   2.423  1.00  0.00     0.040 C 
ENDBRANCH  13  14
ENDBRANCH   8  13
ENDBRANCH   1   7
BRANCH   3  17
HETATM   17  C   UNL     1      42.680 -11.690   6.244  1.00  0.00     0.183 C 
BRANCH  17  18
HETATM   18  C   UNL     1      43.888 -11.225   7.042  1.00  0.00     0.053 A 
HETATM   19  N   UNL     1      45.130 -11.317   6.491  1.00  0.00    -0.264 NA
HETATM   20  C   UNL     1      46.175 -10.832   7.201  1.00  0.00     0.118 A 
HETATM   21  C   UNL     1      46.051 -10.229   8.435  1.00  0.00     0.043 A 
HETATM   22  C   UNL     1      44.777 -10.129   8.972  1.00  0.00     0.037 A 
HETATM   23 CL   UNL     1      44.550  -9.372  10.500  1.00  0.00    -0.084 Cl
HETATM   24  C   UNL     1      43.678 -10.625   8.280  1.00  0.00     0.052 A 
ENDBRANCH  17  18
ENDBRANCH   3  17
TORSDOF 5
ENDMDL
