MODEL 1
REMARK VINA RESULT:      -9.0      0.000      0.000
REMARK  8 active torsions:
REMARK  status: ('A' for Active; 'I' for Inactive)
REMARK    1  A    between atoms: C_2  and  C_3 
REMARK    2  A    between atoms: C_3  and  N_4 
REMARK    3  A    between atoms: C_5  and  S_6 
REMARK    4  A    between atoms: S_6  and  C_7 
REMARK    5  A    between atoms: C_7  and  C_8 
REMARK       I    between atoms: C_8  and  N_9 
REMARK    6  A    between atoms: N_9  and  C_10 
REMARK    7  A    between atoms: C_23  and  C_24 
REMARK    8  A    between atoms: C_25  and  O_26 
ROOT
HETATM    1  S   UNL     1      41.310 -12.990   4.645  1.00  0.00    -0.081 SA
ENDROOT
BRANCH   1   2
HETATM    2  C   UNL     1      42.359 -14.310   5.011  1.00  0.00     0.192 A 
HETATM    3  N   UNL     1      42.355 -15.530   4.389  1.00  0.00    -0.304 N 
HETATM    4  C   UNL     1      43.262 -16.300   5.094  1.00  0.00     0.167 A 
HETATM    5  N   UNL     1      43.802 -15.545   6.040  1.00  0.00    -0.128 NA
HETATM    6  N   UNL     1      43.252 -14.297   5.971  1.00  0.00    -0.122 NA
BRANCH   3   7
HETATM    7  C   UNL     1      41.509 -15.946   3.284  1.00  0.00     0.159 C 
BRANCH   7   8
HETATM    8  C   UNL     1      42.268 -16.071   1.996  1.00  0.00    -0.017 C 
HETATM    9  C   UNL     1      43.251 -15.243   1.617  1.00  0.00     0.008 C 
ENDBRANCH   7   8
ENDBRANCH   3   7
BRANCH   4  10
HETATM   10  C   UNL     1      43.482 -17.741   4.993  1.00  0.00     0.046 A 
HETATM   11  C   UNL     1      43.514 -18.524   6.161  1.00  0.00     0.079 A 
HETATM   12  C   UNL     1      43.673 -19.907   6.105  1.00  0.00     0.039 A 
HETATM   13  C   UNL     1      43.838 -20.532   4.871  1.00  0.00     0.022 A 
HETATM   14  C   UNL     1      43.854 -19.763   3.708  1.00  0.00     0.012 A 
HETATM   15 BR   UNL     1      44.102 -20.607   2.034  1.00  0.00    -0.051 Br
HETATM   16  C   UNL     1      43.686 -18.376   3.762  1.00  0.00     0.037 A 
BRANCH  11  17
HETATM   17  O   UNL     1      43.388 -17.980   7.413  1.00  0.00    -0.360 OA
HETATM   18  H   UNL     1      43.202 -17.023   7.316  1.00  0.00     0.217 HD
ENDBRANCH  11  17
ENDBRANCH   4  10
ENDBRANCH   1   2
BRANCH   1  19
HETATM   19  C   UNL     1      42.352 -12.064   3.471  1.00  0.00     0.185 C 
BRANCH  19  20
HETATM   20  C   UNL     1      41.682 -11.832   2.123  1.00  0.00     0.231 C 
HETATM   21  N   UNL     1      40.692 -12.743   1.809  1.00  0.00    -0.326 N 
HETATM   22  H   UNL     1      40.438 -13.403   2.542  1.00  0.00     0.169 HD
HETATM   23  O   UNL     1      42.074 -10.925   1.390  1.00  0.00    -0.272 OA
BRANCH  21  24
HETATM   24  C   UNL     1      39.967 -12.858   0.606  1.00  0.00     0.037 A 
HETATM   25  C   UNL     1      40.197 -13.863  -0.340  1.00  0.00     0.061 A 
HETATM   26  C   UNL     1      39.382 -13.872  -1.450  1.00  0.00     0.065 A 
HETATM   27  C   UNL     1      38.382 -12.924  -1.653  1.00  0.00     0.063 A 
HETATM   28  N   UNL     1      39.352 -14.759  -2.522  1.00  0.00    -0.306 N 
HETATM   29  N   UNL     1      37.746 -13.220  -2.853  1.00  0.00    -0.307 N 
HETATM   30  C   UNL     1      38.137 -11.919  -0.752  1.00  0.00     0.034 A 
HETATM   31  C   UNL     1      38.334 -14.368  -3.403  1.00  0.00     0.325 A 
HETATM   32  H   UNL     1      36.977 -12.729  -3.276  1.00  0.00     0.170 HD
HETATM   33  O   UNL     1      38.018 -14.919  -4.442  1.00  0.00    -0.247 OA
HETATM   34  C   UNL     1      38.938 -11.902   0.396  1.00  0.00     0.032 A 
HETATM   35  H   UNL     1      39.940 -15.566  -2.659  1.00  0.00     0.170 HD
ENDBRANCH  21  24
ENDBRANCH  19  20
ENDBRANCH   1  19
TORSDOF 8
ENDMDL
MODEL 2
REMARK VINA RESULT:      -8.6      2.442      3.428
REMARK  8 active torsions:
REMARK  status: ('A' for Active; 'I' for Inactive)
REMARK    1  A    between atoms: C_2  and  C_3 
REMARK    2  A    between atoms: C_3  and  N_4 
REMARK    3  A    between atoms: C_5  and  S_6 
REMARK    4  A    between atoms: S_6  and  C_7 
REMARK    5  A    between atoms: C_7  and  C_8 
REMARK       I    between atoms: C_8  and  N_9 
REMARK    6  A    between atoms: N_9  and  C_10 
REMARK    7  A    between atoms: C_23  and  C_24 
REMARK    8  A    between atoms: C_25  and  O_26 
ROOT
HETATM    1  S   UNL     1      41.180 -10.107   4.051  1.00  0.00    -0.081 SA
ENDROOT
BRANCH   1   2
HETATM    2  C   UNL     1      42.103 -11.482   3.565  1.00  0.00     0.192 A 
HETATM    3  N   UNL     1      41.711 -12.789   3.684  1.00  0.00    -0.304 N 
HETATM    4  C   UNL     1      42.810 -13.533   3.295  1.00  0.00     0.167 A 
HETATM    5  N   UNL     1      43.767 -12.698   2.920  1.00  0.00    -0.128 NA
HETATM    6  N   UNL     1      43.314 -11.418   3.069  1.00  0.00    -0.122 NA
BRANCH   3   7
HETATM    7  C   UNL     1      40.444 -13.280   4.196  1.00  0.00     0.159 C 
BRANCH   7   8
HETATM    8  C   UNL     1      40.442 -13.413   5.690  1.00  0.00    -0.017 C 
HETATM    9  C   UNL     1      40.173 -14.550   6.345  1.00  0.00     0.008 C 
ENDBRANCH   7   8
ENDBRANCH   3   7
BRANCH   4  10
HETATM   10  C   UNL     1      43.013 -14.973   3.440  1.00  0.00     0.046 A 
HETATM   11  C   UNL     1      43.110 -15.782   2.292  1.00  0.00     0.079 A 
HETATM   12  C   UNL     1      43.351 -17.151   2.386  1.00  0.00     0.039 A 
HETATM   13  C   UNL     1      43.465 -17.746   3.640  1.00  0.00     0.022 A 
HETATM   14  C   UNL     1      43.326 -16.964   4.787  1.00  0.00     0.012 A 
HETATM   15 BR   UNL     1      43.458 -17.775   6.490  1.00  0.00    -0.051 Br
HETATM   16  C   UNL     1      43.093 -15.589   4.694  1.00  0.00     0.037 A 
BRANCH  11  17
HETATM   17  O   UNL     1      42.979 -15.276   1.025  1.00  0.00    -0.360 OA
HETATM   18  H   UNL     1      43.029 -14.299   1.076  1.00  0.00     0.217 HD
ENDBRANCH  11  17
ENDBRANCH   4  10
ENDBRANCH   1   2
BRANCH   1  19
HETATM   19  C   UNL     1      40.459  -9.620   2.449  1.00  0.00     0.185 C 
BRANCH  19  20
HETATM   20  C   UNL     1      39.683 -10.742   1.771  1.00  0.00     0.231 C 
HETATM   21  N   UNL     1      40.393 -11.430   0.806  1.00  0.00    -0.326 N 
HETATM   22  H   UNL     1      41.380 -11.195   0.719  1.00  0.00     0.169 HD
HETATM   23  O   UNL     1      38.503 -10.935   2.059  1.00  0.00    -0.272 OA
BRANCH  21  24
HETATM   24  C   UNL     1      39.928 -12.440  -0.060  1.00  0.00     0.037 A 
HETATM   25  C   UNL     1      39.349 -12.181  -1.307  1.00  0.00     0.061 A 
HETATM   26  C   UNL     1      38.979 -13.271  -2.062  1.00  0.00     0.065 A 
HETATM   27  C   UNL     1      39.144 -14.581  -1.617  1.00  0.00     0.063 A 
HETATM   28  N   UNL     1      38.422 -13.321  -3.336  1.00  0.00    -0.306 N 
HETATM   29  N   UNL     1      38.680 -15.434  -2.611  1.00  0.00    -0.307 N 
HETATM   30  C   UNL     1      39.698 -14.871  -0.396  1.00  0.00     0.034 A 
HETATM   31  C   UNL     1      38.234 -14.664  -3.694  1.00  0.00     0.325 A 
HETATM   32  H   UNL     1      38.669 -16.440  -2.598  1.00  0.00     0.170 HD
HETATM   33  O   UNL     1      37.777 -15.082  -4.743  1.00  0.00    -0.247 OA
HETATM   34  C   UNL     1      40.103 -13.779   0.381  1.00  0.00     0.032 A 
HETATM   35  H   UNL     1      38.198 -12.540  -3.932  1.00  0.00     0.170 HD
ENDBRANCH  21  24
ENDBRANCH  19  20
ENDBRANCH   1  19
TORSDOF 8
ENDMDL
MODEL 3
REMARK VINA RESULT:      -8.6      3.570      7.178
REMARK  8 active torsions:
REMARK  status: ('A' for Active; 'I' for Inactive)
REMARK    1  A    between atoms: C_2  and  C_3 
REMARK    2  A    between atoms: C_3  and  N_4 
REMARK    3  A    between atoms: C_5  and  S_6 
REMARK    4  A    between atoms: S_6  and  C_7 
REMARK    5  A    between atoms: C_7  and  C_8 
REMARK       I    between atoms: C_8  and  N_9 
REMARK    6  A    between atoms: N_9  and  C_10 
REMARK    7  A    between atoms: C_23  and  C_24 
REMARK    8  A    between atoms: C_25  and  O_26 
ROOT
HETATM    1  S   UNL     1      40.190 -12.131   2.298  1.00  0.00    -0.081 SA
ENDROOT
BRANCH   1   2
HETATM    2  C   UNL     1      41.520 -13.216   2.480  1.00  0.00     0.192 A 
HETATM    3  N   UNL     1      41.425 -14.569   2.674  1.00  0.00    -0.304 N 
HETATM    4  C   UNL     1      42.722 -14.994   2.895  1.00  0.00     0.167 A 
HETATM    5  N   UNL     1      43.529 -13.949   2.780  1.00  0.00    -0.128 NA
HETATM    6  N   UNL     1      42.776 -12.845   2.499  1.00  0.00    -0.122 NA
BRANCH   3   7
HETATM    7  C   UNL     1      40.210 -15.363   2.725  1.00  0.00     0.159 C 
BRANCH   7   8
HETATM    8  C   UNL     1      39.873 -15.982   1.401  1.00  0.00    -0.017 C 
HETATM    9  C   UNL     1      39.848 -15.312   0.241  1.00  0.00     0.008 C 
ENDBRANCH   7   8
ENDBRANCH   3   7
BRANCH   4  10
HETATM   10  C   UNL     1      43.166 -16.303   3.371  1.00  0.00     0.046 A 
HETATM   11  C   UNL     1      43.592 -16.451   4.703  1.00  0.00     0.079 A 
HETATM   12  C   UNL     1      43.976 -17.691   5.209  1.00  0.00     0.039 A 
HETATM   13  C   UNL     1      43.974 -18.806   4.375  1.00  0.00     0.022 A 
HETATM   14  C   UNL     1      43.597 -18.665   3.040  1.00  0.00     0.012 A 
HETATM   15 BR   UNL     1      43.615 -20.174   1.901  1.00  0.00    -0.051 Br
HETATM   16  C   UNL     1      43.203 -17.424   2.533  1.00  0.00     0.037 A 
BRANCH  11  17
HETATM   17  O   UNL     1      43.651 -15.397   5.577  1.00  0.00    -0.360 OA
HETATM   18  H   UNL     1      44.362 -14.791   5.281  1.00  0.00     0.217 HD
ENDBRANCH  11  17
ENDBRANCH   4  10
ENDBRANCH   1   2
BRANCH   1  19
HETATM   19  C   UNL     1      39.454 -12.240   3.962  1.00  0.00     0.185 C 
BRANCH  19  20
HETATM   20  C   UNL     1      40.490 -12.295   5.077  1.00  0.00     0.231 C 
HETATM   21  N   UNL     1      41.357 -11.220   5.109  1.00  0.00    -0.326 N 
HETATM   22  H   UNL     1      41.155 -10.459   4.463  1.00  0.00     0.169 HD
HETATM   23  O   UNL     1      40.539 -13.272   5.823  1.00  0.00    -0.272 OA
BRANCH  21  24
HETATM   24  C   UNL     1      42.476 -11.030   5.944  1.00  0.00     0.037 A 
HETATM   25  C   UNL     1      42.423 -10.340   7.161  1.00  0.00     0.061 A 
HETATM   26  C   UNL     1      43.589 -10.271   7.889  1.00  0.00     0.065 A 
HETATM   27  C   UNL     1      44.783 -10.835   7.447  1.00  0.00     0.063 A 
HETATM   28  N   UNL     1      43.826  -9.692   9.132  1.00  0.00    -0.306 N 
HETATM   29  N   UNL     1      45.755 -10.594   8.411  1.00  0.00    -0.307 N 
HETATM   30  C   UNL     1      44.874 -11.508   6.256  1.00  0.00     0.034 A 
HETATM   31  C   UNL     1      45.171  -9.889   9.473  1.00  0.00     0.325 A 
HETATM   32  H   UNL     1      46.720 -10.880   8.393  1.00  0.00     0.170 HD
HETATM   33  O   UNL     1      45.725  -9.525  10.494  1.00  0.00    -0.247 OA
HETATM   34  C   UNL     1      43.695 -11.612   5.506  1.00  0.00     0.032 A 
HETATM   35  H   UNL     1      43.157  -9.219   9.719  1.00  0.00     0.170 HD
ENDBRANCH  21  24
ENDBRANCH  19  20
ENDBRANCH   1  19
TORSDOF 8
ENDMDL
MODEL 4
REMARK VINA RESULT:      -8.5      2.045      3.025
REMARK  8 active torsions:
REMARK  status: ('A' for Active; 'I' for Inactive)
REMARK    1  A    between atoms: C_2  and  C_3 
REMARK    2  A    between atoms: C_3  and  N_4 
REMARK    3  A    between atoms: C_5  and  S_6 
REMARK    4  A    between atoms: S_6  and  C_7 
REMARK    5  A    between atoms: C_7  and  C_8 
REMARK       I    between atoms: C_8  and  N_9 
REMARK    6  A    between atoms: N_9  and  C_10 
REMARK    7  A    between atoms: C_23  and  C_24 
REMARK    8  A    between atoms: C_25  and  O_26 
ROOT
HETATM    1  S   UNL     1      41.241 -10.484   5.792  1.00  0.00    -0.081 SA
ENDROOT
BRANCH   1   2
HETATM    2  C   UNL     1      41.167 -12.195   6.004  1.00  0.00     0.192 A 
HETATM    3  N   UNL     1      42.231 -13.055   5.931  1.00  0.00    -0.304 N 
HETATM    4  C   UNL     1      41.681 -14.320   6.033  1.00  0.00     0.167 A 
HETATM    5  N   UNL     1      40.374 -14.193   6.209  1.00  0.00    -0.128 NA
HETATM    6  N   UNL     1      40.060 -12.864   6.213  1.00  0.00    -0.122 NA
BRANCH   3   7
HETATM    7  C   UNL     1      43.623 -12.708   5.706  1.00  0.00     0.159 C 
BRANCH   7   8
HETATM    8  C   UNL     1      44.342 -12.364   6.977  1.00  0.00    -0.017 C 
HETATM    9  C   UNL     1      45.153 -11.308   7.122  1.00  0.00     0.008 C 
ENDBRANCH   7   8
ENDBRANCH   3   7
BRANCH   4  10
HETATM   10  C   UNL     1      42.339 -15.603   5.795  1.00  0.00     0.046 A 
HETATM   11  C   UNL     1      42.864 -16.328   6.880  1.00  0.00     0.079 A 
HETATM   12  C   UNL     1      43.456 -17.577   6.701  1.00  0.00     0.039 A 
HETATM   13  C   UNL     1      43.563 -18.111   5.420  1.00  0.00     0.022 A 
HETATM   14  C   UNL     1      43.088 -17.383   4.329  1.00  0.00     0.012 A 
HETATM   15 BR   UNL     1      43.254 -18.097   2.587  1.00  0.00    -0.051 Br
HETATM   16  C   UNL     1      42.486 -16.134   4.508  1.00  0.00     0.037 A 
BRANCH  11  17
HETATM   17  O   UNL     1      42.823 -15.857   8.166  1.00  0.00    -0.360 OA
HETATM   18  H   UNL     1      41.893 -15.882   8.474  1.00  0.00     0.217 HD
ENDBRANCH  11  17
ENDBRANCH   4  10
ENDBRANCH   1   2
BRANCH   1  19
HETATM   19  C   UNL     1      41.663 -10.395   4.021  1.00  0.00     0.185 C 
BRANCH  19  20
HETATM   20  C   UNL     1      40.711 -11.188   3.134  1.00  0.00     0.231 C 
HETATM   21  N   UNL     1      41.331 -12.067   2.266  1.00  0.00    -0.326 N 
HETATM   22  H   UNL     1      42.338 -12.175   2.377  1.00  0.00     0.169 HD
HETATM   23  O   UNL     1      39.500 -10.977   3.189  1.00  0.00    -0.272 OA
BRANCH  21  24
HETATM   24  C   UNL     1      40.740 -12.856   1.260  1.00  0.00     0.037 A 
HETATM   25  C   UNL     1      40.376 -12.359   0.003  1.00  0.00     0.061 A 
HETATM   26  C   UNL     1      39.846 -13.259  -0.893  1.00  0.00     0.065 A 
HETATM   27  C   UNL     1      39.652 -14.602  -0.580  1.00  0.00     0.063 A 
HETATM   28  N   UNL     1      39.434 -13.064  -2.209  1.00  0.00    -0.306 N 
HETATM   29  N   UNL     1      39.112 -15.230  -1.697  1.00  0.00    -0.307 N 
HETATM   30  C   UNL     1      39.986 -15.121   0.644  1.00  0.00     0.034 A 
HETATM   31  C   UNL     1      38.978 -14.285  -2.725  1.00  0.00     0.325 A 
HETATM   32  H   UNL     1      38.865 -16.200  -1.794  1.00  0.00     0.170 HD
HETATM   33  O   UNL     1      38.553 -14.489  -3.847  1.00  0.00    -0.247 OA
HETATM   34  C   UNL     1      40.549 -14.230   1.566  1.00  0.00     0.032 A 
HETATM   35  H   UNL     1      39.464 -12.204  -2.733  1.00  0.00     0.170 HD
ENDBRANCH  21  24
ENDBRANCH  19  20
ENDBRANCH   1  19
TORSDOF 8
ENDMDL
MODEL 5
REMARK VINA RESULT:      -8.3      1.975      2.427
REMARK  8 active torsions:
REMARK  status: ('A' for Active; 'I' for Inactive)
REMARK    1  A    between atoms: C_2  and  C_3 
REMARK    2  A    between atoms: C_3  and  N_4 
REMARK    3  A    between atoms: C_5  and  S_6 
REMARK    4  A    between atoms: S_6  and  C_7 
REMARK    5  A    between atoms: C_7  and  C_8 
REMARK       I    between atoms: C_8  and  N_9 
REMARK    6  A    between atoms: N_9  and  C_10 
REMARK    7  A    between atoms: C_23  and  C_24 
REMARK    8  A    between atoms: C_25  and  O_26 
ROOT
HETATM    1  S   UNL     1      41.222 -11.385   5.989  1.00  0.00    -0.081 SA
ENDROOT
BRANCH   1   2
HETATM    2  C   UNL     1      42.339 -12.701   5.988  1.00  0.00     0.192 A 
HETATM    3  N   UNL     1      42.080 -13.968   5.536  1.00  0.00    -0.304 N 
HETATM    4  C   UNL     1      43.209 -14.702   5.853  1.00  0.00     0.167 A 
HETATM    5  N   UNL     1      44.093 -13.888   6.410  1.00  0.00    -0.128 NA
HETATM    6  N   UNL     1      43.555 -12.634   6.472  1.00  0.00    -0.122 NA
BRANCH   3   7
HETATM    7  C   UNL     1      40.848 -14.448   4.937  1.00  0.00     0.159 C 
BRANCH   7   8
HETATM    8  C   UNL     1      40.929 -14.523   3.441  1.00  0.00    -0.017 C 
HETATM    9  C   UNL     1      40.600 -15.604   2.722  1.00  0.00     0.008 C 
ENDBRANCH   7   8
ENDBRANCH   3   7
BRANCH   4  10
HETATM   10  C   UNL     1      43.378 -16.153   5.795  1.00  0.00     0.046 A 
HETATM   11  C   UNL     1      43.354 -16.905   6.984  1.00  0.00     0.079 A 
HETATM   12  C   UNL     1      43.463 -18.293   6.967  1.00  0.00     0.039 A 
HETATM   13  C   UNL     1      43.633 -18.957   5.754  1.00  0.00     0.022 A 
HETATM   14  C   UNL     1      43.703 -18.220   4.572  1.00  0.00     0.012 A 
HETATM   15 BR   UNL     1      43.957 -19.117   2.928  1.00  0.00    -0.051 Br
HETATM   16  C   UNL     1      43.586 -16.827   4.586  1.00  0.00     0.037 A 
BRANCH  11  17
HETATM   17  O   UNL     1      43.220 -16.323   8.218  1.00  0.00    -0.360 OA
HETATM   18  H   UNL     1      42.464 -15.701   8.185  1.00  0.00     0.217 HD
ENDBRANCH  11  17
ENDBRANCH   4  10
ENDBRANCH   1   2
BRANCH   1  19
HETATM   19  C   UNL     1      42.184 -10.143   5.065  1.00  0.00     0.185 C 
BRANCH  19  20
HETATM   20  C   UNL     1      42.465 -10.548   3.623  1.00  0.00     0.231 C 
HETATM   21  N   UNL     1      41.416 -10.330   2.750  1.00  0.00    -0.326 N 
HETATM   22  H   UNL     1      40.612  -9.830   3.128  1.00  0.00     0.169 HD
HETATM   23  O   UNL     1      43.536 -11.077   3.331  1.00  0.00    -0.272 OA
BRANCH  21  24
HETATM   24  C   UNL     1      41.327 -10.690   1.391  1.00  0.00     0.037 A 
HETATM   25  C   UNL     1      41.043 -11.988   0.953  1.00  0.00     0.061 A 
HETATM   26  C   UNL     1      40.948 -12.180  -0.407  1.00  0.00     0.065 A 
HETATM   27  C   UNL     1      41.144 -11.151  -1.324  1.00  0.00     0.063 A 
HETATM   28  N   UNL     1      40.645 -13.336  -1.121  1.00  0.00    -0.306 N 
HETATM   29  N   UNL     1      40.972 -11.674  -2.600  1.00  0.00    -0.307 N 
HETATM   30  C   UNL     1      41.435  -9.870  -0.931  1.00  0.00     0.034 A 
HETATM   31  C   UNL     1      40.651 -13.035  -2.490  1.00  0.00     0.325 A 
HETATM   32  H   UNL     1      41.038 -11.185  -3.477  1.00  0.00     0.170 HD
HETATM   33  O   UNL     1      40.419 -13.803  -3.406  1.00  0.00    -0.247 OA
HETATM   34  C   UNL     1      41.514  -9.644   0.448  1.00  0.00     0.032 A 
HETATM   35  H   UNL     1      40.434 -14.245  -0.742  1.00  0.00     0.170 HD
ENDBRANCH  21  24
ENDBRANCH  19  20
ENDBRANCH   1  19
TORSDOF 8
ENDMDL
MODEL 6
REMARK VINA RESULT:      -8.2      5.790      8.876
REMARK  8 active torsions:
REMARK  status: ('A' for Active; 'I' for Inactive)
REMARK    1  A    between atoms: C_2  and  C_3 
REMARK    2  A    between atoms: C_3  and  N_4 
REMARK    3  A    between atoms: C_5  and  S_6 
REMARK    4  A    between atoms: S_6  and  C_7 
REMARK    5  A    between atoms: C_7  and  C_8 
REMARK       I    between atoms: C_8  and  N_9 
REMARK    6  A    between atoms: N_9  and  C_10 
REMARK    7  A    between atoms: C_23  and  C_24 
REMARK    8  A    between atoms: C_25  and  O_26 
ROOT
HETATM    1  S   UNL     1      43.286 -11.308   4.906  1.00  0.00    -0.081 SA
ENDROOT
BRANCH   1   2
HETATM    2  C   UNL     1      43.625 -11.096   6.585  1.00  0.00     0.192 A 
HETATM    3  N   UNL     1      42.865 -10.376   7.468  1.00  0.00    -0.304 N 
HETATM    4  C   UNL     1      43.585 -10.376   8.649  1.00  0.00     0.167 A 
HETATM    5  N   UNL     1      44.676 -11.105   8.471  1.00  0.00    -0.128 NA
HETATM    6  N   UNL     1      44.687 -11.571   7.188  1.00  0.00    -0.122 NA
BRANCH   3   7
HETATM    7  C   UNL     1      41.617  -9.686   7.189  1.00  0.00     0.159 C 
BRANCH   7   8
HETATM    8  C   UNL     1      41.831  -8.366   6.511  1.00  0.00    -0.017 C 
HETATM    9  C   UNL     1      40.845  -7.530   6.162  1.00  0.00     0.008 C 
ENDBRANCH   7   8
ENDBRANCH   3   7
BRANCH   4  10
HETATM   10  C   UNL     1      43.341  -9.574   9.846  1.00  0.00     0.046 A 
HETATM   11  C   UNL     1      43.351 -10.190  11.111  1.00  0.00     0.079 A 
HETATM   12  C   UNL     1      43.171  -9.453  12.279  1.00  0.00     0.039 A 
HETATM   13  C   UNL     1      42.941  -8.081  12.200  1.00  0.00     0.022 A 
HETATM   14  C   UNL     1      42.884  -7.465  10.950  1.00  0.00     0.012 A 
HETATM   15 BR   UNL     1      42.549  -5.607  10.840  1.00  0.00    -0.051 Br
HETATM   16  C   UNL     1      43.073  -8.202   9.777  1.00  0.00     0.037 A 
BRANCH  11  17
HETATM   17  O   UNL     1      43.541 -11.538  11.270  1.00  0.00    -0.360 OA
HETATM   18  H   UNL     1      42.891 -11.865  11.927  1.00  0.00     0.217 HD
ENDBRANCH  11  17
ENDBRANCH   4  10
ENDBRANCH   1   2
BRANCH   1  19
HETATM   19  C   UNL     1      41.722 -12.238   5.006  1.00  0.00     0.185 C 
BRANCH  19  20
HETATM   20  C   UNL     1      41.922 -13.730   5.239  1.00  0.00     0.231 C 
HETATM   21  N   UNL     1      42.805 -14.334   4.365  1.00  0.00    -0.326 N 
HETATM   22  H   UNL     1      43.309 -13.715   3.732  1.00  0.00     0.169 HD
HETATM   23  O   UNL     1      41.276 -14.308   6.111  1.00  0.00    -0.272 OA
BRANCH  21  24
HETATM   24  C   UNL     1      43.120 -15.704   4.256  1.00  0.00     0.037 A 
HETATM   25  C   UNL     1      42.844 -16.471   3.119  1.00  0.00     0.061 A 
HETATM   26  C   UNL     1      43.246 -17.787   3.142  1.00  0.00     0.065 A 
HETATM   27  C   UNL     1      43.880 -18.357   4.243  1.00  0.00     0.063 A 
HETATM   28  N   UNL     1      43.142 -18.765   2.157  1.00  0.00    -0.306 N 
HETATM   29  N   UNL     1      44.156 -19.685   3.940  1.00  0.00    -0.307 N 
HETATM   30  C   UNL     1      44.156 -17.638   5.378  1.00  0.00     0.034 A 
HETATM   31  C   UNL     1      43.709 -19.953   2.638  1.00  0.00     0.325 A 
HETATM   32  H   UNL     1      44.616 -20.364   4.524  1.00  0.00     0.170 HD
HETATM   33  O   UNL     1      43.801 -21.011   2.043  1.00  0.00    -0.247 OA
HETATM   34  C   UNL     1      43.777 -16.290   5.370  1.00  0.00     0.032 A 
HETATM   35  H   UNL     1      42.746 -18.659   1.237  1.00  0.00     0.170 HD
ENDBRANCH  21  24
ENDBRANCH  19  20
ENDBRANCH   1  19
TORSDOF 8
ENDMDL
MODEL 7
REMARK VINA RESULT:      -8.2      7.394     11.156
REMARK  8 active torsions:
REMARK  status: ('A' for Active; 'I' for Inactive)
REMARK    1  A    between atoms: C_2  and  C_3 
REMARK    2  A    between atoms: C_3  and  N_4 
REMARK    3  A    between atoms: C_5  and  S_6 
REMARK    4  A    between atoms: S_6  and  C_7 
REMARK    5  A    between atoms: C_7  and  C_8 
REMARK       I    between atoms: C_8  and  N_9 
REMARK    6  A    between atoms: N_9  and  C_10 
REMARK    7  A    between atoms: C_23  and  C_24 
REMARK    8  A    between atoms: C_25  and  O_26 
ROOT
HETATM    1  S   UNL     1      43.220  -9.773   7.809  1.00  0.00    -0.081 SA
ENDROOT
BRANCH   1   2
HETATM    2  C   UNL     1      43.451 -11.364   7.182  1.00  0.00     0.192 A 
HETATM    3  N   UNL     1      42.764 -11.916   6.133  1.00  0.00    -0.304 N 
HETATM    4  C   UNL     1      43.187 -13.232   6.077  1.00  0.00     0.167 A 
HETATM    5  N   UNL     1      44.110 -13.413   7.010  1.00  0.00    -0.128 NA
HETATM    6  N   UNL     1      44.288 -12.239   7.683  1.00  0.00    -0.122 NA
BRANCH   3   7
HETATM    7  C   UNL     1      41.746 -11.275   5.319  1.00  0.00     0.159 C 
BRANCH   7   8
HETATM    8  C   UNL     1      40.378 -11.380   5.926  1.00  0.00    -0.017 C 
HETATM    9  C   UNL     1      39.451 -12.268   5.544  1.00  0.00     0.008 C 
ENDBRANCH   7   8
ENDBRANCH   3   7
BRANCH   4  10
HETATM   10  C   UNL     1      42.615 -14.322   5.290  1.00  0.00     0.046 A 
HETATM   11  C   UNL     1      41.614 -15.136   5.851  1.00  0.00     0.079 A 
HETATM   12  C   UNL     1      41.009 -16.155   5.118  1.00  0.00     0.039 A 
HETATM   13  C   UNL     1      41.422 -16.401   3.811  1.00  0.00     0.022 A 
HETATM   14  C   UNL     1      42.444 -15.631   3.256  1.00  0.00     0.012 A 
HETATM   15 BR   UNL     1      43.021 -15.980   1.490  1.00  0.00    -0.051 Br
HETATM   16  C   UNL     1      43.046 -14.603   3.988  1.00  0.00     0.037 A 
BRANCH  11  17
HETATM   17  O   UNL     1      41.175 -14.976   7.140  1.00  0.00    -0.360 OA
HETATM   18  H   UNL     1      40.200 -14.884   7.124  1.00  0.00     0.217 HD
ENDBRANCH  11  17
ENDBRANCH   4  10
ENDBRANCH   1   2
BRANCH   1  19
HETATM   19  C   UNL     1      44.589  -9.696   9.010  1.00  0.00     0.185 C 
BRANCH  19  20
HETATM   20  C   UNL     1      44.135  -9.866  10.454  1.00  0.00     0.231 C 
HETATM   21  N   UNL     1      43.312  -8.859  10.920  1.00  0.00    -0.326 N 
HETATM   22  H   UNL     1      43.009  -8.170  10.233  1.00  0.00     0.169 HD
HETATM   23  O   UNL     1      44.547 -10.814  11.120  1.00  0.00    -0.272 OA
BRANCH  21  24
HETATM   24  C   UNL     1      42.816  -8.677  12.226  1.00  0.00     0.037 A 
HETATM   25  C   UNL     1      43.325  -7.729  13.120  1.00  0.00     0.061 A 
HETATM   26  C   UNL     1      42.712  -7.638  14.349  1.00  0.00     0.065 A 
HETATM   27  C   UNL     1      41.645  -8.455  14.716  1.00  0.00     0.063 A 
HETATM   28  N   UNL     1      42.973  -6.776  15.410  1.00  0.00    -0.306 N 
HETATM   29  N   UNL     1      41.259  -8.105  16.004  1.00  0.00    -0.307 N 
HETATM   30  C   UNL     1      41.128  -9.402  13.869  1.00  0.00     0.034 A 
HETATM   31  C   UNL     1      42.072  -7.052  16.448  1.00  0.00     0.325 A 
HETATM   32  H   UNL     1      40.512  -8.503  16.549  1.00  0.00     0.170 HD
HETATM   33  O   UNL     1      42.004  -6.487  17.525  1.00  0.00    -0.247 OA
HETATM   34  C   UNL     1      41.721  -9.498  12.604  1.00  0.00     0.032 A 
HETATM   35  H   UNL     1      43.675  -6.054  15.447  1.00  0.00     0.170 HD
ENDBRANCH  21  24
ENDBRANCH  19  20
ENDBRANCH   1  19
TORSDOF 8
ENDMDL
MODEL 8
REMARK VINA RESULT:      -8.1      6.091      9.606
REMARK  8 active torsions:
REMARK  status: ('A' for Active; 'I' for Inactive)
REMARK    1  A    between atoms: C_2  and  C_3 
REMARK    2  A    between atoms: C_3  and  N_4 
REMARK    3  A    between atoms: C_5  and  S_6 
REMARK    4  A    between atoms: S_6  and  C_7 
REMARK    5  A    between atoms: C_7  and  C_8 
REMARK       I    between atoms: C_8  and  N_9 
REMARK    6  A    between atoms: N_9  and  C_10 
REMARK    7  A    between atoms: C_23  and  C_24 
REMARK    8  A    between atoms: C_25  and  O_26 
ROOT
HETATM    1  S   UNL     1      40.786 -10.530   5.888  1.00  0.00    -0.081 SA
ENDROOT
BRANCH   1   2
HETATM    2  C   UNL     1      40.845 -12.240   6.120  1.00  0.00     0.192 A 
HETATM    3  N   UNL     1      41.956 -13.027   5.974  1.00  0.00    -0.304 N 
HETATM    4  C   UNL     1      41.502 -14.325   6.127  1.00  0.00     0.167 A 
HETATM    5  N   UNL     1      40.207 -14.284   6.401  1.00  0.00    -0.128 NA
HETATM    6  N   UNL     1      39.805 -12.979   6.418  1.00  0.00    -0.122 NA
BRANCH   3   7
HETATM    7  C   UNL     1      43.300 -12.591   5.639  1.00  0.00     0.159 C 
BRANCH   7   8
HETATM    8  C   UNL     1      44.182 -12.474   6.847  1.00  0.00    -0.017 C 
HETATM    9  C   UNL     1      44.146 -11.450   7.710  1.00  0.00     0.008 C 
ENDBRANCH   7   8
ENDBRANCH   3   7
BRANCH   4  10
HETATM   10  C   UNL     1      42.226 -15.564   5.850  1.00  0.00     0.046 A 
HETATM   11  C   UNL     1      42.827 -16.271   6.908  1.00  0.00     0.079 A 
HETATM   12  C   UNL     1      43.484 -17.480   6.693  1.00  0.00     0.039 A 
HETATM   13  C   UNL     1      43.582 -17.991   5.401  1.00  0.00     0.022 A 
HETATM   14  C   UNL     1      43.030 -17.279   4.337  1.00  0.00     0.012 A 
HETATM   15 BR   UNL     1      43.183 -17.959   2.579  1.00  0.00    -0.051 Br
HETATM   16  C   UNL     1      42.363 -16.069   4.552  1.00  0.00     0.037 A 
BRANCH  11  17
HETATM   17  O   UNL     1      42.799 -15.819   8.201  1.00  0.00    -0.360 OA
HETATM   18  H   UNL     1      41.924 -15.410   8.367  1.00  0.00     0.217 HD
ENDBRANCH  11  17
ENDBRANCH   4  10
ENDBRANCH   1   2
BRANCH   1  19
HETATM   19  C   UNL     1      39.266 -10.131   6.811  1.00  0.00     0.185 C 
BRANCH  19  20
HETATM   20  C   UNL     1      39.533  -9.431   8.138  1.00  0.00     0.231 C 
HETATM   21  N   UNL     1      40.771  -9.699   8.690  1.00  0.00    -0.326 N 
HETATM   22  H   UNL     1      41.413 -10.241   8.114  1.00  0.00     0.169 HD
HETATM   23  O   UNL     1      38.656  -8.743   8.657  1.00  0.00    -0.272 OA
BRANCH  21  24
HETATM   24  C   UNL     1      41.270  -9.291   9.943  1.00  0.00     0.037 A 
HETATM   25  C   UNL     1      40.544  -9.399  11.135  1.00  0.00     0.061 A 
HETATM   26  C   UNL     1      41.178  -8.998  12.289  1.00  0.00     0.065 A 
HETATM   27  C   UNL     1      42.473  -8.485  12.293  1.00  0.00     0.063 A 
HETATM   28  N   UNL     1      40.725  -9.023  13.605  1.00  0.00    -0.306 N 
HETATM   29  N   UNL     1      42.812  -8.186  13.608  1.00  0.00    -0.307 N 
HETATM   30  C   UNL     1      43.209  -8.355  11.144  1.00  0.00     0.034 A 
HETATM   31  C   UNL     1      41.735  -8.525  14.440  1.00  0.00     0.325 A 
HETATM   32  H   UNL     1      43.682  -7.809  13.945  1.00  0.00     0.170 HD
HETATM   33  O   UNL     1      41.690  -8.411  15.651  1.00  0.00    -0.247 OA
HETATM   34  C   UNL     1      42.594  -8.778   9.958  1.00  0.00     0.032 A 
HETATM   35  H   UNL     1      39.833  -9.356  13.933  1.00  0.00     0.170 HD
ENDBRANCH  21  24
ENDBRANCH  19  20
ENDBRANCH   1  19
TORSDOF 8
ENDMDL
MODEL 9
REMARK VINA RESULT:      -8.1      6.482      9.367
REMARK  8 active torsions:
REMARK  status: ('A' for Active; 'I' for Inactive)
REMARK    1  A    between atoms: C_2  and  C_3 
REMARK    2  A    between atoms: C_3  and  N_4 
REMARK    3  A    between atoms: C_5  and  S_6 
REMARK    4  A    between atoms: S_6  and  C_7 
REMARK    5  A    between atoms: C_7  and  C_8 
REMARK       I    between atoms: C_8  and  N_9 
REMARK    6  A    between atoms: N_9  and  C_10 
REMARK    7  A    between atoms: C_23  and  C_24 
REMARK    8  A    between atoms: C_25  and  O_26 
ROOT
HETATM    1  S   UNL     1      43.333 -11.027   6.194  1.00  0.00    -0.081 SA
ENDROOT
BRANCH   1   2
HETATM    2  C   UNL     1      42.497 -10.093   7.381  1.00  0.00     0.192 A 
HETATM    3  N   UNL     1      42.818 -10.021   8.711  1.00  0.00    -0.304 N 
HETATM    4  C   UNL     1      41.808  -9.271   9.286  1.00  0.00     0.167 A 
HETATM    5  N   UNL     1      40.978  -8.885   8.328  1.00  0.00    -0.128 NA
HETATM    6  N   UNL     1      41.424  -9.382   7.137  1.00  0.00    -0.122 NA
BRANCH   3   7
HETATM    7  C   UNL     1      43.931 -10.671   9.379  1.00  0.00     0.159 C 
BRANCH   7   8
HETATM    8  C   UNL     1      45.075  -9.734   9.632  1.00  0.00    -0.017 C 
HETATM    9  C   UNL     1      45.631  -8.954   8.695  1.00  0.00     0.008 C 
ENDBRANCH   7   8
ENDBRANCH   3   7
BRANCH   4  10
HETATM   10  C   UNL     1      41.539  -9.075  10.709  1.00  0.00     0.046 A 
HETATM   11  C   UNL     1      40.402  -9.664  11.291  1.00  0.00     0.079 A 
HETATM   12  C   UNL     1      40.136  -9.542  12.653  1.00  0.00     0.039 A 
HETATM   13  C   UNL     1      40.992  -8.793  13.457  1.00  0.00     0.022 A 
HETATM   14  C   UNL     1      42.098  -8.165  12.885  1.00  0.00     0.012 A 
HETATM   15 BR   UNL     1      43.248  -7.129  13.972  1.00  0.00    -0.051 Br
HETATM   16  C   UNL     1      42.371  -8.294  11.520  1.00  0.00     0.037 A 
BRANCH  11  17
HETATM   17  O   UNL     1      39.497 -10.391  10.561  1.00  0.00    -0.360 OA
HETATM   18  H   UNL     1      39.518 -10.069   9.636  1.00  0.00     0.217 HD
ENDBRANCH  11  17
ENDBRANCH   4  10
ENDBRANCH   1   2
BRANCH   1  19
HETATM   19  C   UNL     1      41.928 -11.885   5.411  1.00  0.00     0.185 C 
BRANCH  19  20
HETATM   20  C   UNL     1      42.006 -13.401   5.531  1.00  0.00     0.231 C 
HETATM   21  N   UNL     1      42.952 -13.995   4.718  1.00  0.00    -0.326 N 
HETATM   22  H   UNL     1      43.567 -13.364   4.207  1.00  0.00     0.169 HD
HETATM   23  O   UNL     1      41.222 -14.001   6.266  1.00  0.00    -0.272 OA
BRANCH  21  24
HETATM   24  C   UNL     1      43.193 -15.370   4.525  1.00  0.00     0.037 A 
HETATM   25  C   UNL     1      42.889 -16.048   3.339  1.00  0.00     0.061 A 
HETATM   26  C   UNL     1      43.219 -17.383   3.282  1.00  0.00     0.065 A 
HETATM   27  C   UNL     1      43.808 -18.055   4.350  1.00  0.00     0.063 A 
HETATM   28  N   UNL     1      43.073 -18.290   2.236  1.00  0.00    -0.306 N 
HETATM   29  N   UNL     1      44.015 -19.375   3.966  1.00  0.00    -0.307 N 
HETATM   30  C   UNL     1      44.110 -17.425   5.530  1.00  0.00     0.034 A 
HETATM   31  C   UNL     1      43.569 -19.535   2.646  1.00  0.00     0.325 A 
HETATM   32  H   UNL     1      44.430 -20.113   4.510  1.00  0.00     0.170 HD
HETATM   33  O   UNL     1      43.610 -20.557   1.985  1.00  0.00    -0.247 OA
HETATM   34  C   UNL     1      43.804 -16.061   5.605  1.00  0.00     0.032 A 
HETATM   35  H   UNL     1      42.693 -18.105   1.322  1.00  0.00     0.170 HD
ENDBRANCH  21  24
ENDBRANCH  19  20
ENDBRANCH   1  19
TORSDOF 8
ENDMDL
MODEL 10
REMARK VINA RESULT:      -8.1      7.190      9.515
REMARK  8 active torsions:
REMARK  status: ('A' for Active; 'I' for Inactive)
REMARK    1  A    between atoms: C_2  and  C_3 
REMARK    2  A    between atoms: C_3  and  N_4 
REMARK    3  A    between atoms: C_5  and  S_6 
REMARK    4  A    between atoms: S_6  and  C_7 
REMARK    5  A    between atoms: C_7  and  C_8 
REMARK       I    between atoms: C_8  and  N_9 
REMARK    6  A    between atoms: N_9  and  C_10 
REMARK    7  A    between atoms: C_23  and  C_24 
REMARK    8  A    between atoms: C_25  and  O_26 
ROOT
HETATM    1  S   UNL     1      45.509  -9.641   7.893  1.00  0.00    -0.081 SA
ENDROOT
BRANCH   1   2
HETATM    2  C   UNL     1      44.646  -9.954   9.354  1.00  0.00     0.192 A 
HETATM    3  N   UNL     1      43.533  -9.281   9.785  1.00  0.00    -0.304 N 
HETATM    4  C   UNL     1      43.274  -9.781  11.048  1.00  0.00     0.167 A 
HETATM    5  N   UNL     1      44.159 -10.731  11.310  1.00  0.00    -0.128 NA
HETATM    6  N   UNL     1      45.000 -10.852  10.241  1.00  0.00    -0.122 NA
BRANCH   3   7
HETATM    7  C   UNL     1      42.837  -8.210   9.094  1.00  0.00     0.159 C 
BRANCH   7   8
HETATM    8  C   UNL     1      43.367  -6.854   9.456  1.00  0.00    -0.017 C 
HETATM    9  C   UNL     1      42.721  -5.976  10.235  1.00  0.00     0.008 C 
ENDBRANCH   7   8
ENDBRANCH   3   7
BRANCH   4  10
HETATM   10  C   UNL     1      42.338  -9.259  12.042  1.00  0.00     0.046 A 
HETATM   11  C   UNL     1      40.970  -9.572  11.940  1.00  0.00     0.079 A 
HETATM   12  C   UNL     1      40.052  -9.135  12.893  1.00  0.00     0.039 A 
HETATM   13  C   UNL     1      40.485  -8.343  13.954  1.00  0.00     0.022 A 
HETATM   14  C   UNL     1      41.830  -7.988  14.042  1.00  0.00     0.012 A 
HETATM   15 BR   UNL     1      42.415  -6.894  15.469  1.00  0.00    -0.051 Br
HETATM   16  C   UNL     1      42.754  -8.433  13.092  1.00  0.00     0.037 A 
BRANCH  11  17
HETATM   17  O   UNL     1      40.462 -10.320  10.911  1.00  0.00    -0.360 OA
HETATM   18  H   UNL     1      40.677 -11.261  11.078  1.00  0.00     0.217 HD
ENDBRANCH  11  17
ENDBRANCH   4  10
ENDBRANCH   1   2
BRANCH   1  19
HETATM   19  C   UNL     1      45.548 -11.316   7.175  1.00  0.00     0.185 C 
BRANCH  19  20
HETATM   20  C   UNL     1      44.228 -11.730   6.538  1.00  0.00     0.231 C 
HETATM   21  N   UNL     1      44.073 -13.093   6.371  1.00  0.00    -0.326 N 
HETATM   22  H   UNL     1      44.796 -13.682   6.780  1.00  0.00     0.169 HD
HETATM   23  O   UNL     1      43.427 -10.872   6.169  1.00  0.00    -0.272 OA
BRANCH  21  24
HETATM   24  C   UNL     1      43.022 -13.775   5.726  1.00  0.00     0.037 A 
HETATM   25  C   UNL     1      42.830 -13.762   4.340  1.00  0.00     0.061 A 
HETATM   26  C   UNL     1      41.783 -14.510   3.849  1.00  0.00     0.065 A 
HETATM   27  C   UNL     1      40.929 -15.237   4.675  1.00  0.00     0.063 A 
HETATM   28  N   UNL     1      41.378 -14.714   2.533  1.00  0.00    -0.306 N 
HETATM   29  N   UNL     1      39.995 -15.878   3.870  1.00  0.00    -0.307 N 
HETATM   30  C   UNL     1      41.082 -15.263   6.038  1.00  0.00     0.034 A 
HETATM   31  C   UNL     1      40.267 -15.569   2.530  1.00  0.00     0.325 A 
HETATM   32  H   UNL     1      39.248 -16.485   4.164  1.00  0.00     0.170 HD
HETATM   33  O   UNL     1      39.658 -15.969   1.554  1.00  0.00    -0.247 OA
HETATM   34  C   UNL     1      42.153 -14.528   6.560  1.00  0.00     0.032 A 
HETATM   35  H   UNL     1      41.805 -14.338   1.702  1.00  0.00     0.170 HD
ENDBRANCH  21  24
ENDBRANCH  19  20
ENDBRANCH   1  19
TORSDOF 8
ENDMDL
