MODEL 1
REMARK VINA RESULT:     -10.7      0.000      0.000
REMARK  10 active torsions:
REMARK  status: ('A' for Active; 'I' for Inactive)
REMARK    1  A    between atoms: N_1  and  C_2 
REMARK    2  A    between atoms: C_2  and  C_3 
REMARK    3  A    between atoms: C_6  and  C_33 
REMARK    4  A    between atoms: C_8  and  C_9 
REMARK    5  A    between atoms: C_13  and  C_15 
REMARK       I    between atoms: C_15  and  N_17 
REMARK    6  A    between atoms: N_17  and  C_18 
REMARK    7  A    between atoms: C_22  and  C_23 
REMARK    8  A    between atoms: C_23  and  O_25 
REMARK    9  A    between atoms: O_25  and  C_26 
REMARK       I    between atoms: C_33  and  N_35 
REMARK   10  A    between atoms: N_35  and  C_36 
ROOT
HETATM    1  C   UNL     1      44.288 -11.757   6.676  1.00  0.00    -0.024 A 
HETATM    2  C   UNL     1      45.610 -11.317   6.500  1.00  0.00     0.012 A 
HETATM    3  C   UNL     1      46.284 -10.596   7.495  1.00  0.00     0.002 A 
HETATM    4  C   UNL     1      45.667 -10.338   8.716  1.00  0.00     0.017 A 
HETATM    5  C   UNL     1      44.366 -10.796   8.933  1.00  0.00     0.033 A 
HETATM    6  C   UNL     1      43.682 -11.477   7.915  1.00  0.00     0.029 A 
ENDROOT
BRANCH   1   7
HETATM    7  C   UNL     1      43.569 -12.554   5.648  1.00  0.00    -0.017 A 
HETATM    8  C   UNL     1      42.797 -11.996   4.599  1.00  0.00    -0.020 A 
HETATM    9  C   UNL     1      42.152 -12.853   3.679  1.00  0.00     0.011 A 
HETATM   10  C   UNL     1      42.219 -14.239   3.806  1.00  0.00     0.017 A 
HETATM   11  C   UNL     1      42.954 -14.807   4.843  1.00  0.00     0.033 A 
HETATM   12  C   UNL     1      43.628 -13.968   5.742  1.00  0.00     0.030 A 
BRANCH   8  13
HETATM   13  C   UNL     1      42.582 -10.510   4.406  1.00  0.00     0.306 C 
BRANCH  13  14
HETATM   14  N   UNL     1      42.166 -10.200   3.043  1.00  0.00     0.082 N 
HETATM   15  H   UNL     1      42.650 -10.823   2.399  1.00  0.00     0.313 HD
HETATM   16  H   UNL     1      42.471  -9.257   2.805  1.00  0.00     0.313 HD
ENDBRANCH  13  14
ENDBRANCH   8  13
BRANCH  11  17
HETATM   17  C   UNL     1      42.910 -16.290   5.017  1.00  0.00     0.256 C 
HETATM   18  O   UNL     1      42.463 -16.739   6.067  1.00  0.00    -0.267 OA
HETATM   19  N   UNL     1      43.378 -17.038   3.954  1.00  0.00    -0.320 N 
HETATM   20  H   UNL     1      43.539 -16.569   3.069  1.00  0.00     0.169 HD
BRANCH  19  21
HETATM   21  C   UNL     1      43.609 -18.434   3.936  1.00  0.00     0.076 A 
HETATM   22  C   UNL     1      44.049 -19.169   5.034  1.00  0.00     0.052 A 
HETATM   23  C   UNL     1      44.269 -20.532   4.875  1.00  0.00     0.118 A 
HETATM   24  N   UNL     1      44.083 -21.200   3.714  1.00  0.00    -0.270 NA
HETATM   25  C   UNL     1      43.658 -20.466   2.662  1.00  0.00     0.160 A 
HETATM   26  C   UNL     1      43.416 -19.105   2.729  1.00  0.00     0.160 A 
HETATM   27  F   UNL     1      43.004 -18.437   1.640  1.00  0.00    -0.202 F 
ENDBRANCH  19  21
ENDBRANCH  11  17
ENDBRANCH   1   7
BRANCH   5  28
HETATM   28  C   UNL     1      43.728 -10.714  10.271  1.00  0.00     0.256 C 
HETATM   29  O   UNL     1      44.224 -11.370  11.182  1.00  0.00    -0.267 OA
HETATM   30  N   UNL     1      42.605  -9.915  10.360  1.00  0.00    -0.320 N 
HETATM   31  H   UNL     1      42.145  -9.643   9.496  1.00  0.00     0.169 HD
BRANCH  30  32
HETATM   32  C   UNL     1      41.923  -9.573  11.553  1.00  0.00     0.075 A 
HETATM   33  C   UNL     1      40.685 -10.120  11.907  1.00  0.00     0.033 A 
HETATM   34  C   UNL     1      40.059  -9.749  13.099  1.00  0.00     0.003 A 
HETATM   35  C   UNL     1      40.665  -8.821  13.945  1.00  0.00     0.021 A 
HETATM   36  C   UNL     1      41.910  -8.271  13.612  1.00  0.00     0.080 A 
HETATM   37  C   UNL     1      42.536  -8.659  12.424  1.00  0.00     0.159 A 
HETATM   38  F   UNL     1      43.717  -8.134  12.057  1.00  0.00    -0.203 F 
BRANCH  36  39
HETATM   39  C   UNL     1      42.473  -7.261  14.531  1.00  0.00     0.296 C 
HETATM   40  O   UNL     1      43.646  -6.921  14.493  1.00  0.00    -0.259 OA
BRANCH  39  41
HETATM   41  O   UNL     1      41.525  -6.747  15.349  1.00  0.00    -0.312 OA
BRANCH  41  42
HETATM   42  C   UNL     1      41.850  -6.774  16.741  1.00  0.00     0.132 C 
HETATM   43  C   UNL     1      41.671  -5.414  17.407  1.00  0.00     0.032 C 
HETATM   44  C   UNL     1      41.544  -5.775  18.876  1.00  0.00     0.002 C 
HETATM   45  C   UNL     1      40.710  -7.051  18.882  1.00  0.00     0.002 C 
HETATM   46  C   UNL     1      40.857  -7.664  17.489  1.00  0.00     0.032 C 
ENDBRANCH  41  42
ENDBRANCH  39  41
ENDBRANCH  36  39
ENDBRANCH  30  32
ENDBRANCH   5  28
TORSDOF 10
ENDMDL
MODEL 2
REMARK VINA RESULT:     -10.3      1.848      2.704
REMARK  10 active torsions:
REMARK  status: ('A' for Active; 'I' for Inactive)
REMARK    1  A    between atoms: N_1  and  C_2 
REMARK    2  A    between atoms: C_2  and  C_3 
REMARK    3  A    between atoms: C_6  and  C_33 
REMARK    4  A    between atoms: C_8  and  C_9 
REMARK    5  A    between atoms: C_13  and  C_15 
REMARK       I    between atoms: C_15  and  N_17 
REMARK    6  A    between atoms: N_17  and  C_18 
REMARK    7  A    between atoms: C_22  and  C_23 
REMARK    8  A    between atoms: C_23  and  O_25 
REMARK    9  A    between atoms: O_25  and  C_26 
REMARK       I    between atoms: C_33  and  N_35 
REMARK   10  A    between atoms: N_35  and  C_36 
ROOT
HETATM    1  C   UNL     1      44.093 -11.632   6.399  1.00  0.00    -0.024 A 
HETATM    2  C   UNL     1      45.478 -11.430   6.279  1.00  0.00     0.012 A 
HETATM    3  C   UNL     1      46.229 -10.849   7.310  1.00  0.00     0.002 A 
HETATM    4  C   UNL     1      45.620 -10.500   8.513  1.00  0.00     0.017 A 
HETATM    5  C   UNL     1      44.252 -10.724   8.674  1.00  0.00     0.033 A 
HETATM    6  C   UNL     1      43.498 -11.262   7.620  1.00  0.00     0.029 A 
ENDROOT
BRANCH   1   7
HETATM    7  C   UNL     1      43.286 -12.278   5.331  1.00  0.00    -0.017 A 
HETATM    8  C   UNL     1      42.492 -11.573   4.392  1.00  0.00    -0.020 A 
HETATM    9  C   UNL     1      41.760 -12.294   3.421  1.00  0.00     0.011 A 
HETATM   10  C   UNL     1      41.764 -13.688   3.394  1.00  0.00     0.017 A 
HETATM   11  C   UNL     1      42.520 -14.398   4.322  1.00  0.00     0.033 A 
HETATM   12  C   UNL     1      43.279 -13.694   5.269  1.00  0.00     0.030 A 
BRANCH   8  13
HETATM   13  C   UNL     1      42.342 -10.067   4.372  1.00  0.00     0.306 C 
BRANCH  13  14
HETATM   14  N   UNL     1      41.101  -9.643   5.012  1.00  0.00     0.082 N 
HETATM   15  H   UNL     1      40.659  -8.930   4.435  1.00  0.00     0.313 HD
HETATM   16  H   UNL     1      41.319  -9.193   5.900  1.00  0.00     0.313 HD
ENDBRANCH  13  14
ENDBRANCH   8  13
BRANCH  11  17
HETATM   17  C   UNL     1      42.411 -15.888   4.338  1.00  0.00     0.256 C 
HETATM   18  O   UNL     1      41.527 -16.399   5.017  1.00  0.00    -0.267 OA
HETATM   19  N   UNL     1      43.328 -16.570   3.562  1.00  0.00    -0.320 N 
HETATM   20  H   UNL     1      43.883 -16.042   2.896  1.00  0.00     0.169 HD
BRANCH  19  21
HETATM   21  C   UNL     1      43.552 -17.967   3.544  1.00  0.00     0.076 A 
HETATM   22  C   UNL     1      43.232 -18.798   2.472  1.00  0.00     0.052 A 
HETATM   23  C   UNL     1      43.473 -20.161   2.594  1.00  0.00     0.118 A 
HETATM   24  N   UNL     1      44.003 -20.742   3.694  1.00  0.00    -0.270 NA
HETATM   25  C   UNL     1      44.303 -19.917   4.722  1.00  0.00     0.160 A 
HETATM   26  C   UNL     1      44.094 -18.549   4.689  1.00  0.00     0.160 A 
HETATM   27  F   UNL     1      44.408 -17.792   5.752  1.00  0.00    -0.202 F 
ENDBRANCH  19  21
ENDBRANCH  11  17
ENDBRANCH   1   7
BRANCH   5  28
HETATM   28  C   UNL     1      43.585 -10.545   9.989  1.00  0.00     0.256 C 
HETATM   29  O   UNL     1      44.092 -11.092  10.964  1.00  0.00    -0.267 OA
HETATM   30  N   UNL     1      42.429  -9.790   9.986  1.00  0.00    -0.320 N 
HETATM   31  H   UNL     1      41.974  -9.620   9.094  1.00  0.00     0.169 HD
BRANCH  30  32
HETATM   32  C   UNL     1      41.712  -9.368  11.132  1.00  0.00     0.075 A 
HETATM   33  C   UNL     1      40.485  -9.922  11.510  1.00  0.00     0.033 A 
HETATM   34  C   UNL     1      39.823  -9.470  12.653  1.00  0.00     0.003 A 
HETATM   35  C   UNL     1      40.381  -8.453  13.425  1.00  0.00     0.021 A 
HETATM   36  C   UNL     1      41.616  -7.894  13.069  1.00  0.00     0.080 A 
HETATM   37  C   UNL     1      42.278  -8.363  11.931  1.00  0.00     0.159 A 
HETATM   38  F   UNL     1      43.450  -7.834  11.541  1.00  0.00    -0.203 F 
BRANCH  36  39
HETATM   39  C   UNL     1      42.128  -6.789  13.906  1.00  0.00     0.296 C 
HETATM   40  O   UNL     1      42.935  -6.969  14.806  1.00  0.00    -0.259 OA
BRANCH  39  41
HETATM   41  O   UNL     1      41.636  -5.592  13.509  1.00  0.00    -0.312 OA
BRANCH  41  42
HETATM   42  C   UNL     1      42.557  -4.771  12.788  1.00  0.00     0.132 C 
HETATM   43  C   UNL     1      42.262  -4.742  11.292  1.00  0.00     0.032 C 
HETATM   44  C   UNL     1      42.962  -3.473  10.838  1.00  0.00     0.002 C 
HETATM   45  C   UNL     1      42.710  -2.478  11.966  1.00  0.00     0.002 C 
HETATM   46  C   UNL     1      42.390  -3.311  13.207  1.00  0.00     0.032 C 
ENDBRANCH  41  42
ENDBRANCH  39  41
ENDBRANCH  36  39
ENDBRANCH  30  32
ENDBRANCH   5  28
TORSDOF 10
ENDMDL
MODEL 3
REMARK VINA RESULT:     -10.2      1.978      2.385
REMARK  10 active torsions:
REMARK  status: ('A' for Active; 'I' for Inactive)
REMARK    1  A    between atoms: N_1  and  C_2 
REMARK    2  A    between atoms: C_2  and  C_3 
REMARK    3  A    between atoms: C_6  and  C_33 
REMARK    4  A    between atoms: C_8  and  C_9 
REMARK    5  A    between atoms: C_13  and  C_15 
REMARK       I    between atoms: C_15  and  N_17 
REMARK    6  A    between atoms: N_17  and  C_18 
REMARK    7  A    between atoms: C_22  and  C_23 
REMARK    8  A    between atoms: C_23  and  O_25 
REMARK    9  A    between atoms: O_25  and  C_26 
REMARK       I    between atoms: C_33  and  N_35 
REMARK   10  A    between atoms: N_35  and  C_36 
ROOT
HETATM    1  C   UNL     1      44.263 -11.697   6.567  1.00  0.00    -0.024 A 
HETATM    2  C   UNL     1      45.633 -11.452   6.377  1.00  0.00     0.012 A 
HETATM    3  C   UNL     1      46.392 -10.748   7.321  1.00  0.00     0.002 A 
HETATM    4  C   UNL     1      45.809 -10.311   8.508  1.00  0.00     0.017 A 
HETATM    5  C   UNL     1      44.458 -10.573   8.741  1.00  0.00     0.033 A 
HETATM    6  C   UNL     1      43.694 -11.238   7.770  1.00  0.00     0.029 A 
ENDROOT
BRANCH   1   7
HETATM    7  C   UNL     1      43.449 -12.472   5.595  1.00  0.00    -0.017 A 
HETATM    8  C   UNL     1      42.605 -11.891   4.615  1.00  0.00    -0.020 A 
HETATM    9  C   UNL     1      41.872 -12.729   3.745  1.00  0.00     0.011 A 
HETATM   10  C   UNL     1      41.924 -14.117   3.856  1.00  0.00     0.017 A 
HETATM   11  C   UNL     1      42.730 -14.706   4.825  1.00  0.00     0.033 A 
HETATM   12  C   UNL     1      43.490 -13.887   5.673  1.00  0.00     0.030 A 
BRANCH   8  13
HETATM   13  C   UNL     1      42.401 -10.400   4.452  1.00  0.00     0.306 C 
BRANCH  13  14
HETATM   14  N   UNL     1      40.996 -10.069   4.243  1.00  0.00     0.082 N 
HETATM   15  H   UNL     1      40.430 -10.893   4.438  1.00  0.00     0.313 HD
HETATM   16  H   UNL     1      40.845  -9.849   3.260  1.00  0.00     0.313 HD
ENDBRANCH  13  14
ENDBRANCH   8  13
BRANCH  11  17
HETATM   17  C   UNL     1      42.674 -16.189   4.991  1.00  0.00     0.256 C 
HETATM   18  O   UNL     1      42.040 -16.645   5.937  1.00  0.00    -0.267 OA
HETATM   19  N   UNL     1      43.347 -16.931   4.040  1.00  0.00    -0.320 N 
HETATM   20  H   UNL     1      43.669 -16.460   3.201  1.00  0.00     0.169 HD
BRANCH  19  21
HETATM   21  C   UNL     1      43.597 -18.324   4.070  1.00  0.00     0.076 A 
HETATM   22  C   UNL     1      44.011 -19.021   5.203  1.00  0.00     0.052 A 
HETATM   23  C   UNL     1      44.254 -20.384   5.091  1.00  0.00     0.118 A 
HETATM   24  N   UNL     1      44.112 -21.089   3.945  1.00  0.00    -0.270 NA
HETATM   25  C   UNL     1      43.712 -20.391   2.859  1.00  0.00     0.160 A 
HETATM   26  C   UNL     1      43.451 -19.032   2.878  1.00  0.00     0.160 A 
HETATM   27  F   UNL     1      43.065 -18.402   1.758  1.00  0.00    -0.202 F 
ENDBRANCH  19  21
ENDBRANCH  11  17
ENDBRANCH   1   7
BRANCH   5  28
HETATM   28  C   UNL     1      43.829 -10.299  10.058  1.00  0.00     0.256 C 
HETATM   29  O   UNL     1      43.820 -11.205  10.885  1.00  0.00    -0.267 OA
HETATM   30  N   UNL     1      43.285  -9.040  10.220  1.00  0.00    -0.320 N 
HETATM   31  H   UNL     1      43.121  -8.482   9.387  1.00  0.00     0.169 HD
BRANCH  30  32
HETATM   32  C   UNL     1      42.770  -8.509  11.428  1.00  0.00     0.075 A 
HETATM   33  C   UNL     1      43.559  -8.288  12.561  1.00  0.00     0.033 A 
HETATM   34  C   UNL     1      42.999  -7.758  13.725  1.00  0.00     0.003 A 
HETATM   35  C   UNL     1      41.640  -7.451  13.767  1.00  0.00     0.021 A 
HETATM   36  C   UNL     1      40.836  -7.655  12.637  1.00  0.00     0.080 A 
HETATM   37  C   UNL     1      41.409  -8.173  11.472  1.00  0.00     0.159 A 
HETATM   38  F   UNL     1      40.665  -8.407  10.377  1.00  0.00    -0.203 F 
BRANCH  36  39
HETATM   39  C   UNL     1      39.396  -7.350  12.765  1.00  0.00     0.296 C 
HETATM   40  O   UNL     1      38.536  -8.218  12.725  1.00  0.00    -0.259 OA
BRANCH  39  41
HETATM   41  O   UNL     1      39.182  -6.031  12.982  1.00  0.00    -0.312 OA
BRANCH  41  42
HETATM   42  C   UNL     1      38.315  -5.733  14.080  1.00  0.00     0.132 C 
HETATM   43  C   UNL     1      39.056  -5.090  15.247  1.00  0.00     0.032 C 
HETATM   44  C   UNL     1      37.939  -4.405  16.015  1.00  0.00     0.002 C 
HETATM   45  C   UNL     1      37.023  -3.846  14.931  1.00  0.00     0.002 C 
HETATM   46  C   UNL     1      37.308  -4.660  13.669  1.00  0.00     0.032 C 
ENDBRANCH  41  42
ENDBRANCH  39  41
ENDBRANCH  36  39
ENDBRANCH  30  32
ENDBRANCH   5  28
TORSDOF 10
ENDMDL
MODEL 4
REMARK VINA RESULT:      -9.8      3.758     12.612
REMARK  10 active torsions:
REMARK  status: ('A' for Active; 'I' for Inactive)
REMARK    1  A    between atoms: N_1  and  C_2 
REMARK    2  A    between atoms: C_2  and  C_3 
REMARK    3  A    between atoms: C_6  and  C_33 
REMARK    4  A    between atoms: C_8  and  C_9 
REMARK    5  A    between atoms: C_13  and  C_15 
REMARK       I    between atoms: C_15  and  N_17 
REMARK    6  A    between atoms: N_17  and  C_18 
REMARK    7  A    between atoms: C_22  and  C_23 
REMARK    8  A    between atoms: C_23  and  O_25 
REMARK    9  A    between atoms: O_25  and  C_26 
REMARK       I    between atoms: C_33  and  N_35 
REMARK   10  A    between atoms: N_35  and  C_36 
ROOT
HETATM    1  C   UNL     1      44.706  -9.589   9.067  1.00  0.00    -0.024 A 
HETATM    2  C   UNL     1      45.967  -9.182   8.602  1.00  0.00     0.012 A 
HETATM    3  C   UNL     1      46.609  -9.838   7.544  1.00  0.00     0.002 A 
HETATM    4  C   UNL     1      45.980 -10.893   6.886  1.00  0.00     0.017 A 
HETATM    5  C   UNL     1      44.710 -11.295   7.302  1.00  0.00     0.033 A 
HETATM    6  C   UNL     1      44.094 -10.663   8.393  1.00  0.00     0.029 A 
ENDROOT
BRANCH   1   7
HETATM    7  C   UNL     1      43.994  -8.884  10.164  1.00  0.00    -0.017 A 
HETATM    8  C   UNL     1      43.826  -9.403  11.473  1.00  0.00    -0.020 A 
HETATM    9  C   UNL     1      43.125  -8.644  12.437  1.00  0.00     0.011 A 
HETATM   10  C   UNL     1      42.552  -7.414  12.118  1.00  0.00     0.017 A 
HETATM   11  C   UNL     1      42.687  -6.897  10.833  1.00  0.00     0.033 A 
HETATM   12  C   UNL     1      43.410  -7.624   9.876  1.00  0.00     0.030 A 
BRANCH   8  13
HETATM   13  C   UNL     1      44.329 -10.761  11.914  1.00  0.00     0.306 C 
BRANCH  13  14
HETATM   14  N   UNL     1      43.250 -11.587  12.445  1.00  0.00     0.082 N 
HETATM   15  H   UNL     1      43.482 -12.568  12.299  1.00  0.00     0.313 HD
HETATM   16  H   UNL     1      42.401 -11.415  11.908  1.00  0.00     0.313 HD
ENDBRANCH  13  14
ENDBRANCH   8  13
BRANCH  11  17
HETATM   17  C   UNL     1      41.965  -5.634  10.495  1.00  0.00     0.256 C 
HETATM   18  O   UNL     1      42.630  -4.644  10.207  1.00  0.00    -0.267 OA
HETATM   19  N   UNL     1      40.586  -5.697  10.527  1.00  0.00    -0.320 N 
HETATM   20  H   UNL     1      40.147  -6.610  10.586  1.00  0.00     0.169 HD
BRANCH  19  21
HETATM   21  C   UNL     1      39.684  -4.611  10.426  1.00  0.00     0.076 A 
HETATM   22  C   UNL     1      39.594  -3.578  11.356  1.00  0.00     0.052 A 
HETATM   23  C   UNL     1      38.642  -2.587  11.156  1.00  0.00     0.118 A 
HETATM   24  N   UNL     1      37.788  -2.555  10.108  1.00  0.00    -0.270 NA
HETATM   25  C   UNL     1      37.892  -3.569   9.220  1.00  0.00     0.160 A 
HETATM   26  C   UNL     1      38.808  -4.599   9.341  1.00  0.00     0.160 A 
HETATM   27  F   UNL     1      38.849  -5.578   8.424  1.00  0.00    -0.202 F 
ENDBRANCH  19  21
ENDBRANCH  11  17
ENDBRANCH   1   7
BRANCH   5  28
HETATM   28  C   UNL     1      43.917 -12.284   6.529  1.00  0.00     0.256 C 
HETATM   29  O   UNL     1      43.772 -12.084   5.327  1.00  0.00    -0.267 OA
HETATM   30  N   UNL     1      43.389 -13.337   7.250  1.00  0.00    -0.320 N 
HETATM   31  H   UNL     1      43.353 -13.250   8.261  1.00  0.00     0.169 HD
BRANCH  30  32
HETATM   32  C   UNL     1      42.730 -14.467   6.706  1.00  0.00     0.075 A 
HETATM   33  C   UNL     1      41.373 -14.466   6.365  1.00  0.00     0.033 A 
HETATM   34  C   UNL     1      40.775 -15.608   5.828  1.00  0.00     0.003 A 
HETATM   35  C   UNL     1      41.529 -16.763   5.633  1.00  0.00     0.021 A 
HETATM   36  C   UNL     1      42.893 -16.779   5.958  1.00  0.00     0.080 A 
HETATM   37  C   UNL     1      43.486 -15.627   6.482  1.00  0.00     0.159 A 
HETATM   38  F   UNL     1      44.784 -15.611   6.830  1.00  0.00    -0.203 F 
BRANCH  36  39
HETATM   39  C   UNL     1      43.621 -18.050   5.768  1.00  0.00     0.296 C 
HETATM   40  O   UNL     1      43.263 -19.095   6.290  1.00  0.00    -0.259 OA
BRANCH  39  41
HETATM   41  O   UNL     1      44.666 -17.905   4.920  1.00  0.00    -0.312 OA
BRANCH  41  42
HETATM   42  C   UNL     1      44.564 -18.648   3.703  1.00  0.00     0.132 C 
HETATM   43  C   UNL     1      44.061 -20.069   3.930  1.00  0.00     0.032 C 
HETATM   44  C   UNL     1      43.540 -20.463   2.559  1.00  0.00     0.002 C 
HETATM   45  C   UNL     1      42.873 -19.198   2.030  1.00  0.00     0.002 C 
HETATM   46  C   UNL     1      43.488 -18.034   2.808  1.00  0.00     0.032 C 
ENDBRANCH  41  42
ENDBRANCH  39  41
ENDBRANCH  36  39
ENDBRANCH  30  32
ENDBRANCH   5  28
TORSDOF 10
ENDMDL
MODEL 5
REMARK VINA RESULT:      -9.6      3.034     12.712
REMARK  10 active torsions:
REMARK  status: ('A' for Active; 'I' for Inactive)
REMARK    1  A    between atoms: N_1  and  C_2 
REMARK    2  A    between atoms: C_2  and  C_3 
REMARK    3  A    between atoms: C_6  and  C_33 
REMARK    4  A    between atoms: C_8  and  C_9 
REMARK    5  A    between atoms: C_13  and  C_15 
REMARK       I    between atoms: C_15  and  N_17 
REMARK    6  A    between atoms: N_17  and  C_18 
REMARK    7  A    between atoms: C_22  and  C_23 
REMARK    8  A    between atoms: C_23  and  O_25 
REMARK    9  A    between atoms: O_25  and  C_26 
REMARK       I    between atoms: C_33  and  N_35 
REMARK   10  A    between atoms: N_35  and  C_36 
ROOT
HETATM    1  C   UNL     1      42.365  -8.725   8.057  1.00  0.00    -0.024 A 
HETATM    2  C   UNL     1      41.925  -7.606   7.331  1.00  0.00     0.012 A 
HETATM    3  C   UNL     1      41.460  -7.720   6.014  1.00  0.00     0.002 A 
HETATM    4  C   UNL     1      41.377  -8.969   5.403  1.00  0.00     0.017 A 
HETATM    5  C   UNL     1      41.772 -10.103   6.114  1.00  0.00     0.033 A 
HETATM    6  C   UNL     1      42.280  -9.975   7.416  1.00  0.00     0.029 A 
ENDROOT
BRANCH   1   7
HETATM    7  C   UNL     1      42.827  -8.630   9.466  1.00  0.00    -0.017 A 
HETATM    8  C   UNL     1      44.074  -9.117   9.934  1.00  0.00    -0.020 A 
HETATM    9  C   UNL     1      44.407  -8.975  11.300  1.00  0.00     0.011 A 
HETATM   10  C   UNL     1      43.517  -8.409  12.211  1.00  0.00     0.017 A 
HETATM   11  C   UNL     1      42.279  -7.946  11.775  1.00  0.00     0.033 A 
HETATM   12  C   UNL     1      41.950  -8.048  10.416  1.00  0.00     0.030 A 
BRANCH   8  13
HETATM   13  C   UNL     1      45.087  -9.823   9.059  1.00  0.00     0.306 C 
BRANCH  13  14
HETATM   14  N   UNL     1      45.944  -8.874   8.356  1.00  0.00     0.082 N 
HETATM   15  H   UNL     1      46.664  -9.389   7.851  1.00  0.00     0.313 HD
HETATM   16  H   UNL     1      46.435  -8.297   9.037  1.00  0.00     0.313 HD
ENDBRANCH  13  14
ENDBRANCH   8  13
BRANCH  11  17
HETATM   17  C   UNL     1      41.306  -7.450  12.795  1.00  0.00     0.256 C 
HETATM   18  O   UNL     1      40.122  -7.382  12.483  1.00  0.00    -0.267 OA
HETATM   19  N   UNL     1      41.836  -7.116  14.026  1.00  0.00    -0.320 N 
HETATM   20  H   UNL     1      42.790  -7.396  14.231  1.00  0.00     0.169 HD
BRANCH  19  21
HETATM   21  C   UNL     1      41.169  -6.463  15.088  1.00  0.00     0.076 A 
HETATM   22  C   UNL     1      40.540  -7.122  16.142  1.00  0.00     0.052 A 
HETATM   23  C   UNL     1      39.890  -6.362  17.107  1.00  0.00     0.118 A 
HETATM   24  N   UNL     1      39.826  -5.011  17.093  1.00  0.00    -0.270 NA
HETATM   25  C   UNL     1      40.441  -4.393  16.059  1.00  0.00     0.160 A 
HETATM   26  C   UNL     1      41.108  -5.070  15.053  1.00  0.00     0.160 A 
HETATM   27  F   UNL     1      41.689  -4.391  14.052  1.00  0.00    -0.202 F 
ENDBRANCH  19  21
ENDBRANCH  11  17
ENDBRANCH   1   7
BRANCH   5  28
HETATM   28  C   UNL     1      41.535 -11.471   5.588  1.00  0.00     0.256 C 
HETATM   29  O   UNL     1      41.282 -11.587   4.393  1.00  0.00    -0.267 OA
HETATM   30  N   UNL     1      41.598 -12.496   6.512  1.00  0.00    -0.320 N 
HETATM   31  H   UNL     1      41.549 -12.253   7.496  1.00  0.00     0.169 HD
BRANCH  30  32
HETATM   32  C   UNL     1      41.551 -13.881   6.218  1.00  0.00     0.075 A 
HETATM   33  C   UNL     1      40.368 -14.627   6.248  1.00  0.00     0.033 A 
HETATM   34  C   UNL     1      40.380 -15.990   5.945  1.00  0.00     0.003 A 
HETATM   35  C   UNL     1      41.578 -16.620   5.615  1.00  0.00     0.021 A 
HETATM   36  C   UNL     1      42.771 -15.886   5.568  1.00  0.00     0.080 A 
HETATM   37  C   UNL     1      42.748 -14.520   5.860  1.00  0.00     0.159 A 
HETATM   38  F   UNL     1      43.875 -13.788   5.852  1.00  0.00    -0.203 F 
BRANCH  36  39
HETATM   39  C   UNL     1      44.011 -16.627   5.256  1.00  0.00     0.296 C 
HETATM   40  O   UNL     1      44.996 -16.591   5.979  1.00  0.00    -0.259 OA
BRANCH  39  41
HETATM   41  O   UNL     1      43.882 -17.364   4.128  1.00  0.00    -0.312 OA
BRANCH  41  42
HETATM   42  C   UNL     1      44.401 -18.694   4.214  1.00  0.00     0.132 C 
HETATM   43  C   UNL     1      43.844 -19.459   5.408  1.00  0.00     0.032 C 
HETATM   44  C   UNL     1      44.080 -20.907   5.018  1.00  0.00     0.002 C 
HETATM   45  C   UNL     1      43.777 -20.950   3.524  1.00  0.00     0.002 C 
HETATM   46  C   UNL     1      43.923 -19.516   3.017  1.00  0.00     0.032 C 
ENDBRANCH  41  42
ENDBRANCH  39  41
ENDBRANCH  36  39
ENDBRANCH  30  32
ENDBRANCH   5  28
TORSDOF 10
ENDMDL
MODEL 6
REMARK VINA RESULT:      -9.6      1.991      2.373
REMARK  10 active torsions:
REMARK  status: ('A' for Active; 'I' for Inactive)
REMARK    1  A    between atoms: N_1  and  C_2 
REMARK    2  A    between atoms: C_2  and  C_3 
REMARK    3  A    between atoms: C_6  and  C_33 
REMARK    4  A    between atoms: C_8  and  C_9 
REMARK    5  A    between atoms: C_13  and  C_15 
REMARK       I    between atoms: C_15  and  N_17 
REMARK    6  A    between atoms: N_17  and  C_18 
REMARK    7  A    between atoms: C_22  and  C_23 
REMARK    8  A    between atoms: C_23  and  O_25 
REMARK    9  A    between atoms: O_25  and  C_26 
REMARK       I    between atoms: C_33  and  N_35 
REMARK   10  A    between atoms: N_35  and  C_36 
ROOT
HETATM    1  C   UNL     1      43.617 -11.678   6.445  1.00  0.00    -0.024 A 
HETATM    2  C   UNL     1      44.908 -11.767   5.898  1.00  0.00     0.012 A 
HETATM    3  C   UNL     1      46.023 -11.224   6.549  1.00  0.00     0.002 A 
HETATM    4  C   UNL     1      45.883 -10.617   7.795  1.00  0.00     0.017 A 
HETATM    5  C   UNL     1      44.618 -10.547   8.381  1.00  0.00     0.033 A 
HETATM    6  C   UNL     1      43.499 -11.052   7.700  1.00  0.00     0.029 A 
ENDROOT
BRANCH   1   7
HETATM    7  C   UNL     1      42.429 -12.279   5.787  1.00  0.00    -0.017 A 
HETATM    8  C   UNL     1      41.162 -11.650   5.695  1.00  0.00    -0.020 A 
HETATM    9  C   UNL     1      40.098 -12.320   5.049  1.00  0.00     0.011 A 
HETATM   10  C   UNL     1      40.253 -13.607   4.538  1.00  0.00     0.017 A 
HETATM   11  C   UNL     1      41.483 -14.251   4.638  1.00  0.00     0.033 A 
HETATM   12  C   UNL     1      42.557 -13.583   5.246  1.00  0.00     0.030 A 
BRANCH   8  13
HETATM   13  C   UNL     1      40.848 -10.290   6.283  1.00  0.00     0.306 C 
BRANCH  13  14
HETATM   14  N   UNL     1      39.977 -10.397   7.448  1.00  0.00     0.082 N 
HETATM   15  H   UNL     1      40.361 -11.090   8.087  1.00  0.00     0.313 HD
HETATM   16  H   UNL     1      39.069 -10.755   7.156  1.00  0.00     0.313 HD
ENDBRANCH  13  14
ENDBRANCH   8  13
BRANCH  11  17
HETATM   17  C   UNL     1      41.583 -15.670   4.184  1.00  0.00     0.256 C 
HETATM   18  O   UNL     1      40.548 -16.320   4.079  1.00  0.00    -0.267 OA
HETATM   19  N   UNL     1      42.855 -16.130   3.908  1.00  0.00    -0.320 N 
HETATM   20  H   UNL     1      43.608 -15.453   3.842  1.00  0.00     0.169 HD
BRANCH  19  21
HETATM   21  C   UNL     1      43.235 -17.466   3.639  1.00  0.00     0.076 A 
HETATM   22  C   UNL     1      43.013 -18.115   2.426  1.00  0.00     0.052 A 
HETATM   23  C   UNL     1      43.406 -19.442   2.302  1.00  0.00     0.118 A 
HETATM   24  N   UNL     1      43.996 -20.154   3.289  1.00  0.00    -0.270 NA
HETATM   25  C   UNL     1      44.199 -19.505   4.458  1.00  0.00     0.160 A 
HETATM   26  C   UNL     1      43.837 -18.186   4.671  1.00  0.00     0.160 A 
HETATM   27  F   UNL     1      44.061 -17.608   5.861  1.00  0.00    -0.202 F 
ENDBRANCH  19  21
ENDBRANCH  11  17
ENDBRANCH   1   7
BRANCH   5  28
HETATM   28  C   UNL     1      44.434 -10.082   9.779  1.00  0.00     0.256 C 
HETATM   29  O   UNL     1      45.440  -9.813  10.428  1.00  0.00    -0.267 OA
HETATM   30  N   UNL     1      43.130 -10.018  10.231  1.00  0.00    -0.320 N 
HETATM   31  H   UNL     1      42.419 -10.511   9.701  1.00  0.00     0.169 HD
BRANCH  30  32
HETATM   32  C   UNL     1      42.707  -9.469  11.466  1.00  0.00     0.075 A 
HETATM   33  C   UNL     1      42.658 -10.210  12.652  1.00  0.00     0.033 A 
HETATM   34  C   UNL     1      42.236  -9.617  13.843  1.00  0.00     0.003 A 
HETATM   35  C   UNL     1      41.854  -8.277  13.857  1.00  0.00     0.021 A 
HETATM   36  C   UNL     1      41.908  -7.516  12.681  1.00  0.00     0.080 A 
HETATM   37  C   UNL     1      42.345  -8.114  11.496  1.00  0.00     0.159 A 
HETATM   38  F   UNL     1      42.385  -7.425  10.344  1.00  0.00    -0.203 F 
BRANCH  36  39
HETATM   39  C   UNL     1      41.446  -6.114  12.758  1.00  0.00     0.296 C 
HETATM   40  O   UNL     1      40.980  -5.524  11.795  1.00  0.00    -0.259 OA
BRANCH  39  41
HETATM   41  O   UNL     1      41.556  -5.620  14.014  1.00  0.00    -0.312 OA
BRANCH  41  42
HETATM   42  C   UNL     1      40.370  -5.010  14.528  1.00  0.00     0.132 C 
HETATM   43  C   UNL     1      39.256  -6.021  14.773  1.00  0.00     0.032 C 
HETATM   44  C   UNL     1      38.358  -5.297  15.761  1.00  0.00     0.002 C 
HETATM   45  C   UNL     1      39.326  -4.574  16.691  1.00  0.00     0.002 C 
HETATM   46  C   UNL     1      40.641  -4.442  15.921  1.00  0.00     0.032 C 
ENDBRANCH  41  42
ENDBRANCH  39  41
ENDBRANCH  36  39
ENDBRANCH  30  32
ENDBRANCH   5  28
TORSDOF 10
ENDMDL
MODEL 7
REMARK VINA RESULT:      -9.3      2.956     12.755
REMARK  10 active torsions:
REMARK  status: ('A' for Active; 'I' for Inactive)
REMARK    1  A    between atoms: N_1  and  C_2 
REMARK    2  A    between atoms: C_2  and  C_3 
REMARK    3  A    between atoms: C_6  and  C_33 
REMARK    4  A    between atoms: C_8  and  C_9 
REMARK    5  A    between atoms: C_13  and  C_15 
REMARK       I    between atoms: C_15  and  N_17 
REMARK    6  A    between atoms: N_17  and  C_18 
REMARK    7  A    between atoms: C_22  and  C_23 
REMARK    8  A    between atoms: C_23  and  O_25 
REMARK    9  A    between atoms: O_25  and  C_26 
REMARK       I    between atoms: C_33  and  N_35 
REMARK   10  A    between atoms: N_35  and  C_36 
ROOT
HETATM    1  C   UNL     1      42.410  -9.247   7.551  1.00  0.00    -0.024 A 
HETATM    2  C   UNL     1      41.950  -8.093   6.895  1.00  0.00     0.012 A 
HETATM    3  C   UNL     1      41.327  -8.157   5.642  1.00  0.00     0.002 A 
HETATM    4  C   UNL     1      41.101  -9.388   5.031  1.00  0.00     0.017 A 
HETATM    5  C   UNL     1      41.513 -10.555   5.677  1.00  0.00     0.033 A 
HETATM    6  C   UNL     1      42.178 -10.479   6.910  1.00  0.00     0.029 A 
ENDROOT
BRANCH   1   7
HETATM    7  C   UNL     1      43.040  -9.203   8.896  1.00  0.00    -0.017 A 
HETATM    8  C   UNL     1      44.391  -9.543   9.157  1.00  0.00    -0.020 A 
HETATM    9  C   UNL     1      44.883  -9.469  10.480  1.00  0.00     0.011 A 
HETATM   10  C   UNL     1      44.058  -9.111  11.544  1.00  0.00     0.017 A 
HETATM   11  C   UNL     1      42.722  -8.794  11.311  1.00  0.00     0.033 A 
HETATM   12  C   UNL     1      42.230  -8.831   9.998  1.00  0.00     0.030 A 
BRANCH   8  13
HETATM   13  C   UNL     1      45.361 -10.025   8.099  1.00  0.00     0.306 C 
BRANCH  13  14
HETATM   14  N   UNL     1      46.412  -9.044   7.848  1.00  0.00     0.082 N 
HETATM   15  H   UNL     1      46.330  -8.290   8.527  1.00  0.00     0.313 HD
HETATM   16  H   UNL     1      46.262  -8.618   6.934  1.00  0.00     0.313 HD
ENDBRANCH  13  14
ENDBRANCH   8  13
BRANCH  11  17
HETATM   17  C   UNL     1      41.839  -8.528  12.485  1.00  0.00     0.256 C 
HETATM   18  O   UNL     1      41.682  -9.423  13.310  1.00  0.00    -0.267 OA
HETATM   19  N   UNL     1      41.274  -7.269  12.545  1.00  0.00    -0.320 N 
HETATM   20  H   UNL     1      41.627  -6.553  11.919  1.00  0.00     0.169 HD
BRANCH  19  21
HETATM   21  C   UNL     1      40.273  -6.829  13.444  1.00  0.00     0.076 A 
HETATM   22  C   UNL     1      40.521  -6.415  14.750  1.00  0.00     0.052 A 
HETATM   23  C   UNL     1      39.443  -6.037  15.542  1.00  0.00     0.118 A 
HETATM   24  N   UNL     1      38.156  -6.045  15.125  1.00  0.00    -0.270 NA
HETATM   25  C   UNL     1      37.940  -6.454  13.855  1.00  0.00     0.160 A 
HETATM   26  C   UNL     1      38.952  -6.850  12.998  1.00  0.00     0.160 A 
HETATM   27  F   UNL     1      38.663  -7.252  11.751  1.00  0.00    -0.202 F 
ENDBRANCH  19  21
ENDBRANCH  11  17
ENDBRANCH   1   7
BRANCH   5  28
HETATM   28  C   UNL     1      41.137 -11.898   5.168  1.00  0.00     0.256 C 
HETATM   29  O   UNL     1      40.560 -12.660   5.938  1.00  0.00    -0.267 OA
HETATM   30  N   UNL     1      41.500 -12.176   3.865  1.00  0.00    -0.320 N 
HETATM   31  H   UNL     1      42.195 -11.580   3.427  1.00  0.00     0.169 HD
BRANCH  30  32
HETATM   32  C   UNL     1      41.123 -13.325   3.126  1.00  0.00     0.075 A 
HETATM   33  C   UNL     1      39.830 -13.519   2.628  1.00  0.00     0.033 A 
HETATM   34  C   UNL     1      39.514 -14.670   1.903  1.00  0.00     0.003 A 
HETATM   35  C   UNL     1      40.489 -15.639   1.675  1.00  0.00     0.021 A 
HETATM   36  C   UNL     1      41.792 -15.456   2.156  1.00  0.00     0.080 A 
HETATM   37  C   UNL     1      42.103 -14.295   2.870  1.00  0.00     0.159 A 
HETATM   38  F   UNL     1      43.334 -14.095   3.370  1.00  0.00    -0.203 F 
BRANCH  36  39
HETATM   39  C   UNL     1      42.763 -16.544   1.918  1.00  0.00     0.296 C 
HETATM   40  O   UNL     1      43.766 -16.390   1.237  1.00  0.00    -0.259 OA
BRANCH  39  41
HETATM   41  O   UNL     1      42.422 -17.672   2.584  1.00  0.00    -0.312 OA
BRANCH  41  42
HETATM   42  C   UNL     1      43.518 -18.523   2.930  1.00  0.00     0.132 C 
HETATM   43  C   UNL     1      43.641 -18.727   4.436  1.00  0.00     0.032 C 
HETATM   44  C   UNL     1      44.458 -20.003   4.535  1.00  0.00     0.002 C 
HETATM   45  C   UNL     1      43.925 -20.882   3.408  1.00  0.00     0.002 C 
HETATM   46  C   UNL     1      43.266 -19.935   2.404  1.00  0.00     0.032 C 
ENDBRANCH  41  42
ENDBRANCH  39  41
ENDBRANCH  36  39
ENDBRANCH  30  32
ENDBRANCH   5  28
TORSDOF 10
ENDMDL
MODEL 8
REMARK VINA RESULT:      -9.2      2.453      3.259
REMARK  10 active torsions:
REMARK  status: ('A' for Active; 'I' for Inactive)
REMARK    1  A    between atoms: N_1  and  C_2 
REMARK    2  A    between atoms: C_2  and  C_3 
REMARK    3  A    between atoms: C_6  and  C_33 
REMARK    4  A    between atoms: C_8  and  C_9 
REMARK    5  A    between atoms: C_13  and  C_15 
REMARK       I    between atoms: C_15  and  N_17 
REMARK    6  A    between atoms: N_17  and  C_18 
REMARK    7  A    between atoms: C_22  and  C_23 
REMARK    8  A    between atoms: C_23  and  O_25 
REMARK    9  A    between atoms: O_25  and  C_26 
REMARK       I    between atoms: C_33  and  N_35 
REMARK   10  A    between atoms: N_35  and  C_36 
ROOT
HETATM    1  C   UNL     1      40.344 -11.322   4.857  1.00  0.00    -0.024 A 
HETATM    2  C   UNL     1      39.007 -10.899   4.784  1.00  0.00     0.012 A 
HETATM    3  C   UNL     1      38.436 -10.087   5.773  1.00  0.00     0.002 A 
HETATM    4  C   UNL     1      39.207  -9.633   6.841  1.00  0.00     0.017 A 
HETATM    5  C   UNL     1      40.549 -10.007   6.920  1.00  0.00     0.033 A 
HETATM    6  C   UNL     1      41.101 -10.858   5.950  1.00  0.00     0.029 A 
ENDROOT
BRANCH   1   7
HETATM    7  C   UNL     1      40.978 -12.153   3.801  1.00  0.00    -0.017 A 
HETATM    8  C   UNL     1      41.385 -11.663   2.534  1.00  0.00    -0.020 A 
HETATM    9  C   UNL     1      41.973 -12.548   1.603  1.00  0.00     0.011 A 
HETATM   10  C   UNL     1      42.121 -13.905   1.883  1.00  0.00     0.017 A 
HETATM   11  C   UNL     1      41.707 -14.410   3.112  1.00  0.00     0.033 A 
HETATM   12  C   UNL     1      41.154 -13.536   4.059  1.00  0.00     0.030 A 
BRANCH   8  13
HETATM   13  C   UNL     1      41.201 -10.229   2.084  1.00  0.00     0.306 C 
BRANCH  13  14
HETATM   14  N   UNL     1      41.903  -9.965   0.833  1.00  0.00     0.082 N 
HETATM   15  H   UNL     1      42.787  -9.505   1.040  1.00  0.00     0.313 HD
HETATM   16  H   UNL     1      41.363  -9.302   0.278  1.00  0.00     0.313 HD
ENDBRANCH  13  14
ENDBRANCH   8  13
BRANCH  11  17
HETATM   17  C   UNL     1      41.775 -15.885   3.335  1.00  0.00     0.256 C 
HETATM   18  O   UNL     1      40.849 -16.426   3.930  1.00  0.00    -0.267 OA
HETATM   19  N   UNL     1      42.893 -16.523   2.831  1.00  0.00    -0.320 N 
HETATM   20  H   UNL     1      43.492 -16.011   2.192  1.00  0.00     0.169 HD
BRANCH  19  21
HETATM   21  C   UNL     1      43.280 -17.864   3.061  1.00  0.00     0.076 A 
HETATM   22  C   UNL     1      43.033 -18.913   2.178  1.00  0.00     0.052 A 
HETATM   23  C   UNL     1      43.437 -20.192   2.539  1.00  0.00     0.118 A 
HETATM   24  N   UNL     1      44.061 -20.492   3.701  1.00  0.00    -0.270 NA
HETATM   25  C   UNL     1      44.287 -19.459   4.543  1.00  0.00     0.160 A 
HETATM   26  C   UNL     1      43.917 -18.154   4.267  1.00  0.00     0.160 A 
HETATM   27  F   UNL     1      44.166 -17.179   5.155  1.00  0.00    -0.202 F 
ENDBRANCH  19  21
ENDBRANCH  11  17
ENDBRANCH   1   7
BRANCH   5  28
HETATM   28  C   UNL     1      41.463  -9.409   7.926  1.00  0.00     0.256 C 
HETATM   29  O   UNL     1      42.423  -8.764   7.514  1.00  0.00    -0.267 OA
HETATM   30  N   UNL     1      41.157  -9.660   9.250  1.00  0.00    -0.320 N 
HETATM   31  H   UNL     1      40.507 -10.414   9.452  1.00  0.00     0.169 HD
BRANCH  30  32
HETATM   32  C   UNL     1      41.794  -9.078  10.373  1.00  0.00     0.075 A 
HETATM   33  C   UNL     1      43.096  -9.406  10.764  1.00  0.00     0.033 A 
HETATM   34  C   UNL     1      43.677  -8.798  11.879  1.00  0.00     0.003 A 
HETATM   35  C   UNL     1      42.956  -7.861  12.616  1.00  0.00     0.021 A 
HETATM   36  C   UNL     1      41.654  -7.511  12.232  1.00  0.00     0.080 A 
HETATM   37  C   UNL     1      41.086  -8.115  11.107  1.00  0.00     0.159 A 
HETATM   38  F   UNL     1      39.831  -7.826  10.722  1.00  0.00    -0.203 F 
BRANCH  36  39
HETATM   39  C   UNL     1      40.931  -6.545  13.084  1.00  0.00     0.296 C 
HETATM   40  O   UNL     1      40.900  -5.348  12.838  1.00  0.00    -0.259 OA
BRANCH  39  41
HETATM   41  O   UNL     1      40.288  -7.161  14.103  1.00  0.00    -0.312 OA
BRANCH  41  42
HETATM   42  C   UNL     1      40.679  -6.734  15.410  1.00  0.00     0.132 C 
HETATM   43  C   UNL     1      39.504  -6.210  16.227  1.00  0.00     0.032 C 
HETATM   44  C   UNL     1      40.010  -6.325  17.654  1.00  0.00     0.002 C 
HETATM   45  C   UNL     1      40.786  -7.637  17.675  1.00  0.00     0.002 C 
HETATM   46  C   UNL     1      41.165  -7.933  16.224  1.00  0.00     0.032 C 
ENDBRANCH  41  42
ENDBRANCH  39  41
ENDBRANCH  36  39
ENDBRANCH  30  32
ENDBRANCH   5  28
TORSDOF 10
ENDMDL
MODEL 9
REMARK VINA RESULT:      -9.2      3.341      4.785
REMARK  10 active torsions:
REMARK  status: ('A' for Active; 'I' for Inactive)
REMARK    1  A    between atoms: N_1  and  C_2 
REMARK    2  A    between atoms: C_2  and  C_3 
REMARK    3  A    between atoms: C_6  and  C_33 
REMARK    4  A    between atoms: C_8  and  C_9 
REMARK    5  A    between atoms: C_13  and  C_15 
REMARK       I    between atoms: C_15  and  N_17 
REMARK    6  A    between atoms: N_17  and  C_18 
REMARK    7  A    between atoms: C_22  and  C_23 
REMARK    8  A    between atoms: C_23  and  O_25 
REMARK    9  A    between atoms: O_25  and  C_26 
REMARK       I    between atoms: C_33  and  N_35 
REMARK   10  A    between atoms: N_35  and  C_36 
ROOT
HETATM    1  C   UNL     1      41.607 -11.441   4.436  1.00  0.00    -0.024 A 
HETATM    2  C   UNL     1      41.884 -10.972   3.141  1.00  0.00     0.012 A 
HETATM    3  C   UNL     1      41.227  -9.856   2.608  1.00  0.00     0.002 A 
HETATM    4  C   UNL     1      40.309  -9.145   3.377  1.00  0.00     0.017 A 
HETATM    5  C   UNL     1      40.043  -9.566   4.681  1.00  0.00     0.033 A 
HETATM    6  C   UNL     1      40.669 -10.713   5.192  1.00  0.00     0.029 A 
ENDROOT
BRANCH   1   7
HETATM    7  C   UNL     1      42.318 -12.602   5.033  1.00  0.00    -0.017 A 
HETATM    8  C   UNL     1      43.257 -12.507   6.091  1.00  0.00    -0.020 A 
HETATM    9  C   UNL     1      43.877 -13.680   6.578  1.00  0.00     0.011 A 
HETATM   10  C   UNL     1      43.621 -14.926   6.010  1.00  0.00     0.017 A 
HETATM   11  C   UNL     1      42.719 -15.038   4.955  1.00  0.00     0.033 A 
HETATM   12  C   UNL     1      42.071 -13.886   4.486  1.00  0.00     0.030 A 
BRANCH   8  13
HETATM   13  C   UNL     1      43.678 -11.202   6.733  1.00  0.00     0.306 C 
BRANCH  13  14
HETATM   14  N   UNL     1      42.918 -10.931   7.949  1.00  0.00     0.082 N 
HETATM   15  H   UNL     1      43.130 -11.651   8.638  1.00  0.00     0.313 HD
HETATM   16  H   UNL     1      41.923 -11.016   7.748  1.00  0.00     0.313 HD
ENDBRANCH  13  14
ENDBRANCH   8  13
BRANCH  11  17
HETATM   17  C   UNL     1      42.556 -16.368   4.297  1.00  0.00     0.256 C 
HETATM   18  O   UNL     1      41.443 -16.681   3.887  1.00  0.00    -0.267 OA
HETATM   19  N   UNL     1      43.697 -17.139   4.197  1.00  0.00    -0.320 N 
HETATM   20  H   UNL     1      44.592 -16.702   4.392  1.00  0.00     0.169 HD
BRANCH  19  21
HETATM   21  C   UNL     1      43.775 -18.491   3.786  1.00  0.00     0.076 A 
HETATM   22  C   UNL     1      43.666 -18.915   2.463  1.00  0.00     0.052 A 
HETATM   23  C   UNL     1      43.728 -20.277   2.196  1.00  0.00     0.118 A 
HETATM   24  N   UNL     1      43.888 -21.229   3.142  1.00  0.00    -0.270 NA
HETATM   25  C   UNL     1      43.988 -20.795   4.418  1.00  0.00     0.160 A 
HETATM   26  C   UNL     1      43.935 -19.459   4.776  1.00  0.00     0.160 A 
HETATM   27  F   UNL     1      44.033 -19.101   6.066  1.00  0.00    -0.202 F 
ENDBRANCH  19  21
ENDBRANCH  11  17
ENDBRANCH   1   7
BRANCH   5  28
HETATM   28  C   UNL     1      39.219  -8.748   5.607  1.00  0.00     0.256 C 
HETATM   29  O   UNL     1      38.039  -9.056   5.745  1.00  0.00    -0.267 OA
HETATM   30  N   UNL     1      39.862  -7.689   6.217  1.00  0.00    -0.320 N 
HETATM   31  H   UNL     1      40.747  -7.381   5.825  1.00  0.00     0.169 HD
BRANCH  30  32
HETATM   32  C   UNL     1      39.323  -6.870   7.239  1.00  0.00     0.075 A 
HETATM   33  C   UNL     1      38.598  -5.703   6.978  1.00  0.00     0.033 A 
HETATM   34  C   UNL     1      38.086  -4.935   8.026  1.00  0.00     0.003 A 
HETATM   35  C   UNL     1      38.302  -5.325   9.346  1.00  0.00     0.021 A 
HETATM   36  C   UNL     1      39.017  -6.498   9.627  1.00  0.00     0.080 A 
HETATM   37  C   UNL     1      39.514  -7.267   8.571  1.00  0.00     0.159 A 
HETATM   38  F   UNL     1      40.226  -8.383   8.800  1.00  0.00    -0.203 F 
BRANCH  36  39
HETATM   39  C   UNL     1      39.247  -6.828  11.048  1.00  0.00     0.296 C 
HETATM   40  O   UNL     1      38.429  -7.436  11.721  1.00  0.00    -0.259 OA
BRANCH  39  41
HETATM   41  O   UNL     1      40.471  -6.424  11.463  1.00  0.00    -0.312 OA
BRANCH  41  42
HETATM   42  C   UNL     1      41.303  -7.461  11.988  1.00  0.00     0.132 C 
HETATM   43  C   UNL     1      42.580  -7.648  11.177  1.00  0.00     0.032 C 
HETATM   44  C   UNL     1      43.498  -8.359  12.157  1.00  0.00     0.002 C 
HETATM   45  C   UNL     1      43.207  -7.693  13.498  1.00  0.00     0.002 C 
HETATM   46  C   UNL     1      41.820  -7.063  13.370  1.00  0.00     0.032 C 
ENDBRANCH  41  42
ENDBRANCH  39  41
ENDBRANCH  36  39
ENDBRANCH  30  32
ENDBRANCH   5  28
TORSDOF 10
ENDMDL
MODEL 10
REMARK VINA RESULT:      -9.1      1.811      2.519
REMARK  10 active torsions:
REMARK  status: ('A' for Active; 'I' for Inactive)
REMARK    1  A    between atoms: N_1  and  C_2 
REMARK    2  A    between atoms: C_2  and  C_3 
REMARK    3  A    between atoms: C_6  and  C_33 
REMARK    4  A    between atoms: C_8  and  C_9 
REMARK    5  A    between atoms: C_13  and  C_15 
REMARK       I    between atoms: C_15  and  N_17 
REMARK    6  A    between atoms: N_17  and  C_18 
REMARK    7  A    between atoms: C_22  and  C_23 
REMARK    8  A    between atoms: C_23  and  O_25 
REMARK    9  A    between atoms: O_25  and  C_26 
REMARK       I    between atoms: C_33  and  N_35 
REMARK   10  A    between atoms: N_35  and  C_36 
ROOT
HETATM    1  C   UNL     1      43.738 -10.514   8.435  1.00  0.00    -0.024 A 
HETATM    2  C   UNL     1      45.096 -10.359   8.760  1.00  0.00     0.012 A 
HETATM    3  C   UNL     1      45.502  -9.716   9.936  1.00  0.00     0.002 A 
HETATM    4  C   UNL     1      44.556  -9.253  10.848  1.00  0.00     0.017 A 
HETATM    5  C   UNL     1      43.199  -9.427  10.569  1.00  0.00     0.033 A 
HETATM    6  C   UNL     1      42.800 -10.030   9.367  1.00  0.00     0.029 A 
ENDROOT
BRANCH   1   7
HETATM    7  C   UNL     1      43.287 -11.225   7.211  1.00  0.00    -0.017 A 
HETATM    8  C   UNL     1      42.449 -10.656   6.219  1.00  0.00    -0.020 A 
HETATM    9  C   UNL     1      42.079 -11.429   5.095  1.00  0.00     0.011 A 
HETATM   10  C   UNL     1      42.482 -12.756   4.961  1.00  0.00     0.017 A 
HETATM   11  C   UNL     1      43.287 -13.340   5.935  1.00  0.00     0.033 A 
HETATM   12  C   UNL     1      43.690 -12.573   7.038  1.00  0.00     0.030 A 
BRANCH   8  13
HETATM   13  C   UNL     1      41.880  -9.255   6.295  1.00  0.00     0.306 C 
BRANCH  13  14
HETATM   14  N   UNL     1      41.663  -8.691   4.967  1.00  0.00     0.082 N 
HETATM   15  H   UNL     1      42.544  -8.321   4.616  1.00  0.00     0.313 HD
HETATM   16  H   UNL     1      41.031  -7.895   5.040  1.00  0.00     0.313 HD
ENDBRANCH  13  14
ENDBRANCH   8  13
BRANCH  11  17
HETATM   17  C   UNL     1      43.605 -14.794   5.817  1.00  0.00     0.256 C 
HETATM   18  O   UNL     1      44.274 -15.316   6.703  1.00  0.00    -0.267 OA
HETATM   19  N   UNL     1      43.099 -15.437   4.704  1.00  0.00    -0.320 N 
HETATM   20  H   UNL     1      42.403 -14.955   4.145  1.00  0.00     0.169 HD
BRANCH  19  21
HETATM   21  C   UNL     1      43.403 -16.749   4.271  1.00  0.00     0.076 A 
HETATM   22  C   UNL     1      44.091 -17.687   5.037  1.00  0.00     0.052 A 
HETATM   23  C   UNL     1      44.354 -18.933   4.480  1.00  0.00     0.118 A 
HETATM   24  N   UNL     1      43.982 -19.301   3.233  1.00  0.00    -0.270 NA
HETATM   25  C   UNL     1      43.319 -18.374   2.508  1.00  0.00     0.160 A 
HETATM   26  C   UNL     1      43.016 -17.108   2.980  1.00  0.00     0.160 A 
HETATM   27  F   UNL     1      42.361 -16.235   2.199  1.00  0.00    -0.202 F 
ENDBRANCH  19  21
ENDBRANCH  11  17
ENDBRANCH   1   7
BRANCH   5  28
HETATM   28  C   UNL     1      42.154  -9.124  11.580  1.00  0.00     0.256 C 
HETATM   29  O   UNL     1      41.479 -10.059  12.000  1.00  0.00    -0.267 OA
HETATM   30  N   UNL     1      42.022  -7.797  11.937  1.00  0.00    -0.320 N 
HETATM   31  H   UNL     1      42.446  -7.098  11.335  1.00  0.00     0.169 HD
BRANCH  30  32
HETATM   32  C   UNL     1      41.202  -7.296  12.978  1.00  0.00     0.075 A 
HETATM   33  C   UNL     1      39.898  -6.836  12.766  1.00  0.00     0.033 A 
HETATM   34  C   UNL     1      39.132  -6.356  13.830  1.00  0.00     0.003 A 
HETATM   35  C   UNL     1      39.668  -6.327  15.116  1.00  0.00     0.021 A 
HETATM   36  C   UNL     1      40.968  -6.794  15.350  1.00  0.00     0.080 A 
HETATM   37  C   UNL     1      41.723  -7.286  14.280  1.00  0.00     0.159 A 
HETATM   38  F   UNL     1      42.982  -7.717  14.459  1.00  0.00    -0.203 F 
BRANCH  36  39
HETATM   39  C   UNL     1      41.489  -6.692  16.729  1.00  0.00     0.296 C 
HETATM   40  O   UNL     1      42.011  -5.675  17.158  1.00  0.00    -0.259 OA
BRANCH  39  41
HETATM   41  O   UNL     1      41.260  -7.824  17.434  1.00  0.00    -0.312 OA
BRANCH  41  42
HETATM   42  C   UNL     1      40.858  -7.619  18.791  1.00  0.00     0.132 C 
HETATM   43  C   UNL     1      39.539  -8.310  19.117  1.00  0.00     0.032 C 
HETATM   44  C   UNL     1      39.583  -8.417  20.631  1.00  0.00     0.002 C 
HETATM   45  C   UNL     1      41.037  -8.753  20.945  1.00  0.00     0.002 C 
HETATM   46  C   UNL     1      41.851  -8.295  19.735  1.00  0.00     0.032 C 
ENDBRANCH  41  42
ENDBRANCH  39  41
ENDBRANCH  36  39
ENDBRANCH  30  32
ENDBRANCH   5  28
TORSDOF 10
ENDMDL
