MODEL 1
REMARK VINA RESULT:     -10.2      0.000      0.000
REMARK  8 active torsions:
REMARK  status: ('A' for Active; 'I' for Inactive)
REMARK    1  A    between atoms: O_2  and  C_3 
REMARK    2  A    between atoms: C_5  and  N_6 
REMARK       I    between atoms: N_6  and  C_7 
REMARK    3  A    between atoms: C_7  and  C_8 
REMARK    4  A    between atoms: C_8  and  N_9 
REMARK       I    between atoms: N_15  and  C_16 
REMARK    5  A    between atoms: C_16  and  C_17 
REMARK    6  A    between atoms: C_17  and  C_18 
REMARK    7  A    between atoms: C_18  and  C_19 
REMARK    8  A    between atoms: N_28  and  C_29 
ROOT
HETATM    1  N   UNL     1      43.568 -10.726   6.993  1.00  0.00    -0.325 N 
HETATM    2  C   UNL     1      43.343 -12.060   6.771  1.00  0.00     0.250 C 
HETATM    3  O   UNL     1      44.007 -12.963   7.257  1.00  0.00    -0.270 OA
HETATM    4  C   UNL     1      42.150 -12.185   5.802  1.00  0.00     0.118 C 
HETATM    5  C   UNL     1      41.152 -13.197   6.384  1.00  0.00     0.061 C 
HETATM    6  C   UNL     1      41.598 -14.643   6.182  1.00  0.00     0.129 C 
HETATM    7  N   UNL     1      42.031 -14.879   4.808  1.00  0.00    -0.352 N 
HETATM    8  C   UNL     1      41.388 -15.854   4.058  1.00  0.00     0.220 C 
HETATM    9  O   UNL     1      40.391 -16.447   4.475  1.00  0.00    -0.273 OA
HETATM   10  C   UNL     1      43.137 -14.038   4.363  1.00  0.00     0.129 C 
HETATM   11  C   UNL     1      42.743 -12.565   4.430  1.00  0.00     0.061 C 
HETATM   12  N   UNL     1      41.619 -10.790   5.805  1.00  0.00    -0.346 N 
HETATM   13  C   UNL     1      42.515  -9.885   6.516  1.00  0.00     0.254 C 
ENDROOT
BRANCH  12  14
HETATM   14  C   UNL     1      40.500 -10.296   5.157  1.00  0.00     0.032 A 
HETATM   15  C   UNL     1      40.512 -10.011   3.777  1.00  0.00     0.029 A 
HETATM   16  C   UNL     1      39.396  -9.502   3.097  1.00  0.00     0.002 A 
HETATM   17  C   UNL     1      38.216  -9.260   3.782  1.00  0.00     0.000 A 
HETATM   18  C   UNL     1      38.160  -9.526   5.142  1.00  0.00     0.002 A 
HETATM   19  C   UNL     1      39.286 -10.031   5.810  1.00  0.00     0.029 A 
ENDBRANCH  12  14
BRANCH   1  20
HETATM   20  C   UNL     1      44.707 -10.181   7.715  1.00  0.00     0.230 C 
BRANCH  20  21
HETATM   21  C   UNL     1      44.579 -10.168   9.240  1.00  0.00     0.240 C 
HETATM   22  N   UNL     1      43.564  -9.354   9.705  1.00  0.00    -0.326 N 
HETATM   23  H   UNL     1      43.076  -8.806   9.005  1.00  0.00     0.169 HD
HETATM   24  O   UNL     1      45.269 -10.928   9.915  1.00  0.00    -0.271 OA
BRANCH  22  25
HETATM   25  C   UNL     1      43.078  -9.251  11.026  1.00  0.00     0.037 A 
HETATM   26  C   UNL     1      42.083 -10.072  11.561  1.00  0.00     0.066 A 
HETATM   27  C   UNL     1      41.604  -9.869  12.862  1.00  0.00     0.070 A 
HETATM   28  C   UNL     1      42.161  -8.866  13.654  1.00  0.00     0.037 A 
HETATM   29  C   UNL     1      43.168  -8.052  13.135  1.00  0.00     0.005 A 
HETATM   30  C   UNL     1      43.616  -8.236  11.826  1.00  0.00     0.029 A 
BRANCH  27  31
HETATM   31  O   UNL     1      40.602 -10.719  13.247  1.00  0.00    -0.356 OA
HETATM   32  C   UNL     1      39.290 -10.394  12.804  1.00  0.00     0.210 C 
ENDBRANCH  27  31
ENDBRANCH  22  25
ENDBRANCH  20  21
ENDBRANCH   1  20
BRANCH   8  33
HETATM   33  C   UNL     1      41.964 -16.240   2.711  1.00  0.00     0.107 C 
BRANCH  33  34
HETATM   34  C   UNL     1      43.423 -16.659   2.872  1.00  0.00     0.047 C 
BRANCH  34  35
HETATM   35  C   UNL     1      43.564 -18.140   3.121  1.00  0.00    -0.058 A 
HETATM   36  C   UNL     1      43.222 -19.068   2.129  1.00  0.00     0.007 A 
HETATM   37  C   UNL     1      43.357 -20.437   2.366  1.00  0.00     0.001 A 
HETATM   38  C   UNL     1      43.829 -20.890   3.598  1.00  0.00     0.000 A 
HETATM   39  C   UNL     1      44.164 -19.974   4.594  1.00  0.00     0.001 A 
HETATM   40  C   UNL     1      44.030 -18.606   4.358  1.00  0.00     0.007 A 
ENDBRANCH  34  35
ENDBRANCH  33  34
ENDBRANCH   8  33
TORSDOF 8
ENDMDL
MODEL 2
REMARK VINA RESULT:      -9.9      2.046      4.096
REMARK  8 active torsions:
REMARK  status: ('A' for Active; 'I' for Inactive)
REMARK    1  A    between atoms: O_2  and  C_3 
REMARK    2  A    between atoms: C_5  and  N_6 
REMARK       I    between atoms: N_6  and  C_7 
REMARK    3  A    between atoms: C_7  and  C_8 
REMARK    4  A    between atoms: C_8  and  N_9 
REMARK       I    between atoms: N_15  and  C_16 
REMARK    5  A    between atoms: C_16  and  C_17 
REMARK    6  A    between atoms: C_17  and  C_18 
REMARK    7  A    between atoms: C_18  and  C_19 
REMARK    8  A    between atoms: N_28  and  C_29 
ROOT
HETATM    1  N   UNL     1      40.275 -10.245   6.786  1.00  0.00    -0.325 N 
HETATM    2  C   UNL     1      40.324 -11.028   5.661  1.00  0.00     0.250 C 
HETATM    3  O   UNL     1      39.374 -11.238   4.923  1.00  0.00    -0.270 OA
HETATM    4  C   UNL     1      41.755 -11.590   5.535  1.00  0.00     0.118 C 
HETATM    5  C   UNL     1      42.251 -11.347   4.102  1.00  0.00     0.061 C 
HETATM    6  C   UNL     1      41.665 -12.340   3.103  1.00  0.00     0.129 C 
HETATM    7  N   UNL     1      41.760 -13.711   3.595  1.00  0.00    -0.352 N 
HETATM    8  C   UNL     1      42.456 -14.649   2.846  1.00  0.00     0.220 C 
HETATM    9  O   UNL     1      43.091 -14.337   1.835  1.00  0.00    -0.273 OA
HETATM   10  C   UNL     1      41.083 -13.952   4.865  1.00  0.00     0.129 C 
HETATM   11  C   UNL     1      41.679 -13.071   5.960  1.00  0.00     0.061 C 
HETATM   12  N   UNL     1      42.486 -10.766   6.543  1.00  0.00    -0.346 N 
HETATM   13  C   UNL     1      41.564  -9.959   7.335  1.00  0.00     0.254 C 
ENDROOT
BRANCH  12  14
HETATM   14  C   UNL     1      43.837 -10.775   6.842  1.00  0.00     0.032 A 
HETATM   15  C   UNL     1      44.330 -10.229   8.045  1.00  0.00     0.029 A 
HETATM   16  C   UNL     1      45.695 -10.217   8.369  1.00  0.00     0.002 A 
HETATM   17  C   UNL     1      46.622 -10.759   7.495  1.00  0.00     0.000 A 
HETATM   18  C   UNL     1      46.180 -11.307   6.300  1.00  0.00     0.002 A 
HETATM   19  C   UNL     1      44.813 -11.308   5.986  1.00  0.00     0.029 A 
ENDBRANCH  12  14
BRANCH   1  20
HETATM   20  C   UNL     1      39.065  -9.670   7.349  1.00  0.00     0.230 C 
BRANCH  20  21
HETATM   21  C   UNL     1      39.179  -9.171   8.792  1.00  0.00     0.240 C 
HETATM   22  N   UNL     1      39.921 -10.001   9.609  1.00  0.00    -0.326 N 
HETATM   23  H   UNL     1      40.237 -10.871   9.192  1.00  0.00     0.169 HD
HETATM   24  O   UNL     1      38.729  -8.068   9.091  1.00  0.00    -0.271 OA
BRANCH  22  25
HETATM   25  C   UNL     1      40.354  -9.751  10.928  1.00  0.00     0.037 A 
HETATM   26  C   UNL     1      41.514  -9.044  11.252  1.00  0.00     0.066 A 
HETATM   27  C   UNL     1      41.915  -8.889  12.585  1.00  0.00     0.070 A 
HETATM   28  C   UNL     1      41.121  -9.404  13.609  1.00  0.00     0.037 A 
HETATM   29  C   UNL     1      39.951 -10.096  13.298  1.00  0.00     0.005 A 
HETATM   30  C   UNL     1      39.575 -10.278  11.966  1.00  0.00     0.029 A 
BRANCH  27  31
HETATM   31  O   UNL     1      43.091  -8.209  12.758  1.00  0.00    -0.356 OA
HETATM   32  C   UNL     1      43.165  -7.347  13.887  1.00  0.00     0.210 C 
ENDBRANCH  27  31
ENDBRANCH  22  25
ENDBRANCH  20  21
ENDBRANCH   1  20
BRANCH   8  33
HETATM   33  C   UNL     1      42.384 -16.107   3.249  1.00  0.00     0.107 C 
BRANCH  33  34
HETATM   34  C   UNL     1      43.321 -16.934   2.373  1.00  0.00     0.047 C 
BRANCH  34  35
HETATM   35  C   UNL     1      43.554 -18.314   2.935  1.00  0.00    -0.058 A 
HETATM   36  C   UNL     1      43.983 -18.486   4.257  1.00  0.00     0.007 A 
HETATM   37  C   UNL     1      44.194 -19.766   4.770  1.00  0.00     0.001 A 
HETATM   38  C   UNL     1      43.986 -20.886   3.966  1.00  0.00     0.000 A 
HETATM   39  C   UNL     1      43.568 -20.725   2.646  1.00  0.00     0.001 A 
HETATM   40  C   UNL     1      43.355 -19.446   2.132  1.00  0.00     0.007 A 
ENDBRANCH  34  35
ENDBRANCH  33  34
ENDBRANCH   8  33
TORSDOF 8
ENDMDL
MODEL 3
REMARK VINA RESULT:      -9.3      5.826      9.158
REMARK  8 active torsions:
REMARK  status: ('A' for Active; 'I' for Inactive)
REMARK    1  A    between atoms: O_2  and  C_3 
REMARK    2  A    between atoms: C_5  and  N_6 
REMARK       I    between atoms: N_6  and  C_7 
REMARK    3  A    between atoms: C_7  and  C_8 
REMARK    4  A    between atoms: C_8  and  N_9 
REMARK       I    between atoms: N_15  and  C_16 
REMARK    5  A    between atoms: C_16  and  C_17 
REMARK    6  A    between atoms: C_17  and  C_18 
REMARK    7  A    between atoms: C_18  and  C_19 
REMARK    8  A    between atoms: N_28  and  C_29 
ROOT
HETATM    1  N   UNL     1      39.918  -9.864   1.215  1.00  0.00    -0.325 N 
HETATM    2  C   UNL     1      40.223 -10.833   2.136  1.00  0.00     0.250 C 
HETATM    3  O   UNL     1      40.533 -10.610   3.297  1.00  0.00    -0.270 OA
HETATM    4  C   UNL     1      40.129 -12.203   1.434  1.00  0.00     0.118 C 
HETATM    5  C   UNL     1      39.275 -13.138   2.302  1.00  0.00     0.061 C 
HETATM    6  C   UNL     1      40.044 -13.692   3.499  1.00  0.00     0.129 C 
HETATM    7  N   UNL     1      41.356 -14.196   3.102  1.00  0.00    -0.352 N 
HETATM    8  C   UNL     1      41.670 -15.525   3.351  1.00  0.00     0.220 C 
HETATM    9  O   UNL     1      40.838 -16.321   3.792  1.00  0.00    -0.273 OA
HETATM   10  C   UNL     1      42.225 -13.208   2.473  1.00  0.00     0.129 C 
HETATM   11  C   UNL     1      41.580 -12.670   1.197  1.00  0.00     0.061 C 
HETATM   12  N   UNL     1      39.454 -11.834   0.154  1.00  0.00    -0.346 N 
HETATM   13  C   UNL     1      39.355 -10.385   0.008  1.00  0.00     0.254 C 
ENDROOT
BRANCH  12  14
HETATM   14  C   UNL     1      39.044 -12.667  -0.872  1.00  0.00     0.032 A 
HETATM   15  C   UNL     1      39.871 -13.699  -1.359  1.00  0.00     0.029 A 
HETATM   16  C   UNL     1      39.484 -14.552  -2.403  1.00  0.00     0.002 A 
HETATM   17  C   UNL     1      38.242 -14.402  -2.999  1.00  0.00     0.000 A 
HETATM   18  C   UNL     1      37.398 -13.398  -2.551  1.00  0.00     0.002 A 
HETATM   19  C   UNL     1      37.800 -12.549  -1.509  1.00  0.00     0.029 A 
ENDBRANCH  12  14
BRANCH   1  20
HETATM   20  C   UNL     1      40.056  -8.433   1.432  1.00  0.00     0.230 C 
BRANCH  20  21
HETATM   21  C   UNL     1      40.337  -7.598   0.181  1.00  0.00     0.240 C 
HETATM   22  N   UNL     1      41.394  -8.068  -0.575  1.00  0.00    -0.326 N 
HETATM   23  H   UNL     1      41.906  -8.852  -0.184  1.00  0.00     0.169 HD
HETATM   24  O   UNL     1      39.577  -6.682  -0.122  1.00  0.00    -0.271 OA
BRANCH  22  25
HETATM   25  C   UNL     1      41.799  -7.636  -1.855  1.00  0.00     0.037 A 
HETATM   26  C   UNL     1      41.127  -7.951  -3.037  1.00  0.00     0.066 A 
HETATM   27  C   UNL     1      41.623  -7.539  -4.281  1.00  0.00     0.070 A 
HETATM   28  C   UNL     1      42.779  -6.761  -4.338  1.00  0.00     0.037 A 
HETATM   29  C   UNL     1      43.449  -6.425  -3.162  1.00  0.00     0.005 A 
HETATM   30  C   UNL     1      42.968  -6.869  -1.929  1.00  0.00     0.029 A 
BRANCH  27  31
HETATM   31  O   UNL     1      40.888  -7.949  -5.360  1.00  0.00    -0.356 OA
HETATM   32  C   UNL     1      39.718  -7.196  -5.653  1.00  0.00     0.210 C 
ENDBRANCH  27  31
ENDBRANCH  22  25
ENDBRANCH  20  21
ENDBRANCH   1  20
BRANCH   8  33
HETATM   33  C   UNL     1      43.092 -15.995   3.128  1.00  0.00     0.107 C 
BRANCH  33  34
HETATM   34  C   UNL     1      43.100 -17.193   2.183  1.00  0.00     0.047 C 
BRANCH  34  35
HETATM   35  C   UNL     1      43.458 -18.475   2.894  1.00  0.00    -0.058 A 
HETATM   36  C   UNL     1      43.851 -18.462   4.238  1.00  0.00     0.007 A 
HETATM   37  C   UNL     1      44.178 -19.651   4.890  1.00  0.00     0.001 A 
HETATM   38  C   UNL     1      44.124 -20.863   4.202  1.00  0.00     0.000 A 
HETATM   39  C   UNL     1      43.743 -20.886   2.862  1.00  0.00     0.001 A 
HETATM   40  C   UNL     1      43.414 -19.697   2.210  1.00  0.00     0.007 A 
ENDBRANCH  34  35
ENDBRANCH  33  34
ENDBRANCH   8  33
TORSDOF 8
ENDMDL
MODEL 4
REMARK VINA RESULT:      -9.3      3.119      4.719
REMARK  8 active torsions:
REMARK  status: ('A' for Active; 'I' for Inactive)
REMARK    1  A    between atoms: O_2  and  C_3 
REMARK    2  A    between atoms: C_5  and  N_6 
REMARK       I    between atoms: N_6  and  C_7 
REMARK    3  A    between atoms: C_7  and  C_8 
REMARK    4  A    between atoms: C_8  and  N_9 
REMARK       I    between atoms: N_15  and  C_16 
REMARK    5  A    between atoms: C_16  and  C_17 
REMARK    6  A    between atoms: C_17  and  C_18 
REMARK    7  A    between atoms: C_18  and  C_19 
REMARK    8  A    between atoms: N_28  and  C_29 
ROOT
HETATM    1  N   UNL     1      40.065  -9.283   8.140  1.00  0.00    -0.325 N 
HETATM    2  C   UNL     1      39.690  -9.706   6.891  1.00  0.00     0.250 C 
HETATM    3  O   UNL     1      38.582  -9.532   6.406  1.00  0.00    -0.270 OA
HETATM    4  C   UNL     1      40.889 -10.441   6.258  1.00  0.00     0.118 C 
HETATM    5  C   UNL     1      41.113  -9.883   4.845  1.00  0.00     0.061 C 
HETATM    6  C   UNL     1      40.112 -10.434   3.832  1.00  0.00     0.129 C 
HETATM    7  N   UNL     1      39.987 -11.885   3.942  1.00  0.00    -0.352 N 
HETATM    8  C   UNL     1      40.268 -12.671   2.834  1.00  0.00     0.220 C 
HETATM    9  O   UNL     1      40.729 -12.194   1.795  1.00  0.00    -0.273 OA
HETATM   10  C   UNL     1      39.556 -12.362   5.252  1.00  0.00     0.129 C 
HETATM   11  C   UNL     1      40.560 -11.946   6.325  1.00  0.00     0.061 C 
HETATM   12  N   UNL     1      41.990 -10.076   7.199  1.00  0.00    -0.346 N 
HETATM   13  C   UNL     1      41.471  -9.388   8.377  1.00  0.00     0.254 C 
ENDROOT
BRANCH  12  14
HETATM   14  C   UNL     1      43.333 -10.398   7.116  1.00  0.00     0.032 A 
HETATM   15  C   UNL     1      44.256  -9.970   8.091  1.00  0.00     0.029 A 
HETATM   16  C   UNL     1      45.624 -10.275   8.027  1.00  0.00     0.002 A 
HETATM   17  C   UNL     1      46.119 -11.028   6.975  1.00  0.00     0.000 A 
HETATM   18  C   UNL     1      45.245 -11.470   5.993  1.00  0.00     0.002 A 
HETATM   19  C   UNL     1      43.880 -11.154   6.068  1.00  0.00     0.029 A 
ENDBRANCH  12  14
BRANCH   1  20
HETATM   20  C   UNL     1      39.171  -8.698   9.126  1.00  0.00     0.230 C 
BRANCH  20  21
HETATM   21  C   UNL     1      39.848  -7.891  10.237  1.00  0.00     0.240 C 
HETATM   22  N   UNL     1      40.206  -8.649  11.334  1.00  0.00    -0.326 N 
HETATM   23  H   UNL     1      39.917  -9.621  11.318  1.00  0.00     0.169 HD
HETATM   24  O   UNL     1      40.122  -6.709  10.048  1.00  0.00    -0.271 OA
BRANCH  22  25
HETATM   25  C   UNL     1      40.987  -8.251  12.440  1.00  0.00     0.037 A 
HETATM   26  C   UNL     1      40.461  -7.886  13.680  1.00  0.00     0.066 A 
HETATM   27  C   UNL     1      41.295  -7.439  14.714  1.00  0.00     0.070 A 
HETATM   28  C   UNL     1      42.675  -7.406  14.520  1.00  0.00     0.037 A 
HETATM   29  C   UNL     1      43.213  -7.785  13.291  1.00  0.00     0.005 A 
HETATM   30  C   UNL     1      42.374  -8.195  12.253  1.00  0.00     0.029 A 
BRANCH  27  31
HETATM   31  O   UNL     1      40.646  -7.076  15.863  1.00  0.00    -0.356 OA
HETATM   32  C   UNL     1      41.161  -7.608  17.077  1.00  0.00     0.210 C 
ENDBRANCH  27  31
ENDBRANCH  22  25
ENDBRANCH  20  21
ENDBRANCH   1  20
BRANCH   8  33
HETATM   33  C   UNL     1      39.944 -14.150   2.885  1.00  0.00     0.107 C 
BRANCH  33  34
HETATM   34  C   UNL     1      41.232 -14.958   3.016  1.00  0.00     0.047 C 
BRANCH  34  35
HETATM   35  C   UNL     1      41.649 -15.134   4.455  1.00  0.00    -0.058 A 
HETATM   36  C   UNL     1      42.860 -14.605   4.919  1.00  0.00     0.007 A 
HETATM   37  C   UNL     1      43.237 -14.770   6.252  1.00  0.00     0.001 A 
HETATM   38  C   UNL     1      42.413 -15.471   7.131  1.00  0.00     0.000 A 
HETATM   39  C   UNL     1      41.210 -16.009   6.677  1.00  0.00     0.001 A 
HETATM   40  C   UNL     1      40.831 -15.844   5.344  1.00  0.00     0.007 A 
ENDBRANCH  34  35
ENDBRANCH  33  34
ENDBRANCH   8  33
TORSDOF 8
ENDMDL
MODEL 5
REMARK VINA RESULT:      -9.2      2.910      4.987
REMARK  8 active torsions:
REMARK  status: ('A' for Active; 'I' for Inactive)
REMARK    1  A    between atoms: O_2  and  C_3 
REMARK    2  A    between atoms: C_5  and  N_6 
REMARK       I    between atoms: N_6  and  C_7 
REMARK    3  A    between atoms: C_7  and  C_8 
REMARK    4  A    between atoms: C_8  and  N_9 
REMARK       I    between atoms: N_15  and  C_16 
REMARK    5  A    between atoms: C_16  and  C_17 
REMARK    6  A    between atoms: C_17  and  C_18 
REMARK    7  A    between atoms: C_18  and  C_19 
REMARK    8  A    between atoms: N_28  and  C_29 
ROOT
HETATM    1  N   UNL     1      40.104  -9.640   8.359  1.00  0.00    -0.325 N 
HETATM    2  C   UNL     1      40.012  -9.789   6.998  1.00  0.00     0.250 C 
HETATM    3  O   UNL     1      38.968  -9.735   6.366  1.00  0.00    -0.270 OA
HETATM    4  C   UNL     1      41.429 -10.057   6.452  1.00  0.00     0.118 C 
HETATM    5  C   UNL     1      41.683  -9.112   5.269  1.00  0.00     0.061 C 
HETATM    6  C   UNL     1      40.993  -9.577   3.989  1.00  0.00     0.129 C 
HETATM    7  N   UNL     1      41.227 -10.997   3.744  1.00  0.00    -0.352 N 
HETATM    8  C   UNL     1      41.838 -11.385   2.560  1.00  0.00     0.220 C 
HETATM    9  O   UNL     1      42.292 -10.563   1.760  1.00  0.00    -0.273 OA
HETATM   10  C   UNL     1      40.768 -11.884   4.808  1.00  0.00     0.129 C 
HETATM   11  C   UNL     1      41.487 -11.561   6.115  1.00  0.00     0.061 C 
HETATM   12  N   UNL     1      42.271  -9.727   7.641  1.00  0.00    -0.346 N 
HETATM   13  C   UNL     1      41.449  -9.501   8.824  1.00  0.00     0.254 C 
ENDROOT
BRANCH  12  14
HETATM   14  C   UNL     1      43.651  -9.721   7.740  1.00  0.00     0.032 A 
HETATM   15  C   UNL     1      44.437 -10.743   7.169  1.00  0.00     0.029 A 
HETATM   16  C   UNL     1      45.836 -10.765   7.262  1.00  0.00     0.002 A 
HETATM   17  C   UNL     1      46.505  -9.754   7.933  1.00  0.00     0.000 A 
HETATM   18  C   UNL     1      45.770  -8.729   8.509  1.00  0.00     0.002 A 
HETATM   19  C   UNL     1      44.371  -8.721   8.413  1.00  0.00     0.029 A 
ENDBRANCH  12  14
BRANCH   1  20
HETATM   20  C   UNL     1      38.972  -9.541   9.265  1.00  0.00     0.230 C 
BRANCH  20  21
HETATM   21  C   UNL     1      38.975  -8.327  10.197  1.00  0.00     0.240 C 
HETATM   22  N   UNL     1      38.974  -8.656  11.539  1.00  0.00    -0.326 N 
HETATM   23  H   UNL     1      38.893  -9.644  11.754  1.00  0.00     0.169 HD
HETATM   24  O   UNL     1      39.091  -7.199   9.725  1.00  0.00    -0.271 OA
BRANCH  22  25
HETATM   25  C   UNL     1      39.144  -7.791  12.639  1.00  0.00     0.037 A 
HETATM   26  C   UNL     1      40.318  -7.699  13.390  1.00  0.00     0.066 A 
HETATM   27  C   UNL     1      40.394  -6.862  14.511  1.00  0.00     0.070 A 
HETATM   28  C   UNL     1      39.299  -6.071  14.856  1.00  0.00     0.037 A 
HETATM   29  C   UNL     1      38.128  -6.141  14.103  1.00  0.00     0.005 A 
HETATM   30  C   UNL     1      38.047  -7.003  13.008  1.00  0.00     0.029 A 
BRANCH  27  31
HETATM   31  O   UNL     1      41.589  -6.898  15.178  1.00  0.00    -0.356 OA
HETATM   32  C   UNL     1      41.696  -6.074  16.332  1.00  0.00     0.210 C 
ENDBRANCH  27  31
ENDBRANCH  22  25
ENDBRANCH  20  21
ENDBRANCH   1  20
BRANCH   8  33
HETATM   33  C   UNL     1      41.896 -12.858   2.214  1.00  0.00     0.107 C 
BRANCH  33  34
HETATM   34  C   UNL     1      43.249 -13.434   2.625  1.00  0.00     0.047 C 
BRANCH  34  35
HETATM   35  C   UNL     1      43.193 -14.927   2.829  1.00  0.00    -0.058 A 
HETATM   36  C   UNL     1      43.099 -15.470   4.117  1.00  0.00     0.007 A 
HETATM   37  C   UNL     1      43.045 -16.853   4.298  1.00  0.00     0.001 A 
HETATM   38  C   UNL     1      43.092 -17.705   3.195  1.00  0.00     0.000 A 
HETATM   39  C   UNL     1      43.195 -17.175   1.910  1.00  0.00     0.001 A 
HETATM   40  C   UNL     1      43.248 -15.793   1.728  1.00  0.00     0.007 A 
ENDBRANCH  34  35
ENDBRANCH  33  34
ENDBRANCH   8  33
TORSDOF 8
ENDMDL
MODEL 6
REMARK VINA RESULT:      -9.1      4.028      8.500
REMARK  8 active torsions:
REMARK  status: ('A' for Active; 'I' for Inactive)
REMARK    1  A    between atoms: O_2  and  C_3 
REMARK    2  A    between atoms: C_5  and  N_6 
REMARK       I    between atoms: N_6  and  C_7 
REMARK    3  A    between atoms: C_7  and  C_8 
REMARK    4  A    between atoms: C_8  and  N_9 
REMARK       I    between atoms: N_15  and  C_16 
REMARK    5  A    between atoms: C_16  and  C_17 
REMARK    6  A    between atoms: C_17  and  C_18 
REMARK    7  A    between atoms: C_18  and  C_19 
REMARK    8  A    between atoms: N_28  and  C_29 
ROOT
HETATM    1  N   UNL     1      39.620 -10.654   3.844  1.00  0.00    -0.325 N 
HETATM    2  C   UNL     1      40.052 -11.645   2.999  1.00  0.00     0.250 C 
HETATM    3  O   UNL     1      39.518 -11.928   1.937  1.00  0.00    -0.270 OA
HETATM    4  C   UNL     1      41.278 -12.320   3.646  1.00  0.00     0.118 C 
HETATM    5  C   UNL     1      42.400 -12.400   2.600  1.00  0.00     0.061 C 
HETATM    6  C   UNL     1      42.184 -13.527   1.593  1.00  0.00     0.129 C 
HETATM    7  N   UNL     1      41.832 -14.777   2.260  1.00  0.00    -0.352 N 
HETATM    8  C   UNL     1      42.637 -15.891   2.070  1.00  0.00     0.220 C 
HETATM    9  O   UNL     1      43.700 -15.830   1.448  1.00  0.00    -0.273 OA
HETATM   10  C   UNL     1      40.625 -14.714   3.078  1.00  0.00     0.129 C 
HETATM   11  C   UNL     1      40.789 -13.679   4.188  1.00  0.00     0.061 C 
HETATM   12  N   UNL     1      41.591 -11.367   4.752  1.00  0.00    -0.346 N 
HETATM   13  C   UNL     1      40.547 -10.357   4.891  1.00  0.00     0.254 C 
ENDROOT
BRANCH  12  14
HETATM   14  C   UNL     1      42.641 -11.413   5.653  1.00  0.00     0.032 A 
HETATM   15  C   UNL     1      42.895 -10.350   6.543  1.00  0.00     0.029 A 
HETATM   16  C   UNL     1      43.957 -10.366   7.460  1.00  0.00     0.002 A 
HETATM   17  C   UNL     1      44.806 -11.459   7.521  1.00  0.00     0.000 A 
HETATM   18  C   UNL     1      44.592 -12.526   6.662  1.00  0.00     0.002 A 
HETATM   19  C   UNL     1      43.529 -12.495   5.747  1.00  0.00     0.029 A 
ENDBRANCH  12  14
BRANCH   1  20
HETATM   20  C   UNL     1      38.392  -9.895   3.679  1.00  0.00     0.230 C 
BRANCH  20  21
HETATM   21  C   UNL     1      38.043  -9.504   2.241  1.00  0.00     0.240 C 
HETATM   22  N   UNL     1      37.052 -10.286   1.678  1.00  0.00    -0.326 N 
HETATM   23  H   UNL     1      36.727 -11.066   2.240  1.00  0.00     0.169 HD
HETATM   24  O   UNL     1      38.551  -8.504   1.742  1.00  0.00    -0.271 OA
BRANCH  22  25
HETATM   25  C   UNL     1      36.389 -10.086   0.449  1.00  0.00     0.037 A 
HETATM   26  C   UNL     1      36.922 -10.432  -0.794  1.00  0.00     0.066 A 
HETATM   27  C   UNL     1      36.232 -10.144  -1.979  1.00  0.00     0.070 A 
HETATM   28  C   UNL     1      34.973  -9.549  -1.917  1.00  0.00     0.037 A 
HETATM   29  C   UNL     1      34.423  -9.215  -0.680  1.00  0.00     0.005 A 
HETATM   30  C   UNL     1      35.131  -9.472   0.496  1.00  0.00     0.029 A 
BRANCH  27  31
HETATM   31  O   UNL     1      36.886 -10.501  -3.128  1.00  0.00    -0.356 OA
HETATM   32  C   UNL     1      37.489  -9.447  -3.868  1.00  0.00     0.210 C 
ENDBRANCH  27  31
ENDBRANCH  22  25
ENDBRANCH  20  21
ENDBRANCH   1  20
BRANCH   8  33
HETATM   33  C   UNL     1      42.166 -17.232   2.592  1.00  0.00     0.107 C 
BRANCH  33  34
HETATM   34  C   UNL     1      43.240 -17.847   3.486  1.00  0.00     0.047 C 
BRANCH  34  35
HETATM   35  C   UNL     1      43.284 -17.202   4.848  1.00  0.00    -0.058 A 
HETATM   36  C   UNL     1      44.508 -16.890   5.453  1.00  0.00     0.007 A 
HETATM   37  C   UNL     1      44.541 -16.291   6.713  1.00  0.00     0.001 A 
HETATM   38  C   UNL     1      43.352 -16.005   7.383  1.00  0.00     0.000 A 
HETATM   39  C   UNL     1      42.129 -16.320   6.793  1.00  0.00     0.001 A 
HETATM   40  C   UNL     1      42.095 -16.918   5.533  1.00  0.00     0.007 A 
ENDBRANCH  34  35
ENDBRANCH  33  34
ENDBRANCH   8  33
TORSDOF 8
ENDMDL
MODEL 7
REMARK VINA RESULT:      -9.0      4.316     10.308
REMARK  8 active torsions:
REMARK  status: ('A' for Active; 'I' for Inactive)
REMARK    1  A    between atoms: O_2  and  C_3 
REMARK    2  A    between atoms: C_5  and  N_6 
REMARK       I    between atoms: N_6  and  C_7 
REMARK    3  A    between atoms: C_7  and  C_8 
REMARK    4  A    between atoms: C_8  and  N_9 
REMARK       I    between atoms: N_15  and  C_16 
REMARK    5  A    between atoms: C_16  and  C_17 
REMARK    6  A    between atoms: C_17  and  C_18 
REMARK    7  A    between atoms: C_18  and  C_19 
REMARK    8  A    between atoms: N_28  and  C_29 
ROOT
HETATM    1  N   UNL     1      39.961 -14.017   0.133  1.00  0.00    -0.325 N 
HETATM    2  C   UNL     1      39.734 -13.141   1.164  1.00  0.00     0.250 C 
HETATM    3  O   UNL     1      38.972 -12.189   1.106  1.00  0.00    -0.270 OA
HETATM    4  C   UNL     1      40.621 -13.567   2.352  1.00  0.00     0.118 C 
HETATM    5  C   UNL     1      39.749 -13.628   3.614  1.00  0.00     0.061 C 
HETATM    6  C   UNL     1      39.460 -12.246   4.194  1.00  0.00     0.129 C 
HETATM    7  N   UNL     1      40.676 -11.442   4.287  1.00  0.00    -0.352 N 
HETATM    8  C   UNL     1      41.071 -10.958   5.526  1.00  0.00     0.220 C 
HETATM    9  O   UNL     1      40.492 -11.279   6.567  1.00  0.00    -0.273 OA
HETATM   10  C   UNL     1      41.361 -11.224   3.017  1.00  0.00     0.129 C 
HETATM   11  C   UNL     1      41.786 -12.558   2.407  1.00  0.00     0.061 C 
HETATM   12  N   UNL     1      41.083 -14.916   1.908  1.00  0.00    -0.346 N 
HETATM   13  C   UNL     1      40.699 -15.177   0.524  1.00  0.00     0.254 C 
ENDROOT
BRANCH  12  14
HETATM   14  C   UNL     1      41.869 -15.823   2.596  1.00  0.00     0.032 A 
HETATM   15  C   UNL     1      42.648 -16.784   1.921  1.00  0.00     0.029 A 
HETATM   16  C   UNL     1      43.447 -17.722   2.593  1.00  0.00     0.002 A 
HETATM   17  C   UNL     1      43.496 -17.727   3.978  1.00  0.00     0.000 A 
HETATM   18  C   UNL     1      42.744 -16.799   4.681  1.00  0.00     0.002 A 
HETATM   19  C   UNL     1      41.946 -15.870   3.996  1.00  0.00     0.029 A 
ENDBRANCH  12  14
BRANCH   1  20
HETATM   20  C   UNL     1      39.446 -13.865  -1.218  1.00  0.00     0.230 C 
BRANCH  20  21
HETATM   21  C   UNL     1      40.181 -12.847  -2.095  1.00  0.00     0.240 C 
HETATM   22  N   UNL     1      40.039 -11.541  -1.668  1.00  0.00    -0.326 N 
HETATM   23  H   UNL     1      39.414 -11.395  -0.883  1.00  0.00     0.169 HD
HETATM   24  O   UNL     1      40.907 -13.240  -3.005  1.00  0.00    -0.271 OA
BRANCH  22  25
HETATM   25  C   UNL     1      40.716 -10.399  -2.144  1.00  0.00     0.037 A 
HETATM   26  C   UNL     1      41.720  -9.731  -1.439  1.00  0.00     0.066 A 
HETATM   27  C   UNL     1      42.304  -8.564  -1.948  1.00  0.00     0.070 A 
HETATM   28  C   UNL     1      41.916  -8.088  -3.200  1.00  0.00     0.037 A 
HETATM   29  C   UNL     1      40.927  -8.757  -3.921  1.00  0.00     0.005 A 
HETATM   30  C   UNL     1      40.324  -9.900  -3.392  1.00  0.00     0.029 A 
BRANCH  27  31
HETATM   31  O   UNL     1      43.246  -7.990  -1.138  1.00  0.00    -0.356 OA
HETATM   32  C   UNL     1      43.625  -6.656  -1.453  1.00  0.00     0.210 C 
ENDBRANCH  27  31
ENDBRANCH  22  25
ENDBRANCH  20  21
ENDBRANCH   1  20
BRANCH   8  33
HETATM   33  C   UNL     1      42.210  -9.962   5.593  1.00  0.00     0.107 C 
BRANCH  33  34
HETATM   34  C   UNL     1      43.470 -10.649   6.113  1.00  0.00     0.047 C 
BRANCH  34  35
HETATM   35  C   UNL     1      43.850 -10.171   7.492  1.00  0.00    -0.058 A 
HETATM   36  C   UNL     1      43.042  -9.258   8.181  1.00  0.00     0.007 A 
HETATM   37  C   UNL     1      43.400  -8.822   9.457  1.00  0.00     0.001 A 
HETATM   38  C   UNL     1      44.571  -9.288  10.053  1.00  0.00     0.000 A 
HETATM   39  C   UNL     1      45.387 -10.189   9.371  1.00  0.00     0.001 A 
HETATM   40  C   UNL     1      45.030 -10.627   8.096  1.00  0.00     0.007 A 
ENDBRANCH  34  35
ENDBRANCH  33  34
ENDBRANCH   8  33
TORSDOF 8
ENDMDL
MODEL 8
REMARK VINA RESULT:      -9.0      2.595      4.396
REMARK  8 active torsions:
REMARK  status: ('A' for Active; 'I' for Inactive)
REMARK    1  A    between atoms: O_2  and  C_3 
REMARK    2  A    between atoms: C_5  and  N_6 
REMARK       I    between atoms: N_6  and  C_7 
REMARK    3  A    between atoms: C_7  and  C_8 
REMARK    4  A    between atoms: C_8  and  N_9 
REMARK       I    between atoms: N_15  and  C_16 
REMARK    5  A    between atoms: C_16  and  C_17 
REMARK    6  A    between atoms: C_17  and  C_18 
REMARK    7  A    between atoms: C_18  and  C_19 
REMARK    8  A    between atoms: N_28  and  C_29 
ROOT
HETATM    1  N   UNL     1      40.190  -9.158   7.038  1.00  0.00    -0.325 N 
HETATM    2  C   UNL     1      40.016  -9.919   5.910  1.00  0.00     0.250 C 
HETATM    3  O   UNL     1      39.000  -9.925   5.231  1.00  0.00    -0.270 OA
HETATM    4  C   UNL     1      41.296 -10.752   5.697  1.00  0.00     0.118 C 
HETATM    5  C   UNL     1      41.745 -10.591   4.237  1.00  0.00     0.061 C 
HETATM    6  C   UNL     1      40.914 -11.433   3.272  1.00  0.00     0.129 C 
HETATM    7  N   UNL     1      40.764 -12.803   3.754  1.00  0.00    -0.352 N 
HETATM    8  C   UNL     1      41.213 -13.850   2.962  1.00  0.00     0.220 C 
HETATM    9  O   UNL     1      41.836 -13.655   1.915  1.00  0.00    -0.273 OA
HETATM   10  C   UNL     1      40.128 -12.923   5.062  1.00  0.00     0.129 C 
HETATM   11  C   UNL     1      40.951 -12.194   6.121  1.00  0.00     0.061 C 
HETATM   12  N   UNL     1      42.235 -10.104   6.660  1.00  0.00    -0.346 N 
HETATM   13  C   UNL     1      41.540  -9.142   7.509  1.00  0.00     0.254 C 
ENDROOT
BRANCH  12  14
HETATM   14  C   UNL     1      43.572 -10.386   6.877  1.00  0.00     0.032 A 
HETATM   15  C   UNL     1      44.276  -9.831   7.965  1.00  0.00     0.029 A 
HETATM   16  C   UNL     1      45.633 -10.093   8.203  1.00  0.00     0.002 A 
HETATM   17  C   UNL     1      46.339 -10.929   7.354  1.00  0.00     0.000 A 
HETATM   18  C   UNL     1      45.685 -11.496   6.271  1.00  0.00     0.002 A 
HETATM   19  C   UNL     1      44.329 -11.222   6.041  1.00  0.00     0.029 A 
ENDBRANCH  12  14
BRANCH   1  20
HETATM   20  C   UNL     1      39.154  -8.362   7.675  1.00  0.00     0.230 C 
BRANCH  20  21
HETATM   21  C   UNL     1      39.055  -8.500   9.197  1.00  0.00     0.240 C 
HETATM   22  N   UNL     1      39.427  -7.360   9.883  1.00  0.00    -0.326 N 
HETATM   23  H   UNL     1      39.792  -6.600   9.319  1.00  0.00     0.169 HD
HETATM   24  O   UNL     1      38.567  -9.517   9.684  1.00  0.00    -0.271 OA
BRANCH  22  25
HETATM   25  C   UNL     1      39.292  -7.102  11.263  1.00  0.00     0.037 A 
HETATM   26  C   UNL     1      40.335  -7.203  12.185  1.00  0.00     0.066 A 
HETATM   27  C   UNL     1      40.113  -6.993  13.553  1.00  0.00     0.070 A 
HETATM   28  C   UNL     1      38.842  -6.629  13.996  1.00  0.00     0.037 A 
HETATM   29  C   UNL     1      37.796  -6.508  13.081  1.00  0.00     0.005 A 
HETATM   30  C   UNL     1      38.017  -6.753  11.725  1.00  0.00     0.029 A 
BRANCH  27  31
HETATM   31  O   UNL     1      41.213  -7.163  14.349  1.00  0.00    -0.356 OA
HETATM   32  C   UNL     1      42.479  -7.066  13.710  1.00  0.00     0.210 C 
ENDBRANCH  27  31
ENDBRANCH  22  25
ENDBRANCH  20  21
ENDBRANCH   1  20
BRANCH   8  33
HETATM   33  C   UNL     1      40.876 -15.270   3.365  1.00  0.00     0.107 C 
BRANCH  33  34
HETATM   34  C   UNL     1      41.470 -16.250   2.357  1.00  0.00     0.047 C 
BRANCH  34  35
HETATM   35  C   UNL     1      42.536 -17.122   2.972  1.00  0.00    -0.058 A 
HETATM   36  C   UNL     1      42.979 -18.279   2.319  1.00  0.00     0.007 A 
HETATM   37  C   UNL     1      43.967 -19.079   2.894  1.00  0.00     0.001 A 
HETATM   38  C   UNL     1      44.516 -18.735   4.129  1.00  0.00     0.000 A 
HETATM   39  C   UNL     1      44.075 -17.590   4.791  1.00  0.00     0.001 A 
HETATM   40  C   UNL     1      43.088 -16.789   4.217  1.00  0.00     0.007 A 
ENDBRANCH  34  35
ENDBRANCH  33  34
ENDBRANCH   8  33
TORSDOF 8
ENDMDL
MODEL 9
REMARK VINA RESULT:      -9.0      3.173     10.012
REMARK  8 active torsions:
REMARK  status: ('A' for Active; 'I' for Inactive)
REMARK    1  A    between atoms: O_2  and  C_3 
REMARK    2  A    between atoms: C_5  and  N_6 
REMARK       I    between atoms: N_6  and  C_7 
REMARK    3  A    between atoms: C_7  and  C_8 
REMARK    4  A    between atoms: C_8  and  N_9 
REMARK       I    between atoms: N_15  and  C_16 
REMARK    5  A    between atoms: C_16  and  C_17 
REMARK    6  A    between atoms: C_17  and  C_18 
REMARK    7  A    between atoms: C_18  and  C_19 
REMARK    8  A    between atoms: N_28  and  C_29 
ROOT
HETATM    1  N   UNL     1      44.132 -10.143   8.792  1.00  0.00    -0.325 N 
HETATM    2  C   UNL     1      43.034  -9.601   8.173  1.00  0.00     0.250 C 
HETATM    3  O   UNL     1      42.796  -9.697   6.979  1.00  0.00    -0.270 OA
HETATM    4  C   UNL     1      42.209  -8.853   9.240  1.00  0.00     0.118 C 
HETATM    5  C   UNL     1      40.742  -9.294   9.120  1.00  0.00     0.061 C 
HETATM    6  C   UNL     1      40.024  -8.625   7.951  1.00  0.00     0.129 C 
HETATM    7  N   UNL     1      40.271  -7.187   7.926  1.00  0.00    -0.352 N 
HETATM    8  C   UNL     1      39.192  -6.316   7.997  1.00  0.00     0.220 C 
HETATM    9  O   UNL     1      38.042  -6.717   8.194  1.00  0.00    -0.273 OA
HETATM   10  C   UNL     1      41.677  -6.810   7.818  1.00  0.00     0.129 C 
HETATM   11  C   UNL     1      42.463  -7.350   9.011  1.00  0.00     0.061 C 
HETATM   12  N   UNL     1      42.850  -9.333  10.500  1.00  0.00    -0.346 N 
HETATM   13  C   UNL     1      44.057 -10.104  10.219  1.00  0.00     0.254 C 
ENDROOT
BRANCH  12  14
HETATM   14  C   UNL     1      42.494  -9.049  11.807  1.00  0.00     0.032 A 
HETATM   15  C   UNL     1      41.357  -9.628  12.405  1.00  0.00     0.029 A 
HETATM   16  C   UNL     1      40.969  -9.351  13.724  1.00  0.00     0.002 A 
HETATM   17  C   UNL     1      41.715  -8.479  14.500  1.00  0.00     0.000 A 
HETATM   18  C   UNL     1      42.842  -7.886  13.950  1.00  0.00     0.002 A 
HETATM   19  C   UNL     1      43.216  -8.169  12.628  1.00  0.00     0.029 A 
ENDBRANCH  12  14
BRANCH   1  20
HETATM   20  C   UNL     1      45.244 -10.782   8.107  1.00  0.00     0.230 C 
BRANCH  20  21
HETATM   21  C   UNL     1      44.860 -11.774   7.005  1.00  0.00     0.240 C 
HETATM   22  N   UNL     1      43.883 -12.674   7.384  1.00  0.00    -0.326 N 
HETATM   23  H   UNL     1      43.590 -12.630   8.354  1.00  0.00     0.169 HD
HETATM   24  O   UNL     1      45.332 -11.643   5.879  1.00  0.00    -0.271 OA
BRANCH  22  25
HETATM   25  C   UNL     1      43.195 -13.594   6.567  1.00  0.00     0.037 A 
HETATM   26  C   UNL     1      42.024 -13.298   5.867  1.00  0.00     0.066 A 
HETATM   27  C   UNL     1      41.359 -14.283   5.125  1.00  0.00     0.070 A 
HETATM   28  C   UNL     1      41.899 -15.565   5.040  1.00  0.00     0.037 A 
HETATM   29  C   UNL     1      43.079 -15.868   5.721  1.00  0.00     0.005 A 
HETATM   30  C   UNL     1      43.717 -14.891   6.488  1.00  0.00     0.029 A 
BRANCH  27  31
HETATM   31  O   UNL     1      40.202 -13.868   4.521  1.00  0.00    -0.356 OA
HETATM   32  C   UNL     1      39.799 -12.528   4.778  1.00  0.00     0.210 C 
ENDBRANCH  27  31
ENDBRANCH  22  25
ENDBRANCH  20  21
ENDBRANCH   1  20
BRANCH   8  33
HETATM   33  C   UNL     1      39.428  -4.838   7.767  1.00  0.00     0.107 C 
BRANCH  33  34
HETATM   34  C   UNL     1      39.156  -4.064   9.054  1.00  0.00     0.047 C 
BRANCH  34  35
HETATM   35  C   UNL     1      40.238  -4.275  10.084  1.00  0.00    -0.058 A 
HETATM   36  C   UNL     1      41.521  -3.746   9.893  1.00  0.00     0.007 A 
HETATM   37  C   UNL     1      42.516  -3.944  10.851  1.00  0.00     0.001 A 
HETATM   38  C   UNL     1      42.241  -4.678  12.003  1.00  0.00     0.000 A 
HETATM   39  C   UNL     1      40.970  -5.217  12.198  1.00  0.00     0.001 A 
HETATM   40  C   UNL     1      39.975  -5.019  11.242  1.00  0.00     0.007 A 
ENDBRANCH  34  35
ENDBRANCH  33  34
ENDBRANCH   8  33
TORSDOF 8
ENDMDL
MODEL 10
REMARK VINA RESULT:      -8.9      3.879     10.261
REMARK  8 active torsions:
REMARK  status: ('A' for Active; 'I' for Inactive)
REMARK    1  A    between atoms: O_2  and  C_3 
REMARK    2  A    between atoms: C_5  and  N_6 
REMARK       I    between atoms: N_6  and  C_7 
REMARK    3  A    between atoms: C_7  and  C_8 
REMARK    4  A    between atoms: C_8  and  N_9 
REMARK       I    between atoms: N_15  and  C_16 
REMARK    5  A    between atoms: C_16  and  C_17 
REMARK    6  A    between atoms: C_17  and  C_18 
REMARK    7  A    between atoms: C_18  and  C_19 
REMARK    8  A    between atoms: N_28  and  C_29 
ROOT
HETATM    1  N   UNL     1      41.223 -11.321   3.052  1.00  0.00    -0.325 N 
HETATM    2  C   UNL     1      40.550 -10.602   4.007  1.00  0.00     0.250 C 
HETATM    3  O   UNL     1      39.923  -9.577   3.788  1.00  0.00    -0.270 OA
HETATM    4  C   UNL     1      40.760 -11.304   5.365  1.00  0.00     0.118 C 
HETATM    5  C   UNL     1      39.393 -11.474   6.043  1.00  0.00     0.061 C 
HETATM    6  C   UNL     1      38.889 -10.180   6.676  1.00  0.00     0.129 C 
HETATM    7  N   UNL     1      39.929  -9.535   7.472  1.00  0.00    -0.352 N 
HETATM    8  C   UNL     1      39.698  -9.300   8.820  1.00  0.00     0.220 C 
HETATM    9  O   UNL     1      38.690  -9.720   9.392  1.00  0.00    -0.273 OA
HETATM   10  C   UNL     1      41.138  -9.189   6.731  1.00  0.00     0.129 C 
HETATM   11  C   UNL     1      41.777 -10.446   6.144  1.00  0.00     0.061 C 
HETATM   12  N   UNL     1      41.353 -12.606   4.936  1.00  0.00    -0.346 N 
HETATM   13  C   UNL     1      41.666 -12.600   3.511  1.00  0.00     0.254 C 
ENDROOT
BRANCH  12  14
HETATM   14  C   UNL     1      41.703 -13.690   5.721  1.00  0.00     0.032 A 
HETATM   15  C   UNL     1      42.973 -13.785   6.324  1.00  0.00     0.029 A 
HETATM   16  C   UNL     1      43.357 -14.877   7.118  1.00  0.00     0.002 A 
HETATM   17  C   UNL     1      42.472 -15.919   7.340  1.00  0.00     0.000 A 
HETATM   18  C   UNL     1      41.211 -15.866   6.766  1.00  0.00     0.002 A 
HETATM   19  C   UNL     1      40.843 -14.770   5.970  1.00  0.00     0.029 A 
ENDBRANCH  12  14
BRANCH   1  20
HETATM   20  C   UNL     1      41.413 -10.900   1.674  1.00  0.00     0.230 C 
BRANCH  20  21
HETATM   21  C   UNL     1      40.254 -11.209   0.722  1.00  0.00     0.240 C 
HETATM   22  N   UNL     1      40.556 -12.163  -0.231  1.00  0.00    -0.326 N 
HETATM   23  H   UNL     1      41.516 -12.490  -0.244  1.00  0.00     0.169 HD
HETATM   24  O   UNL     1      39.152 -10.705   0.923  1.00  0.00    -0.271 OA
BRANCH  22  25
HETATM   25  C   UNL     1      39.673 -12.788  -1.136  1.00  0.00     0.037 A 
HETATM   26  C   UNL     1      38.565 -12.161  -1.708  1.00  0.00     0.066 A 
HETATM   27  C   UNL     1      37.694 -12.865  -2.551  1.00  0.00     0.070 A 
HETATM   28  C   UNL     1      37.963 -14.196  -2.864  1.00  0.00     0.037 A 
HETATM   29  C   UNL     1      39.078 -14.827  -2.312  1.00  0.00     0.005 A 
HETATM   30  C   UNL     1      39.922 -14.131  -1.445  1.00  0.00     0.029 A 
BRANCH  27  31
HETATM   31  O   UNL     1      36.627 -12.141  -3.012  1.00  0.00    -0.356 OA
HETATM   32  C   UNL     1      36.747 -10.725  -2.949  1.00  0.00     0.210 C 
ENDBRANCH  27  31
ENDBRANCH  22  25
ENDBRANCH  20  21
ENDBRANCH   1  20
BRANCH   8  33
HETATM   33  C   UNL     1      40.687  -8.454   9.595  1.00  0.00     0.107 C 
BRANCH  33  34
HETATM   34  C   UNL     1      41.550  -9.347  10.482  1.00  0.00     0.047 C 
BRANCH  34  35
HETATM   35  C   UNL     1      43.002  -9.320  10.074  1.00  0.00    -0.058 A 
HETATM   36  C   UNL     1      43.457  -8.414   9.107  1.00  0.00     0.007 A 
HETATM   37  C   UNL     1      44.802  -8.393   8.737  1.00  0.00     0.001 A 
HETATM   38  C   UNL     1      45.703  -9.282   9.323  1.00  0.00     0.000 A 
HETATM   39  C   UNL     1      45.258 -10.193  10.279  1.00  0.00     0.001 A 
HETATM   40  C   UNL     1      43.914 -10.214  10.651  1.00  0.00     0.007 A 
ENDBRANCH  34  35
ENDBRANCH  33  34
ENDBRANCH   8  33
TORSDOF 8
ENDMDL
