MODEL 1
REMARK VINA RESULT:      -9.3      0.000      0.000
REMARK  9 active torsions:
REMARK  status: ('A' for Active; 'I' for Inactive)
REMARK    1  A    between atoms: C_3  and  C_4 
REMARK       I    between atoms: C_4  and  N_5 
REMARK    2  A    between atoms: N_5  and  C_6 
REMARK    3  A    between atoms: C_6  and  C_7 
REMARK    4  A    between atoms: C_14  and  N_15 
REMARK       I    between atoms: N_15  and  C_16 
REMARK    5  A    between atoms: C_16  and  C_17 
REMARK       I    between atoms: C_17  and  N_18 
REMARK    6  A    between atoms: N_18  and  C_19 
REMARK    7  A    between atoms: C_19  and  C_20 
REMARK    8  A    between atoms: C_20  and  C_21 
REMARK    9  A    between atoms: C_24  and  O_25 
ROOT
HETATM    1  N   UNL     1      43.322 -16.903   2.594  1.00  0.00    -0.318 N 
HETATM    2  C   UNL     1      42.177 -16.145   2.714  1.00  0.00     0.313 C 
HETATM    3  O   UNL     1      41.172 -16.382   3.373  1.00  0.00    -0.262 OA
HETATM    4  H   UNL     1      44.127 -16.395   2.235  1.00  0.00     0.169 HD
ENDROOT
BRANCH   1   5
HETATM    5  C   UNL     1      43.520 -18.183   3.147  1.00  0.00     0.051 A 
HETATM    6  C   UNL     1      43.889 -18.448   4.480  1.00  0.00     0.058 A 
HETATM    7  C   UNL     1      44.137 -19.774   4.882  1.00  0.00     0.019 A 
HETATM    8  C   UNL     1      44.004 -20.827   3.977  1.00  0.00     0.001 A 
HETATM    9  C   UNL     1      43.586 -20.572   2.675  1.00  0.00     0.002 A 
HETATM   10  C   UNL     1      43.331 -19.261   2.268  1.00  0.00     0.030 A 
BRANCH   6  11
HETATM   11  C   UNL     1      43.794 -17.418   5.551  1.00  0.00     0.254 C 
HETATM   12  N   UNL     1      42.531 -17.186   6.055  1.00  0.00    -0.353 N 
HETATM   13  H   UNL     1      41.798 -17.856   5.862  1.00  0.00     0.163 HD
HETATM   14  O   UNL     1      44.792 -16.794   5.899  1.00  0.00    -0.268 OA
BRANCH  12  15
HETATM   15  C   UNL     1      42.318 -16.249   7.137  1.00  0.00     0.162 C 
BRANCH  15  16
HETATM   16  C   UNL     1      41.824 -14.922   6.637  1.00  0.00    -0.023 A 
HETATM   17  C   UNL     1      42.714 -13.893   6.345  1.00  0.00     0.125 A 
HETATM   18  N   UNL     1      42.352 -12.689   5.845  1.00  0.00    -0.273 NA
HETATM   19  C   UNL     1      41.037 -12.502   5.607  1.00  0.00     0.116 A 
HETATM   20  C   UNL     1      40.068 -13.461   5.847  1.00  0.00     0.020 A 
HETATM   21  C   UNL     1      40.472 -14.689   6.364  1.00  0.00     0.012 A 
ENDBRANCH  15  16
ENDBRANCH  12  15
ENDBRANCH   6  11
ENDBRANCH   1   5
BRANCH   2  22
HETATM   22  C   UNL     1      42.308 -14.779   2.001  1.00  0.00     0.309 C 
HETATM   23  N   UNL     1      41.103 -14.240   1.612  1.00  0.00    -0.353 N 
HETATM   24  H   UNL     1      40.281 -14.816   1.768  1.00  0.00     0.162 HD
HETATM   25  O   UNL     1      43.408 -14.264   1.864  1.00  0.00    -0.262 OA
BRANCH  23  26
HETATM   26  C   UNL     1      41.004 -13.016   0.841  1.00  0.00     0.128 C 
BRANCH  26  27
HETATM   27  C   UNL     1      39.548 -12.680   0.521  1.00  0.00     0.058 C 
BRANCH  27  28
HETATM   28  C   UNL     1      39.117 -13.217  -0.821  1.00  0.00    -0.057 A 
HETATM   29  C   UNL     1      37.982 -12.698  -1.460  1.00  0.00     0.010 A 
HETATM   30  C   UNL     1      37.581 -13.188  -2.705  1.00  0.00     0.037 A 
HETATM   31  C   UNL     1      38.314 -14.206  -3.306  1.00  0.00     0.065 A 
HETATM   32  C   UNL     1      39.432 -14.743  -2.682  1.00  0.00     0.037 A 
HETATM   33  C   UNL     1      39.835 -14.250  -1.439  1.00  0.00     0.010 A 
BRANCH  31  34
HETATM   34  O   UNL     1      37.962 -14.710  -4.524  1.00  0.00    -0.361 OA
HETATM   35  H   UNL     1      37.010 -14.903  -4.512  1.00  0.00     0.217 HD
ENDBRANCH  31  34
ENDBRANCH  27  28
ENDBRANCH  26  27
ENDBRANCH  23  26
ENDBRANCH   2  22
TORSDOF 9
ENDMDL
MODEL 2
REMARK VINA RESULT:      -8.9      5.323     10.430
REMARK  9 active torsions:
REMARK  status: ('A' for Active; 'I' for Inactive)
REMARK    1  A    between atoms: C_3  and  C_4 
REMARK       I    between atoms: C_4  and  N_5 
REMARK    2  A    between atoms: N_5  and  C_6 
REMARK    3  A    between atoms: C_6  and  C_7 
REMARK    4  A    between atoms: C_14  and  N_15 
REMARK       I    between atoms: N_15  and  C_16 
REMARK    5  A    between atoms: C_16  and  C_17 
REMARK       I    between atoms: C_17  and  N_18 
REMARK    6  A    between atoms: N_18  and  C_19 
REMARK    7  A    between atoms: C_19  and  C_20 
REMARK    8  A    between atoms: C_20  and  C_21 
REMARK    9  A    between atoms: C_24  and  O_25 
ROOT
HETATM    1  N   UNL     1      42.798 -12.321   7.019  1.00  0.00    -0.318 N 
HETATM    2  C   UNL     1      43.854 -11.456   6.823  1.00  0.00     0.313 C 
HETATM    3  O   UNL     1      44.200 -10.899   5.789  1.00  0.00    -0.262 OA
HETATM    4  H   UNL     1      42.525 -12.436   7.992  1.00  0.00     0.169 HD
ENDROOT
BRANCH   1   5
HETATM    5  C   UNL     1      41.951 -12.823   6.012  1.00  0.00     0.051 A 
HETATM    6  C   UNL     1      42.147 -14.025   5.305  1.00  0.00     0.058 A 
HETATM    7  C   UNL     1      41.267 -14.368   4.261  1.00  0.00     0.019 A 
HETATM    8  C   UNL     1      40.196 -13.537   3.933  1.00  0.00     0.001 A 
HETATM    9  C   UNL     1      39.970 -12.377   4.667  1.00  0.00     0.002 A 
HETATM   10  C   UNL     1      40.833 -12.031   5.709  1.00  0.00     0.030 A 
BRANCH   6  11
HETATM   11  C   UNL     1      43.098 -15.073   5.768  1.00  0.00     0.254 C 
HETATM   12  N   UNL     1      43.326 -16.112   4.889  1.00  0.00    -0.353 N 
HETATM   13  H   UNL     1      43.043 -16.004   3.924  1.00  0.00     0.163 HD
HETATM   14  O   UNL     1      43.587 -15.011   6.892  1.00  0.00    -0.268 OA
BRANCH  12  15
HETATM   15  C   UNL     1      44.271 -17.161   5.201  1.00  0.00     0.162 C 
BRANCH  15  16
HETATM   16  C   UNL     1      44.075 -18.368   4.327  1.00  0.00    -0.023 A 
HETATM   17  C   UNL     1      44.282 -19.650   4.824  1.00  0.00     0.125 A 
HETATM   18  N   UNL     1      44.078 -20.786   4.116  1.00  0.00    -0.273 NA
HETATM   19  C   UNL     1      43.630 -20.639   2.851  1.00  0.00     0.116 A 
HETATM   20  C   UNL     1      43.379 -19.412   2.262  1.00  0.00     0.020 A 
HETATM   21  C   UNL     1      43.601 -18.263   3.015  1.00  0.00     0.012 A 
ENDBRANCH  15  16
ENDBRANCH  12  15
ENDBRANCH   6  11
ENDBRANCH   1   5
BRANCH   2  22
HETATM   22  C   UNL     1      44.559 -11.090   8.150  1.00  0.00     0.309 C 
HETATM   23  N   UNL     1      43.690 -10.802   9.178  1.00  0.00    -0.353 N 
HETATM   24  H   UNL     1      42.702 -10.793   8.942  1.00  0.00     0.162 HD
HETATM   25  O   UNL     1      45.779 -11.111   8.220  1.00  0.00    -0.262 OA
BRANCH  23  26
HETATM   26  C   UNL     1      44.137 -10.339  10.476  1.00  0.00     0.128 C 
BRANCH  26  27
HETATM   27  C   UNL     1      43.652  -8.916  10.754  1.00  0.00     0.058 C 
BRANCH  27  28
HETATM   28  C   UNL     1      43.001  -8.787  12.108  1.00  0.00    -0.057 A 
HETATM   29  C   UNL     1      43.416  -7.788  13.001  1.00  0.00     0.010 A 
HETATM   30  C   UNL     1      42.813  -7.660  14.254  1.00  0.00     0.037 A 
HETATM   31  C   UNL     1      41.798  -8.540  14.617  1.00  0.00     0.065 A 
HETATM   32  C   UNL     1      41.383  -9.544  13.752  1.00  0.00     0.037 A 
HETATM   33  C   UNL     1      41.984  -9.669  12.498  1.00  0.00     0.010 A 
BRANCH  31  34
HETATM   34  O   UNL     1      41.178  -8.447  15.828  1.00  0.00    -0.361 OA
HETATM   35  H   UNL     1      41.781  -8.790  16.508  1.00  0.00     0.217 HD
ENDBRANCH  31  34
ENDBRANCH  27  28
ENDBRANCH  26  27
ENDBRANCH  23  26
ENDBRANCH   2  22
TORSDOF 9
ENDMDL
MODEL 3
REMARK VINA RESULT:      -8.9      5.323      8.690
REMARK  9 active torsions:
REMARK  status: ('A' for Active; 'I' for Inactive)
REMARK    1  A    between atoms: C_3  and  C_4 
REMARK       I    between atoms: C_4  and  N_5 
REMARK    2  A    between atoms: N_5  and  C_6 
REMARK    3  A    between atoms: C_6  and  C_7 
REMARK    4  A    between atoms: C_14  and  N_15 
REMARK       I    between atoms: N_15  and  C_16 
REMARK    5  A    between atoms: C_16  and  C_17 
REMARK       I    between atoms: C_17  and  N_18 
REMARK    6  A    between atoms: N_18  and  C_19 
REMARK    7  A    between atoms: C_19  and  C_20 
REMARK    8  A    between atoms: C_20  and  C_21 
REMARK    9  A    between atoms: C_24  and  O_25 
ROOT
HETATM    1  N   UNL     1      43.686 -11.973   6.933  1.00  0.00    -0.318 N 
HETATM    2  C   UNL     1      43.281 -12.108   5.622  1.00  0.00     0.313 C 
HETATM    3  O   UNL     1      43.632 -11.456   4.646  1.00  0.00    -0.262 OA
HETATM    4  H   UNL     1      43.493 -12.784   7.517  1.00  0.00     0.169 HD
ENDROOT
BRANCH   1   5
HETATM    5  C   UNL     1      44.532 -10.964   7.430  1.00  0.00     0.051 A 
HETATM    6  C   UNL     1      44.117  -9.846   8.178  1.00  0.00     0.058 A 
HETATM    7  C   UNL     1      45.058  -8.865   8.543  1.00  0.00     0.019 A 
HETATM    8  C   UNL     1      46.399  -9.000   8.184  1.00  0.00     0.001 A 
HETATM    9  C   UNL     1      46.820 -10.131   7.493  1.00  0.00     0.002 A 
HETATM   10  C   UNL     1      45.895 -11.113   7.132  1.00  0.00     0.030 A 
BRANCH   6  11
HETATM   11  C   UNL     1      42.772  -9.770   8.813  1.00  0.00     0.254 C 
HETATM   12  N   UNL     1      42.752  -9.815  10.192  1.00  0.00    -0.353 N 
HETATM   13  H   UNL     1      43.615  -9.662  10.697  1.00  0.00     0.163 HD
HETATM   14  O   UNL     1      41.762  -9.725   8.118  1.00  0.00    -0.268 OA
BRANCH  12  15
HETATM   15  C   UNL     1      41.512  -9.693  10.927  1.00  0.00     0.162 C 
BRANCH  15  16
HETATM   16  C   UNL     1      41.717  -9.042  12.265  1.00  0.00    -0.023 A 
HETATM   17  C   UNL     1      40.871  -9.325  13.333  1.00  0.00     0.125 A 
HETATM   18  N   UNL     1      41.020  -8.818  14.579  1.00  0.00    -0.273 NA
HETATM   19  C   UNL     1      42.074  -8.000  14.779  1.00  0.00     0.116 A 
HETATM   20  C   UNL     1      42.984  -7.662  13.792  1.00  0.00     0.020 A 
HETATM   21  C   UNL     1      42.802  -8.198  12.520  1.00  0.00     0.012 A 
ENDBRANCH  15  16
ENDBRANCH  12  15
ENDBRANCH   6  11
ENDBRANCH   1   5
BRANCH   2  22
HETATM   22  C   UNL     1      42.370 -13.341   5.418  1.00  0.00     0.309 C 
HETATM   23  N   UNL     1      43.017 -14.423   4.866  1.00  0.00    -0.353 N 
HETATM   24  H   UNL     1      43.985 -14.276   4.593  1.00  0.00     0.162 HD
HETATM   25  O   UNL     1      41.200 -13.302   5.773  1.00  0.00    -0.262 OA
BRANCH  23  26
HETATM   26  C   UNL     1      42.330 -15.644   4.499  1.00  0.00     0.128 C 
BRANCH  26  27
HETATM   27  C   UNL     1      42.841 -16.188   3.165  1.00  0.00     0.058 C 
BRANCH  27  28
HETATM   28  C   UNL     1      43.197 -17.651   3.241  1.00  0.00    -0.057 A 
HETATM   29  C   UNL     1      42.922 -18.505   2.162  1.00  0.00     0.010 A 
HETATM   30  C   UNL     1      43.254 -19.859   2.226  1.00  0.00     0.037 A 
HETATM   31  C   UNL     1      43.856 -20.362   3.374  1.00  0.00     0.065 A 
HETATM   32  C   UNL     1      44.124 -19.536   4.458  1.00  0.00     0.037 A 
HETATM   33  C   UNL     1      43.795 -18.181   4.393  1.00  0.00     0.010 A 
BRANCH  31  34
HETATM   34  O   UNL     1      44.204 -21.677   3.476  1.00  0.00    -0.361 OA
HETATM   35  H   UNL     1      43.558 -22.121   4.050  1.00  0.00     0.217 HD
ENDBRANCH  31  34
ENDBRANCH  27  28
ENDBRANCH  26  27
ENDBRANCH  23  26
ENDBRANCH   2  22
TORSDOF 9
ENDMDL
MODEL 4
REMARK VINA RESULT:      -8.7      5.519      8.833
REMARK  9 active torsions:
REMARK  status: ('A' for Active; 'I' for Inactive)
REMARK    1  A    between atoms: C_3  and  C_4 
REMARK       I    between atoms: C_4  and  N_5 
REMARK    2  A    between atoms: N_5  and  C_6 
REMARK    3  A    between atoms: C_6  and  C_7 
REMARK    4  A    between atoms: C_14  and  N_15 
REMARK       I    between atoms: N_15  and  C_16 
REMARK    5  A    between atoms: C_16  and  C_17 
REMARK       I    between atoms: C_17  and  N_18 
REMARK    6  A    between atoms: N_18  and  C_19 
REMARK    7  A    between atoms: C_19  and  C_20 
REMARK    8  A    between atoms: C_20  and  C_21 
REMARK    9  A    between atoms: C_24  and  O_25 
ROOT
HETATM    1  N   UNL     1      43.082 -11.621   7.100  1.00  0.00    -0.318 N 
HETATM    2  C   UNL     1      42.317 -11.348   5.987  1.00  0.00     0.313 C 
HETATM    3  O   UNL     1      42.403 -10.399   5.217  1.00  0.00    -0.262 OA
HETATM    4  H   UNL     1      43.030 -12.586   7.420  1.00  0.00     0.169 HD
ENDROOT
BRANCH   1   5
HETATM    5  C   UNL     1      44.076 -10.781   7.638  1.00  0.00     0.051 A 
HETATM    6  C   UNL     1      43.854  -9.743   8.563  1.00  0.00     0.058 A 
HETATM    7  C   UNL     1      44.927  -8.922   8.957  1.00  0.00     0.019 A 
HETATM    8  C   UNL     1      46.209  -9.138   8.452  1.00  0.00     0.001 A 
HETATM    9  C   UNL     1      46.440 -10.198   7.581  1.00  0.00     0.002 A 
HETATM   10  C   UNL     1      45.383 -11.022   7.189  1.00  0.00     0.030 A 
BRANCH   6  11
HETATM   11  C   UNL     1      42.585  -9.623   9.334  1.00  0.00     0.254 C 
HETATM   12  N   UNL     1      42.658  -9.953  10.671  1.00  0.00    -0.353 N 
HETATM   13  H   UNL     1      43.568 -10.028  11.106  1.00  0.00     0.163 HD
HETATM   14  O   UNL     1      41.547  -9.299   8.767  1.00  0.00    -0.268 OA
BRANCH  12  15
HETATM   15  C   UNL     1      41.506  -9.824  11.537  1.00  0.00     0.162 C 
BRANCH  15  16
HETATM   16  C   UNL     1      41.800  -8.966  12.734  1.00  0.00    -0.023 A 
HETATM   17  C   UNL     1      41.048  -9.084  13.899  1.00  0.00     0.125 A 
HETATM   18  N   UNL     1      41.283  -8.384  15.033  1.00  0.00    -0.273 NA
HETATM   19  C   UNL     1      42.331  -7.533  15.015  1.00  0.00     0.116 A 
HETATM   20  C   UNL     1      43.152  -7.348  13.916  1.00  0.00     0.020 A 
HETATM   21  C   UNL     1      42.883  -8.081  12.763  1.00  0.00     0.012 A 
ENDBRANCH  15  16
ENDBRANCH  12  15
ENDBRANCH   6  11
ENDBRANCH   1   5
BRANCH   2  22
HETATM   22  C   UNL     1      41.335 -12.498   5.660  1.00  0.00     0.309 C 
HETATM   23  N   UNL     1      41.399 -13.549   6.547  1.00  0.00    -0.353 N 
HETATM   24  H   UNL     1      42.116 -13.489   7.265  1.00  0.00     0.162 HD
HETATM   25  O   UNL     1      40.574 -12.401   4.708  1.00  0.00    -0.262 OA
BRANCH  23  26
HETATM   26  C   UNL     1      40.639 -14.770   6.371  1.00  0.00     0.128 C 
BRANCH  26  27
HETATM   27  C   UNL     1      41.413 -15.983   6.887  1.00  0.00     0.058 C 
BRANCH  27  28
HETATM   28  C   UNL     1      42.173 -16.687   5.790  1.00  0.00    -0.057 A 
HETATM   29  C   UNL     1      41.884 -16.419   4.444  1.00  0.00     0.010 A 
HETATM   30  C   UNL     1      42.588 -17.065   3.425  1.00  0.00     0.037 A 
HETATM   31  C   UNL     1      43.576 -17.986   3.755  1.00  0.00     0.065 A 
HETATM   32  C   UNL     1      43.867 -18.274   5.081  1.00  0.00     0.037 A 
HETATM   33  C   UNL     1      43.166 -17.626   6.101  1.00  0.00     0.010 A 
BRANCH  31  34
HETATM   34  O   UNL     1      44.292 -18.634   2.792  1.00  0.00    -0.361 OA
HETATM   35  H   UNL     1      44.425 -18.026   2.046  1.00  0.00     0.217 HD
ENDBRANCH  31  34
ENDBRANCH  27  28
ENDBRANCH  26  27
ENDBRANCH  23  26
ENDBRANCH   2  22
TORSDOF 9
ENDMDL
MODEL 5
REMARK VINA RESULT:      -8.6      3.483      7.392
REMARK  9 active torsions:
REMARK  status: ('A' for Active; 'I' for Inactive)
REMARK    1  A    between atoms: C_3  and  C_4 
REMARK       I    between atoms: C_4  and  N_5 
REMARK    2  A    between atoms: N_5  and  C_6 
REMARK    3  A    between atoms: C_6  and  C_7 
REMARK    4  A    between atoms: C_14  and  N_15 
REMARK       I    between atoms: N_15  and  C_16 
REMARK    5  A    between atoms: C_16  and  C_17 
REMARK       I    between atoms: C_17  and  N_18 
REMARK    6  A    between atoms: N_18  and  C_19 
REMARK    7  A    between atoms: C_19  and  C_20 
REMARK    8  A    between atoms: C_20  and  C_21 
REMARK    9  A    between atoms: C_24  and  O_25 
ROOT
HETATM    1  N   UNL     1      40.998 -13.919   4.630  1.00  0.00    -0.318 N 
HETATM    2  C   UNL     1      40.445 -14.186   5.864  1.00  0.00     0.313 C 
HETATM    3  O   UNL     1      39.627 -13.524   6.492  1.00  0.00    -0.262 OA
HETATM    4  H   UNL     1      41.425 -14.724   4.178  1.00  0.00     0.169 HD
ENDROOT
BRANCH   1   5
HETATM    5  C   UNL     1      40.795 -12.746   3.877  1.00  0.00     0.051 A 
HETATM    6  C   UNL     1      41.627 -11.611   3.896  1.00  0.00     0.058 A 
HETATM    7  C   UNL     1      41.262 -10.469   3.156  1.00  0.00     0.019 A 
HETATM    8  C   UNL     1      40.094 -10.461   2.394  1.00  0.00     0.001 A 
HETATM    9  C   UNL     1      39.300 -11.602   2.332  1.00  0.00     0.002 A 
HETATM   10  C   UNL     1      39.657 -12.741   3.056  1.00  0.00     0.030 A 
BRANCH   6  11
HETATM   11  C   UNL     1      43.002 -11.642   4.467  1.00  0.00     0.254 C 
HETATM   12  N   UNL     1      43.094 -11.977   5.802  1.00  0.00    -0.353 N 
HETATM   13  H   UNL     1      42.293 -12.399   6.255  1.00  0.00     0.163 HD
HETATM   14  O   UNL     1      43.966 -11.330   3.775  1.00  0.00    -0.268 OA
BRANCH  12  15
HETATM   15  C   UNL     1      44.378 -12.096   6.457  1.00  0.00     0.162 C 
BRANCH  15  16
HETATM   16  C   UNL     1      44.759 -10.831   7.173  1.00  0.00    -0.023 A 
HETATM   17  C   UNL     1      43.787 -10.005   7.728  1.00  0.00     0.125 A 
HETATM   18  N   UNL     1      44.054  -8.878   8.429  1.00  0.00    -0.273 NA
HETATM   19  C   UNL     1      45.355  -8.565   8.602  1.00  0.00     0.116 A 
HETATM   20  C   UNL     1      46.401  -9.322   8.104  1.00  0.00     0.020 A 
HETATM   21  C   UNL     1      46.095 -10.474   7.385  1.00  0.00     0.012 A 
ENDBRANCH  15  16
ENDBRANCH  12  15
ENDBRANCH   6  11
ENDBRANCH   1   5
BRANCH   2  22
HETATM   22  C   UNL     1      40.859 -15.577   6.398  1.00  0.00     0.309 C 
HETATM   23  N   UNL     1      42.187 -15.876   6.192  1.00  0.00    -0.353 N 
HETATM   24  H   UNL     1      42.724 -15.195   5.662  1.00  0.00     0.162 HD
HETATM   25  O   UNL     1      40.041 -16.281   6.973  1.00  0.00    -0.262 OA
BRANCH  23  26
HETATM   26  C   UNL     1      42.761 -17.164   6.523  1.00  0.00     0.128 C 
BRANCH  26  27
HETATM   27  C   UNL     1      44.055 -17.410   5.748  1.00  0.00     0.058 C 
BRANCH  27  28
HETATM   28  C   UNL     1      43.853 -18.330   4.571  1.00  0.00    -0.057 A 
HETATM   29  C   UNL     1      43.390 -17.823   3.347  1.00  0.00     0.010 A 
HETATM   30  C   UNL     1      43.206 -18.670   2.252  1.00  0.00     0.037 A 
HETATM   31  C   UNL     1      43.478 -20.028   2.385  1.00  0.00     0.065 A 
HETATM   32  C   UNL     1      43.924 -20.550   3.592  1.00  0.00     0.037 A 
HETATM   33  C   UNL     1      44.112 -19.703   4.686  1.00  0.00     0.010 A 
BRANCH  31  34
HETATM   34  O   UNL     1      43.319 -20.890   1.340  1.00  0.00    -0.361 OA
HETATM   35  H   UNL     1      44.198 -21.171   1.037  1.00  0.00     0.217 HD
ENDBRANCH  31  34
ENDBRANCH  27  28
ENDBRANCH  26  27
ENDBRANCH  23  26
ENDBRANCH   2  22
TORSDOF 9
ENDMDL
MODEL 6
REMARK VINA RESULT:      -8.6      1.501      2.098
REMARK  9 active torsions:
REMARK  status: ('A' for Active; 'I' for Inactive)
REMARK    1  A    between atoms: C_3  and  C_4 
REMARK       I    between atoms: C_4  and  N_5 
REMARK    2  A    between atoms: N_5  and  C_6 
REMARK    3  A    between atoms: C_6  and  C_7 
REMARK    4  A    between atoms: C_14  and  N_15 
REMARK       I    between atoms: N_15  and  C_16 
REMARK    5  A    between atoms: C_16  and  C_17 
REMARK       I    between atoms: C_17  and  N_18 
REMARK    6  A    between atoms: N_18  and  C_19 
REMARK    7  A    between atoms: C_19  and  C_20 
REMARK    8  A    between atoms: C_20  and  C_21 
REMARK    9  A    between atoms: C_24  and  O_25 
ROOT
HETATM    1  N   UNL     1      41.672 -16.766   2.532  1.00  0.00    -0.318 N 
HETATM    2  C   UNL     1      41.960 -15.548   1.954  1.00  0.00     0.313 C 
HETATM    3  O   UNL     1      43.058 -15.064   1.706  1.00  0.00    -0.262 OA
HETATM    4  H   UNL     1      40.717 -17.085   2.385  1.00  0.00     0.169 HD
ENDROOT
BRANCH   1   5
HETATM    5  C   UNL     1      42.616 -17.670   3.055  1.00  0.00     0.051 A 
HETATM    6  C   UNL     1      43.286 -17.530   4.285  1.00  0.00     0.058 A 
HETATM    7  C   UNL     1      44.272 -18.466   4.651  1.00  0.00     0.019 A 
HETATM    8  C   UNL     1      44.577 -19.538   3.813  1.00  0.00     0.001 A 
HETATM    9  C   UNL     1      43.877 -19.708   2.623  1.00  0.00     0.002 A 
HETATM   10  C   UNL     1      42.893 -18.789   2.255  1.00  0.00     0.030 A 
BRANCH   6  11
HETATM   11  C   UNL     1      42.832 -16.574   5.333  1.00  0.00     0.254 C 
HETATM   12  N   UNL     1      43.758 -15.632   5.734  1.00  0.00    -0.353 N 
HETATM   13  H   UNL     1      44.579 -15.482   5.162  1.00  0.00     0.163 HD
HETATM   14  O   UNL     1      41.713 -16.683   5.826  1.00  0.00    -0.268 OA
BRANCH  12  15
HETATM   15  C   UNL     1      43.418 -14.615   6.704  1.00  0.00     0.162 C 
BRANCH  15  16
HETATM   16  C   UNL     1      43.243 -13.267   6.063  1.00  0.00    -0.023 A 
HETATM   17  C   UNL     1      42.645 -13.144   4.813  1.00  0.00     0.125 A 
HETATM   18  N   UNL     1      42.408 -11.964   4.194  1.00  0.00    -0.273 NA
HETATM   19  C   UNL     1      42.770 -10.847   4.859  1.00  0.00     0.116 A 
HETATM   20  C   UNL     1      43.359 -10.854   6.111  1.00  0.00     0.020 A 
HETATM   21  C   UNL     1      43.592 -12.084   6.721  1.00  0.00     0.012 A 
ENDBRANCH  15  16
ENDBRANCH  12  15
ENDBRANCH   6  11
ENDBRANCH   1   5
BRANCH   2  22
HETATM   22  C   UNL     1      40.686 -14.820   1.467  1.00  0.00     0.309 C 
HETATM   23  N   UNL     1      40.698 -13.464   1.703  1.00  0.00    -0.353 N 
HETATM   24  H   UNL     1      41.494 -13.105   2.223  1.00  0.00     0.162 HD
HETATM   25  O   UNL     1      39.804 -15.446   0.898  1.00  0.00    -0.262 OA
BRANCH  23  26
HETATM   26  C   UNL     1      39.565 -12.608   1.418  1.00  0.00     0.128 C 
BRANCH  26  27
HETATM   27  C   UNL     1      39.761 -11.848   0.106  1.00  0.00     0.058 C 
BRANCH  27  28
HETATM   28  C   UNL     1      39.322 -12.650  -1.093  1.00  0.00    -0.057 A 
HETATM   29  C   UNL     1      40.263 -13.366  -1.849  1.00  0.00     0.010 A 
HETATM   30  C   UNL     1      39.861 -14.114  -2.957  1.00  0.00     0.037 A 
HETATM   31  C   UNL     1      38.517 -14.139  -3.314  1.00  0.00     0.065 A 
HETATM   32  C   UNL     1      37.573 -13.427  -2.586  1.00  0.00     0.037 A 
HETATM   33  C   UNL     1      37.974 -12.681  -1.475  1.00  0.00     0.010 A 
BRANCH  31  34
HETATM   34  O   UNL     1      38.080 -14.862  -4.385  1.00  0.00    -0.361 OA
HETATM   35  H   UNL     1      37.141 -14.660  -4.529  1.00  0.00     0.217 HD
ENDBRANCH  31  34
ENDBRANCH  27  28
ENDBRANCH  26  27
ENDBRANCH  23  26
ENDBRANCH   2  22
TORSDOF 9
ENDMDL
MODEL 7
REMARK VINA RESULT:      -8.5      2.489      4.664
REMARK  9 active torsions:
REMARK  status: ('A' for Active; 'I' for Inactive)
REMARK    1  A    between atoms: C_3  and  C_4 
REMARK       I    between atoms: C_4  and  N_5 
REMARK    2  A    between atoms: N_5  and  C_6 
REMARK    3  A    between atoms: C_6  and  C_7 
REMARK    4  A    between atoms: C_14  and  N_15 
REMARK       I    between atoms: N_15  and  C_16 
REMARK    5  A    between atoms: C_16  and  C_17 
REMARK       I    between atoms: C_17  and  N_18 
REMARK    6  A    between atoms: N_18  and  C_19 
REMARK    7  A    between atoms: C_19  and  C_20 
REMARK    8  A    between atoms: C_20  and  C_21 
REMARK    9  A    between atoms: C_24  and  O_25 
ROOT
HETATM    1  N   UNL     1      41.995 -16.614   2.360  1.00  0.00    -0.318 N 
HETATM    2  C   UNL     1      42.537 -15.480   1.794  1.00  0.00     0.313 C 
HETATM    3  O   UNL     1      43.718 -15.205   1.621  1.00  0.00    -0.262 OA
HETATM    4  H   UNL     1      41.011 -16.761   2.147  1.00  0.00     0.169 HD
ENDROOT
BRANCH   1   5
HETATM    5  C   UNL     1      42.724 -17.662   2.955  1.00  0.00     0.051 A 
HETATM    6  C   UNL     1      43.230 -17.660   4.269  1.00  0.00     0.058 A 
HETATM    7  C   UNL     1      44.016 -18.740   4.713  1.00  0.00     0.019 A 
HETATM    8  C   UNL     1      44.283 -19.818   3.869  1.00  0.00     0.001 A 
HETATM    9  C   UNL     1      43.737 -19.846   2.590  1.00  0.00     0.002 A 
HETATM   10  C   UNL     1      42.951 -18.783   2.142  1.00  0.00     0.030 A 
BRANCH   6  11
HETATM   11  C   UNL     1      42.773 -16.682   5.295  1.00  0.00     0.254 C 
HETATM   12  N   UNL     1      43.758 -15.906   5.871  1.00  0.00    -0.353 N 
HETATM   13  H   UNL     1      44.666 -15.863   5.428  1.00  0.00     0.163 HD
HETATM   14  O   UNL     1      41.591 -16.637   5.622  1.00  0.00    -0.268 OA
BRANCH  12  15
HETATM   15  C   UNL     1      43.432 -14.883   6.840  1.00  0.00     0.162 C 
BRANCH  15  16
HETATM   16  C   UNL     1      43.490 -13.507   6.241  1.00  0.00    -0.023 A 
HETATM   17  C   UNL     1      43.130 -13.291   4.914  1.00  0.00     0.125 A 
HETATM   18  N   UNL     1      43.107 -12.076   4.318  1.00  0.00    -0.273 NA
HETATM   19  C   UNL     1      43.447 -11.018   5.084  1.00  0.00     0.116 A 
HETATM   20  C   UNL     1      43.809 -11.118   6.416  1.00  0.00     0.020 A 
HETATM   21  C   UNL     1      43.824 -12.381   7.000  1.00  0.00     0.012 A 
ENDBRANCH  15  16
ENDBRANCH  12  15
ENDBRANCH   6  11
ENDBRANCH   1   5
BRANCH   2  22
HETATM   22  C   UNL     1      41.451 -14.546   1.211  1.00  0.00     0.309 C 
HETATM   23  N   UNL     1      41.366 -13.330   1.850  1.00  0.00    -0.353 N 
HETATM   24  H   UNL     1      41.964 -13.205   2.662  1.00  0.00     0.162 HD
HETATM   25  O   UNL     1      40.790 -14.904   0.247  1.00  0.00    -0.262 OA
BRANCH  23  26
HETATM   26  C   UNL     1      40.351 -12.346   1.530  1.00  0.00     0.128 C 
BRANCH  26  27
HETATM   27  C   UNL     1      39.156 -12.455   2.478  1.00  0.00     0.058 C 
BRANCH  27  28
HETATM   28  C   UNL     1      39.466 -11.924   3.855  1.00  0.00    -0.057 A 
HETATM   29  C   UNL     1      39.542 -12.797   4.950  1.00  0.00     0.010 A 
HETATM   30  C   UNL     1      39.834 -12.311   6.226  1.00  0.00     0.037 A 
HETATM   31  C   UNL     1      40.041 -10.948   6.407  1.00  0.00     0.065 A 
HETATM   32  C   UNL     1      39.956 -10.066   5.338  1.00  0.00     0.037 A 
HETATM   33  C   UNL     1      39.668 -10.552   4.061  1.00  0.00     0.010 A 
BRANCH  31  34
HETATM   34  O   UNL     1      40.334 -10.431   7.635  1.00  0.00    -0.361 OA
HETATM   35  H   UNL     1      40.212  -9.468   7.600  1.00  0.00     0.217 HD
ENDBRANCH  31  34
ENDBRANCH  27  28
ENDBRANCH  26  27
ENDBRANCH  23  26
ENDBRANCH   2  22
TORSDOF 9
ENDMDL
MODEL 8
REMARK VINA RESULT:      -8.5      1.347      1.766
REMARK  9 active torsions:
REMARK  status: ('A' for Active; 'I' for Inactive)
REMARK    1  A    between atoms: C_3  and  C_4 
REMARK       I    between atoms: C_4  and  N_5 
REMARK    2  A    between atoms: N_5  and  C_6 
REMARK    3  A    between atoms: C_6  and  C_7 
REMARK    4  A    between atoms: C_14  and  N_15 
REMARK       I    between atoms: N_15  and  C_16 
REMARK    5  A    between atoms: C_16  and  C_17 
REMARK       I    between atoms: C_17  and  N_18 
REMARK    6  A    between atoms: N_18  and  C_19 
REMARK    7  A    between atoms: C_19  and  C_20 
REMARK    8  A    between atoms: C_20  and  C_21 
REMARK    9  A    between atoms: C_24  and  O_25 
ROOT
HETATM    1  N   UNL     1      43.123 -17.018   2.477  1.00  0.00    -0.318 N 
HETATM    2  C   UNL     1      41.965 -16.299   2.678  1.00  0.00     0.313 C 
HETATM    3  O   UNL     1      41.044 -16.538   3.449  1.00  0.00    -0.262 OA
HETATM    4  H   UNL     1      43.865 -16.499   2.011  1.00  0.00     0.169 HD
ENDROOT
BRANCH   1   5
HETATM    5  C   UNL     1      43.432 -18.259   3.068  1.00  0.00     0.051 A 
HETATM    6  C   UNL     1      43.905 -18.441   4.381  1.00  0.00     0.058 A 
HETATM    7  C   UNL     1      44.256 -19.732   4.821  1.00  0.00     0.019 A 
HETATM    8  C   UNL     1      44.123 -20.831   3.973  1.00  0.00     0.001 A 
HETATM    9  C   UNL     1      43.604 -20.659   2.693  1.00  0.00     0.002 A 
HETATM   10  C   UNL     1      43.247 -19.384   2.250  1.00  0.00     0.030 A 
BRANCH   6  11
HETATM   11  C   UNL     1      43.823 -17.369   5.412  1.00  0.00     0.254 C 
HETATM   12  N   UNL     1      42.602 -17.227   6.039  1.00  0.00    -0.353 N 
HETATM   13  H   UNL     1      41.920 -17.970   5.953  1.00  0.00     0.163 HD
HETATM   14  O   UNL     1      44.787 -16.641   5.624  1.00  0.00    -0.268 OA
BRANCH  12  15
HETATM   15  C   UNL     1      42.412 -16.258   7.097  1.00  0.00     0.162 C 
BRANCH  15  16
HETATM   16  C   UNL     1      41.778 -14.994   6.590  1.00  0.00    -0.023 A 
HETATM   17  C   UNL     1      40.394 -14.854   6.558  1.00  0.00     0.125 A 
HETATM   18  N   UNL     1      39.750 -13.730   6.163  1.00  0.00    -0.273 NA
HETATM   19  C   UNL     1      40.523 -12.686   5.796  1.00  0.00     0.116 A 
HETATM   20  C   UNL     1      41.906 -12.713   5.803  1.00  0.00     0.020 A 
HETATM   21  C   UNL     1      42.539 -13.884   6.212  1.00  0.00     0.012 A 
ENDBRANCH  15  16
ENDBRANCH  12  15
ENDBRANCH   6  11
ENDBRANCH   1   5
BRANCH   2  22
HETATM   22  C   UNL     1      41.963 -14.968   1.890  1.00  0.00     0.309 C 
HETATM   23  N   UNL     1      40.751 -14.668   1.312  1.00  0.00    -0.353 N 
HETATM   24  H   UNL     1      40.022 -15.371   1.404  1.00  0.00     0.162 HD
HETATM   25  O   UNL     1      42.971 -14.276   1.856  1.00  0.00    -0.262 OA
BRANCH  23  26
HETATM   26  C   UNL     1      40.557 -13.521   0.447  1.00  0.00     0.128 C 
BRANCH  26  27
HETATM   27  C   UNL     1      40.233 -13.954  -0.982  1.00  0.00     0.058 C 
BRANCH  27  28
HETATM   28  C   UNL     1      39.471 -12.898  -1.743  1.00  0.00    -0.057 A 
HETATM   29  C   UNL     1      40.154 -11.844  -2.368  1.00  0.00     0.010 A 
HETATM   30  C   UNL     1      39.453 -10.866  -3.078  1.00  0.00     0.037 A 
HETATM   31  C   UNL     1      38.067 -10.940  -3.154  1.00  0.00     0.065 A 
HETATM   32  C   UNL     1      37.372 -11.968  -2.531  1.00  0.00     0.037 A 
HETATM   33  C   UNL     1      38.072 -12.948  -1.824  1.00  0.00     0.010 A 
BRANCH  31  34
HETATM   34  O   UNL     1      37.343 -10.010  -3.842  1.00  0.00    -0.361 OA
HETATM   35  H   UNL     1      37.148 -10.365  -4.725  1.00  0.00     0.217 HD
ENDBRANCH  31  34
ENDBRANCH  27  28
ENDBRANCH  26  27
ENDBRANCH  23  26
ENDBRANCH   2  22
TORSDOF 9
ENDMDL
MODEL 9
REMARK VINA RESULT:      -8.3      2.919      8.157
REMARK  9 active torsions:
REMARK  status: ('A' for Active; 'I' for Inactive)
REMARK    1  A    between atoms: C_3  and  C_4 
REMARK       I    between atoms: C_4  and  N_5 
REMARK    2  A    between atoms: N_5  and  C_6 
REMARK    3  A    between atoms: C_6  and  C_7 
REMARK    4  A    between atoms: C_14  and  N_15 
REMARK       I    between atoms: N_15  and  C_16 
REMARK    5  A    between atoms: C_16  and  C_17 
REMARK       I    between atoms: C_17  and  N_18 
REMARK    6  A    between atoms: N_18  and  C_19 
REMARK    7  A    between atoms: C_19  and  C_20 
REMARK    8  A    between atoms: C_20  and  C_21 
REMARK    9  A    between atoms: C_24  and  O_25 
ROOT
HETATM    1  N   UNL     1      41.362 -12.156   6.079  1.00  0.00    -0.318 N 
HETATM    2  C   UNL     1      40.312 -13.048   6.107  1.00  0.00     0.313 C 
HETATM    3  O   UNL     1      39.118 -12.824   5.948  1.00  0.00    -0.262 OA
HETATM    4  H   UNL     1      42.275 -12.586   5.950  1.00  0.00     0.169 HD
ENDROOT
BRANCH   1   5
HETATM    5  C   UNL     1      41.248 -10.758   5.959  1.00  0.00     0.051 A 
HETATM    6  C   UNL     1      41.644 -10.000   4.841  1.00  0.00     0.058 A 
HETATM    7  C   UNL     1      41.552  -8.595   4.885  1.00  0.00     0.019 A 
HETATM    8  C   UNL     1      41.057  -7.952   6.019  1.00  0.00     0.001 A 
HETATM    9  C   UNL     1      40.615  -8.703   7.103  1.00  0.00     0.002 A 
HETATM   10  C   UNL     1      40.696 -10.096   7.067  1.00  0.00     0.030 A 
BRANCH   6  11
HETATM   11  C   UNL     1      41.929 -10.623   3.519  1.00  0.00     0.254 C 
HETATM   12  N   UNL     1      40.830 -11.051   2.803  1.00  0.00    -0.353 N 
HETATM   13  H   UNL     1      39.913 -10.725   3.079  1.00  0.00     0.163 HD
HETATM   14  O   UNL     1      43.088 -10.780   3.146  1.00  0.00    -0.268 OA
BRANCH  12  15
HETATM   15  C   UNL     1      40.973 -11.621   1.482  1.00  0.00     0.162 C 
BRANCH  15  16
HETATM   16  C   UNL     1      40.573 -13.069   1.452  1.00  0.00    -0.023 A 
HETATM   17  C   UNL     1      40.300 -13.709   0.248  1.00  0.00     0.125 A 
HETATM   18  N   UNL     1      39.983 -15.020   0.135  1.00  0.00    -0.273 NA
HETATM   19  C   UNL     1      39.953 -15.737   1.278  1.00  0.00     0.116 A 
HETATM   20  C   UNL     1      40.221 -15.205   2.527  1.00  0.00     0.020 A 
HETATM   21  C   UNL     1      40.541 -13.852   2.610  1.00  0.00     0.012 A 
ENDBRANCH  15  16
ENDBRANCH  12  15
ENDBRANCH   6  11
ENDBRANCH   1   5
BRANCH   2  22
HETATM   22  C   UNL     1      40.796 -14.512   6.226  1.00  0.00     0.309 C 
HETATM   23  N   UNL     1      42.101 -14.698   5.832  1.00  0.00    -0.353 N 
HETATM   24  H   UNL     1      42.575 -13.885   5.448  1.00  0.00     0.162 HD
HETATM   25  O   UNL     1      40.047 -15.370   6.672  1.00  0.00    -0.262 OA
BRANCH  23  26
HETATM   26  C   UNL     1      42.723 -16.005   5.768  1.00  0.00     0.128 C 
BRANCH  26  27
HETATM   27  C   UNL     1      43.364 -16.247   4.402  1.00  0.00     0.058 C 
BRANCH  27  28
HETATM   28  C   UNL     1      43.568 -17.714   4.116  1.00  0.00    -0.057 A 
HETATM   29  C   UNL     1      43.383 -18.215   2.819  1.00  0.00     0.010 A 
HETATM   30  C   UNL     1      43.575 -19.572   2.547  1.00  0.00     0.037 A 
HETATM   31  C   UNL     1      43.945 -20.429   3.578  1.00  0.00     0.065 A 
HETATM   32  C   UNL     1      44.119 -19.954   4.871  1.00  0.00     0.037 A 
HETATM   33  C   UNL     1      43.931 -18.597   5.142  1.00  0.00     0.010 A 
BRANCH  31  34
HETATM   34  O   UNL     1      44.149 -21.759   3.357  1.00  0.00    -0.361 OA
HETATM   35  H   UNL     1      44.691 -21.857   2.556  1.00  0.00     0.217 HD
ENDBRANCH  31  34
ENDBRANCH  27  28
ENDBRANCH  26  27
ENDBRANCH  23  26
ENDBRANCH   2  22
TORSDOF 9
ENDMDL
MODEL 10
REMARK VINA RESULT:      -8.1      2.462      8.132
REMARK  9 active torsions:
REMARK  status: ('A' for Active; 'I' for Inactive)
REMARK    1  A    between atoms: C_3  and  C_4 
REMARK       I    between atoms: C_4  and  N_5 
REMARK    2  A    between atoms: N_5  and  C_6 
REMARK    3  A    between atoms: C_6  and  C_7 
REMARK    4  A    between atoms: C_14  and  N_15 
REMARK       I    between atoms: N_15  and  C_16 
REMARK    5  A    between atoms: C_16  and  C_17 
REMARK       I    between atoms: C_17  and  N_18 
REMARK    6  A    between atoms: N_18  and  C_19 
REMARK    7  A    between atoms: C_19  and  C_20 
REMARK    8  A    between atoms: C_20  and  C_21 
REMARK    9  A    between atoms: C_24  and  O_25 
ROOT
HETATM    1  N   UNL     1      39.031 -13.295   0.405  1.00  0.00    -0.318 N 
HETATM    2  C   UNL     1      40.398 -13.448   0.500  1.00  0.00     0.313 C 
HETATM    3  O   UNL     1      41.277 -12.774  -0.023  1.00  0.00    -0.262 OA
HETATM    4  H   UNL     1      38.503 -13.773   1.131  1.00  0.00     0.169 HD
ENDROOT
BRANCH   1   5
HETATM    5  C   UNL     1      38.365 -12.365  -0.417  1.00  0.00     0.051 A 
HETATM    6  C   UNL     1      38.039 -11.044  -0.057  1.00  0.00     0.058 A 
HETATM    7  C   UNL     1      37.295 -10.244  -0.945  1.00  0.00     0.019 A 
HETATM    8  C   UNL     1      36.892 -10.745  -2.183  1.00  0.00     0.001 A 
HETATM    9  C   UNL     1      37.260 -12.032  -2.562  1.00  0.00     0.002 A 
HETATM   10  C   UNL     1      38.004 -12.830  -1.691  1.00  0.00     0.030 A 
BRANCH   6  11
HETATM   11  C   UNL     1      38.654 -10.366   1.118  1.00  0.00     0.254 C 
HETATM   12  N   UNL     1      37.961 -10.472   2.307  1.00  0.00    -0.353 N 
HETATM   13  H   UNL     1      37.231 -11.168   2.384  1.00  0.00     0.163 HD
HETATM   14  O   UNL     1      39.686  -9.717   0.987  1.00  0.00    -0.268 OA
BRANCH  12  15
HETATM   15  C   UNL     1      38.483  -9.904   3.530  1.00  0.00     0.162 C 
BRANCH  15  16
HETATM   16  C   UNL     1      39.069 -10.956   4.429  1.00  0.00    -0.023 A 
HETATM   17  C   UNL     1      38.746 -10.999   5.782  1.00  0.00     0.125 A 
HETATM   18  N   UNL     1      39.192 -11.943   6.643  1.00  0.00    -0.273 NA
HETATM   19  C   UNL     1      39.988 -12.905   6.129  1.00  0.00     0.116 A 
HETATM   20  C   UNL     1      40.361 -12.965   4.798  1.00  0.00     0.020 A 
HETATM   21  C   UNL     1      39.888 -11.978   3.937  1.00  0.00     0.012 A 
ENDBRANCH  15  16
ENDBRANCH  12  15
ENDBRANCH   6  11
ENDBRANCH   1   5
BRANCH   2  22
HETATM   22  C   UNL     1      40.790 -14.546   1.515  1.00  0.00     0.309 C 
HETATM   23  N   UNL     1      42.138 -14.592   1.788  1.00  0.00    -0.353 N 
HETATM   24  H   UNL     1      42.727 -13.959   1.254  1.00  0.00     0.162 HD
HETATM   25  O   UNL     1      39.926 -15.251   2.018  1.00  0.00    -0.262 OA
BRANCH  23  26
HETATM   26  C   UNL     1      42.733 -15.608   2.633  1.00  0.00     0.128 C 
BRANCH  26  27
HETATM   27  C   UNL     1      43.089 -16.858   1.829  1.00  0.00     0.058 C 
BRANCH  27  28
HETATM   28  C   UNL     1      43.429 -18.031   2.713  1.00  0.00    -0.057 A 
HETATM   29  C   UNL     1      43.812 -17.826   4.046  1.00  0.00     0.010 A 
HETATM   30  C   UNL     1      44.123 -18.909   4.871  1.00  0.00     0.037 A 
HETATM   31  C   UNL     1      44.059 -20.200   4.356  1.00  0.00     0.065 A 
HETATM   32  C   UNL     1      43.695 -20.422   3.035  1.00  0.00     0.037 A 
HETATM   33  C   UNL     1      43.380 -19.339   2.212  1.00  0.00     0.010 A 
BRANCH  31  34
HETATM   34  O   UNL     1      44.348 -21.287   5.128  1.00  0.00    -0.361 OA
HETATM   35  H   UNL     1      44.709 -20.975   5.975  1.00  0.00     0.217 HD
ENDBRANCH  31  34
ENDBRANCH  27  28
ENDBRANCH  26  27
ENDBRANCH  23  26
ENDBRANCH   2  22
TORSDOF 9
ENDMDL
