MODEL 1
REMARK VINA RESULT:      -9.3      0.000      0.000
REMARK  7 active torsions:
REMARK  status: ('A' for Active; 'I' for Inactive)
REMARK    1  A    between atoms: C_4  and  N_5 
REMARK    2  A    between atoms: C_6  and  S_7 
REMARK    3  A    between atoms: S_7  and  C_8 
REMARK    4  A    between atoms: C_8  and  C_9 
REMARK       I    between atoms: C_9  and  N_10 
REMARK    5  A    between atoms: N_10  and  C_11 
REMARK    6  A    between atoms: C_24  and  C_25 
REMARK    7  A    between atoms: C_26  and  O_27 
ROOT
HETATM    1  N   UNL     1      42.855 -14.981   4.692  1.00  0.00    -0.271 N 
HETATM    2  C   UNL     1      43.170 -13.799   5.350  1.00  0.00     0.197 A 
HETATM    3  N   UNL     1      43.846 -14.056   6.446  1.00  0.00    -0.122 NA
HETATM    4  N   UNL     1      44.029 -15.400   6.526  1.00  0.00    -0.128 NA
HETATM    5  C   UNL     1      43.506 -15.961   5.448  1.00  0.00     0.172 A 
ENDROOT
BRANCH   2   6
HETATM    6  S   UNL     1      42.622 -12.199   4.939  1.00  0.00    -0.080 SA
BRANCH   6   7
HETATM    7  C   UNL     1      43.827 -11.214   5.888  1.00  0.00     0.185 C 
BRANCH   7   8
HETATM    8  C   UNL     1      43.196 -10.483   7.062  1.00  0.00     0.231 C 
HETATM    9  N   UNL     1      44.103 -10.081   8.029  1.00  0.00    -0.326 N 
HETATM   10  H   UNL     1      45.075 -10.072   7.745  1.00  0.00     0.169 HD
HETATM   11  O   UNL     1      41.975 -10.370   7.134  1.00  0.00    -0.272 OA
BRANCH   9  12
HETATM   12  C   UNL     1      43.816  -9.608   9.326  1.00  0.00     0.037 A 
HETATM   13  C   UNL     1      43.494  -8.278   9.614  1.00  0.00     0.069 A 
HETATM   14  C   UNL     1      43.165  -7.900  10.918  1.00  0.00     0.104 A 
HETATM   15  C   UNL     1      43.196  -8.837  11.953  1.00  0.00     0.102 A 
HETATM   16  O   UNL     1      42.816  -6.586  11.108  1.00  0.00    -0.346 OA
HETATM   17  O   UNL     1      42.915  -8.528  13.259  1.00  0.00    -0.346 OA
HETATM   18  C   UNL     1      43.506 -10.164  11.676  1.00  0.00     0.042 A 
HETATM   19  C   UNL     1      42.917  -7.110  13.473  1.00  0.00     0.202 C 
HETATM   20  C   UNL     1      42.157  -6.399  12.365  1.00  0.00     0.202 C 
HETATM   21  C   UNL     1      43.810 -10.549  10.365  1.00  0.00     0.032 A 
ENDBRANCH   9  12
ENDBRANCH   7   8
ENDBRANCH   6   7
ENDBRANCH   2   6
BRANCH   1  22
HETATM   22  C   UNL     1      42.023 -15.183   3.553  1.00  0.00     0.043 A 
HETATM   23  C   UNL     1      40.683 -15.564   3.698  1.00  0.00     0.030 A 
HETATM   24  C   UNL     1      39.878 -15.735   2.568  1.00  0.00     0.002 A 
HETATM   25  C   UNL     1      40.403 -15.530   1.293  1.00  0.00     0.000 A 
HETATM   26  C   UNL     1      41.736 -15.154   1.143  1.00  0.00     0.002 A 
HETATM   27  C   UNL     1      42.546 -14.981   2.267  1.00  0.00     0.030 A 
ENDBRANCH   1  22
BRANCH   5  28
HETATM   28  C   UNL     1      43.674 -17.388   5.149  1.00  0.00     0.045 A 
HETATM   29  C   UNL     1      43.553 -18.344   6.170  1.00  0.00     0.079 A 
HETATM   30  C   UNL     1      43.709 -19.705   5.907  1.00  0.00     0.037 A 
HETATM   31  C   UNL     1      44.025 -20.130   4.619  1.00  0.00     0.003 A 
HETATM   32  C   UNL     1      44.186 -19.195   3.599  1.00  0.00     0.001 A 
HETATM   33  C   UNL     1      44.019 -17.831   3.862  1.00  0.00     0.018 A 
BRANCH  29  34
HETATM   34  O   UNL     1      43.283 -18.005   7.470  1.00  0.00    -0.360 OA
HETATM   35  H   UNL     1      42.327 -18.146   7.629  1.00  0.00     0.217 HD
ENDBRANCH  29  34
ENDBRANCH   5  28
TORSDOF 7
ENDMDL
MODEL 2
REMARK VINA RESULT:      -9.1      2.305      9.675
REMARK  7 active torsions:
REMARK  status: ('A' for Active; 'I' for Inactive)
REMARK    1  A    between atoms: C_4  and  N_5 
REMARK    2  A    between atoms: C_6  and  S_7 
REMARK    3  A    between atoms: S_7  and  C_8 
REMARK    4  A    between atoms: C_8  and  C_9 
REMARK       I    between atoms: C_9  and  N_10 
REMARK    5  A    between atoms: N_10  and  C_11 
REMARK    6  A    between atoms: C_24  and  C_25 
REMARK    7  A    between atoms: C_26  and  O_27 
ROOT
HETATM    1  N   UNL     1      42.093  -9.455   8.266  1.00  0.00    -0.271 N 
HETATM    2  C   UNL     1      41.079  -9.639   7.336  1.00  0.00     0.197 A 
HETATM    3  N   UNL     1      39.906  -9.475   7.904  1.00  0.00    -0.122 NA
HETATM    4  N   UNL     1      40.109  -9.144   9.206  1.00  0.00    -0.128 NA
HETATM    5  C   UNL     1      41.412  -9.057   9.421  1.00  0.00     0.172 A 
ENDROOT
BRANCH   2   6
HETATM    6  S   UNL     1      41.257 -10.189   5.694  1.00  0.00    -0.080 SA
BRANCH   6   7
HETATM    7  C   UNL     1      39.944 -11.453   5.654  1.00  0.00     0.185 C 
BRANCH   7   8
HETATM    8  C   UNL     1      40.466 -12.854   5.928  1.00  0.00     0.231 C 
HETATM    9  N   UNL     1      41.757 -13.074   5.477  1.00  0.00    -0.326 N 
HETATM   10  H   UNL     1      42.296 -12.243   5.264  1.00  0.00     0.169 HD
HETATM   11  O   UNL     1      39.728 -13.700   6.428  1.00  0.00    -0.272 OA
BRANCH   9  12
HETATM   12  C   UNL     1      42.423 -14.310   5.362  1.00  0.00     0.037 A 
HETATM   13  C   UNL     1      42.183 -15.229   4.336  1.00  0.00     0.069 A 
HETATM   14  C   UNL     1      42.928 -16.408   4.257  1.00  0.00     0.104 A 
HETATM   15  C   UNL     1      43.890 -16.700   5.226  1.00  0.00     0.102 A 
HETATM   16  O   UNL     1      42.662 -17.234   3.193  1.00  0.00    -0.346 OA
HETATM   17  O   UNL     1      44.634 -17.852   5.227  1.00  0.00    -0.346 OA
HETATM   18  C   UNL     1      44.143 -15.790   6.246  1.00  0.00     0.042 A 
HETATM   19  C   UNL     1      44.083 -18.831   4.337  1.00  0.00     0.202 C 
HETATM   20  C   UNL     1      43.705 -18.197   3.008  1.00  0.00     0.202 C 
HETATM   21  C   UNL     1      43.416 -14.595   6.310  1.00  0.00     0.032 A 
ENDBRANCH   9  12
ENDBRANCH   7   8
ENDBRANCH   6   7
ENDBRANCH   2   6
BRANCH   1  22
HETATM   22  C   UNL     1      43.494  -9.670   8.124  1.00  0.00     0.043 A 
HETATM   23  C   UNL     1      44.411  -8.640   8.372  1.00  0.00     0.030 A 
HETATM   24  C   UNL     1      45.782  -8.880   8.248  1.00  0.00     0.002 A 
HETATM   25  C   UNL     1      46.245 -10.141   7.876  1.00  0.00     0.000 A 
HETATM   26  C   UNL     1      45.339 -11.168   7.625  1.00  0.00     0.002 A 
HETATM   27  C   UNL     1      43.967 -10.936   7.747  1.00  0.00     0.030 A 
ENDBRANCH   1  22
BRANCH   5  28
HETATM   28  C   UNL     1      41.965  -8.563  10.687  1.00  0.00     0.045 A 
HETATM   29  C   UNL     1      42.544  -9.456  11.603  1.00  0.00     0.079 A 
HETATM   30  C   UNL     1      43.076  -9.008  12.811  1.00  0.00     0.037 A 
HETATM   31  C   UNL     1      43.004  -7.656  13.140  1.00  0.00     0.003 A 
HETATM   32  C   UNL     1      42.400  -6.759  12.263  1.00  0.00     0.001 A 
HETATM   33  C   UNL     1      41.877  -7.209  11.046  1.00  0.00     0.018 A 
BRANCH  29  34
HETATM   34  O   UNL     1      42.618 -10.805  11.371  1.00  0.00    -0.360 OA
HETATM   35  H   UNL     1      41.729 -11.187  11.518  1.00  0.00     0.217 HD
ENDBRANCH  29  34
ENDBRANCH   5  28
TORSDOF 7
ENDMDL
MODEL 3
REMARK VINA RESULT:      -9.1      4.695      6.526
REMARK  7 active torsions:
REMARK  status: ('A' for Active; 'I' for Inactive)
REMARK    1  A    between atoms: C_4  and  N_5 
REMARK    2  A    between atoms: C_6  and  S_7 
REMARK    3  A    between atoms: S_7  and  C_8 
REMARK    4  A    between atoms: C_8  and  C_9 
REMARK       I    between atoms: C_9  and  N_10 
REMARK    5  A    between atoms: N_10  and  C_11 
REMARK    6  A    between atoms: C_24  and  C_25 
REMARK    7  A    between atoms: C_26  and  O_27 
ROOT
HETATM    1  N   UNL     1      42.969 -16.022   4.532  1.00  0.00    -0.271 N 
HETATM    2  C   UNL     1      43.379 -15.161   5.542  1.00  0.00     0.197 A 
HETATM    3  N   UNL     1      44.097 -15.812   6.429  1.00  0.00    -0.122 NA
HETATM    4  N   UNL     1      44.213 -17.101   6.017  1.00  0.00    -0.128 NA
HETATM    5  C   UNL     1      43.606 -17.226   4.848  1.00  0.00     0.172 A 
ENDROOT
BRANCH   2   6
HETATM    6  S   UNL     1      42.895 -13.504   5.760  1.00  0.00    -0.080 SA
BRANCH   6   7
HETATM    7  C   UNL     1      41.184 -13.761   6.335  1.00  0.00     0.185 C 
BRANCH   7   8
HETATM    8  C   UNL     1      40.164 -12.990   5.514  1.00  0.00     0.231 C 
HETATM    9  N   UNL     1      40.588 -12.682   4.232  1.00  0.00    -0.326 N 
HETATM   10  H   UNL     1      41.385 -13.208   3.893  1.00  0.00     0.169 HD
HETATM   11  O   UNL     1      39.110 -12.622   6.028  1.00  0.00    -0.272 OA
BRANCH   9  12
HETATM   12  C   UNL     1      39.989 -11.784   3.325  1.00  0.00     0.037 A 
HETATM   13  C   UNL     1      38.808 -12.058   2.627  1.00  0.00     0.069 A 
HETATM   14  C   UNL     1      38.245 -11.092   1.790  1.00  0.00     0.104 A 
HETATM   15  C   UNL     1      38.877  -9.861   1.609  1.00  0.00     0.102 A 
HETATM   16  O   UNL     1      37.061 -11.423   1.178  1.00  0.00    -0.346 OA
HETATM   17  O   UNL     1      38.396  -8.880   0.779  1.00  0.00    -0.346 OA
HETATM   18  C   UNL     1      40.046  -9.575   2.305  1.00  0.00     0.042 A 
HETATM   19  C   UNL     1      37.386  -9.390  -0.101  1.00  0.00     0.202 C 
HETATM   20  C   UNL     1      36.402 -10.265   0.658  1.00  0.00     0.202 C 
HETATM   21  C   UNL     1      40.597 -10.531   3.165  1.00  0.00     0.032 A 
ENDBRANCH   9  12
ENDBRANCH   7   8
ENDBRANCH   6   7
ENDBRANCH   2   6
BRANCH   1  22
HETATM   22  C   UNL     1      42.069 -15.780   3.454  1.00  0.00     0.043 A 
HETATM   23  C   UNL     1      40.732 -16.191   3.526  1.00  0.00     0.030 A 
HETATM   24  C   UNL     1      39.861 -15.924   2.466  1.00  0.00     0.002 A 
HETATM   25  C   UNL     1      40.316 -15.251   1.333  1.00  0.00     0.000 A 
HETATM   26  C   UNL     1      41.646 -14.843   1.255  1.00  0.00     0.002 A 
HETATM   27  C   UNL     1      42.522 -15.106   2.310  1.00  0.00     0.030 A 
ENDBRANCH   1  22
BRANCH   5  28
HETATM   28  C   UNL     1      43.683 -18.458   4.054  1.00  0.00     0.045 A 
HETATM   29  C   UNL     1      43.774 -19.706   4.691  1.00  0.00     0.079 A 
HETATM   30  C   UNL     1      43.849 -20.888   3.955  1.00  0.00     0.037 A 
HETATM   31  C   UNL     1      43.869 -20.838   2.564  1.00  0.00     0.003 A 
HETATM   32  C   UNL     1      43.817 -19.607   1.912  1.00  0.00     0.001 A 
HETATM   33  C   UNL     1      43.731 -18.424   2.652  1.00  0.00     0.018 A 
BRANCH  29  34
HETATM   34  O   UNL     1      43.801 -19.838   6.055  1.00  0.00    -0.360 OA
HETATM   35  H   UNL     1      44.624 -19.422   6.384  1.00  0.00     0.217 HD
ENDBRANCH  29  34
ENDBRANCH   5  28
TORSDOF 7
ENDMDL
MODEL 4
REMARK VINA RESULT:      -9.1      2.306      9.954
REMARK  7 active torsions:
REMARK  status: ('A' for Active; 'I' for Inactive)
REMARK    1  A    between atoms: C_4  and  N_5 
REMARK    2  A    between atoms: C_6  and  S_7 
REMARK    3  A    between atoms: S_7  and  C_8 
REMARK    4  A    between atoms: C_8  and  C_9 
REMARK       I    between atoms: C_9  and  N_10 
REMARK    5  A    between atoms: N_10  and  C_11 
REMARK    6  A    between atoms: C_24  and  C_25 
REMARK    7  A    between atoms: C_26  and  O_27 
ROOT
HETATM    1  N   UNL     1      43.034 -10.085   8.069  1.00  0.00    -0.271 N 
HETATM    2  C   UNL     1      43.673 -11.005   7.247  1.00  0.00     0.197 A 
HETATM    3  N   UNL     1      44.707 -11.527   7.866  1.00  0.00    -0.122 NA
HETATM    4  N   UNL     1      44.760 -11.001   9.118  1.00  0.00    -0.128 NA
HETATM    5  C   UNL     1      43.726 -10.192   9.280  1.00  0.00     0.172 A 
ENDROOT
BRANCH   2   6
HETATM    6  S   UNL     1      43.322 -11.327   5.573  1.00  0.00    -0.080 SA
BRANCH   6   7
HETATM    7  C   UNL     1      41.724 -12.183   5.758  1.00  0.00     0.185 C 
BRANCH   7   8
HETATM    8  C   UNL     1      41.834 -13.687   5.567  1.00  0.00     0.231 C 
HETATM    9  N   UNL     1      42.697 -14.065   4.552  1.00  0.00    -0.326 N 
HETATM   10  H   UNL     1      43.342 -13.352   4.234  1.00  0.00     0.169 HD
HETATM   11  O   UNL     1      41.127 -14.446   6.225  1.00  0.00    -0.272 OA
BRANCH   9  12
HETATM   12  C   UNL     1      42.831 -15.344   3.974  1.00  0.00     0.037 A 
HETATM   13  C   UNL     1      43.579 -16.379   4.543  1.00  0.00     0.069 A 
HETATM   14  C   UNL     1      43.614 -17.637   3.939  1.00  0.00     0.104 A 
HETATM   15  C   UNL     1      42.937 -17.862   2.738  1.00  0.00     0.102 A 
HETATM   16  O   UNL     1      44.333 -18.612   4.586  1.00  0.00    -0.346 OA
HETATM   17  O   UNL     1      42.954 -19.063   2.076  1.00  0.00    -0.346 OA
HETATM   18  C   UNL     1      42.183 -16.843   2.168  1.00  0.00     0.042 A 
HETATM   19  C   UNL     1      43.989 -19.921   2.575  1.00  0.00     0.202 C 
HETATM   20  C   UNL     1      44.005 -19.915   4.095  1.00  0.00     0.202 C 
HETATM   21  C   UNL     1      42.125 -15.589   2.787  1.00  0.00     0.032 A 
ENDBRANCH   9  12
ENDBRANCH   7   8
ENDBRANCH   6   7
ENDBRANCH   2   6
BRANCH   1  22
HETATM   22  C   UNL     1      41.968  -9.192   7.762  1.00  0.00     0.043 A 
HETATM   23  C   UNL     1      42.214  -7.962   7.138  1.00  0.00     0.030 A 
HETATM   24  C   UNL     1      41.151  -7.111   6.826  1.00  0.00     0.002 A 
HETATM   25  C   UNL     1      39.842  -7.478   7.133  1.00  0.00     0.000 A 
HETATM   26  C   UNL     1      39.591  -8.699   7.755  1.00  0.00     0.002 A 
HETATM   27  C   UNL     1      40.648  -9.555   8.071  1.00  0.00     0.030 A 
ENDBRANCH   1  22
BRANCH   5  28
HETATM   28  C   UNL     1      43.402  -9.585  10.576  1.00  0.00     0.045 A 
HETATM   29  C   UNL     1      43.303 -10.384  11.727  1.00  0.00     0.079 A 
HETATM   30  C   UNL     1      42.996  -9.828  12.968  1.00  0.00     0.037 A 
HETATM   31  C   UNL     1      42.748  -8.461  13.072  1.00  0.00     0.003 A 
HETATM   32  C   UNL     1      42.804  -7.656  11.937  1.00  0.00     0.001 A 
HETATM   33  C   UNL     1      43.122  -8.214  10.694  1.00  0.00     0.018 A 
BRANCH  29  34
HETATM   34  O   UNL     1      43.493 -11.741  11.701  1.00  0.00    -0.360 OA
HETATM   35  H   UNL     1      43.695 -12.002  10.779  1.00  0.00     0.217 HD
ENDBRANCH  29  34
ENDBRANCH   5  28
TORSDOF 7
ENDMDL
MODEL 5
REMARK VINA RESULT:      -8.9      4.566      7.592
REMARK  7 active torsions:
REMARK  status: ('A' for Active; 'I' for Inactive)
REMARK    1  A    between atoms: C_4  and  N_5 
REMARK    2  A    between atoms: C_6  and  S_7 
REMARK    3  A    between atoms: S_7  and  C_8 
REMARK    4  A    between atoms: C_8  and  C_9 
REMARK       I    between atoms: C_9  and  N_10 
REMARK    5  A    between atoms: N_10  and  C_11 
REMARK    6  A    between atoms: C_24  and  C_25 
REMARK    7  A    between atoms: C_26  and  O_27 
ROOT
HETATM    1  N   UNL     1      42.762 -15.002   4.619  1.00  0.00    -0.271 N 
HETATM    2  C   UNL     1      43.061 -13.802   5.251  1.00  0.00     0.197 A 
HETATM    3  N   UNL     1      43.741 -14.026   6.353  1.00  0.00    -0.122 NA
HETATM    4  N   UNL     1      43.942 -15.366   6.461  1.00  0.00    -0.128 NA
HETATM    5  C   UNL     1      43.425 -15.957   5.397  1.00  0.00     0.172 A 
ENDROOT
BRANCH   2   6
HETATM    6  S   UNL     1      42.493 -12.218   4.806  1.00  0.00    -0.080 SA
BRANCH   6   7
HETATM    7  C   UNL     1      40.764 -12.348   5.368  1.00  0.00     0.185 C 
BRANCH   7   8
HETATM    8  C   UNL     1      39.772 -11.800   4.356  1.00  0.00     0.231 C 
HETATM    9  N   UNL     1      39.846 -12.400   3.110  1.00  0.00    -0.326 N 
HETATM   10  H   UNL     1      40.340 -13.284   3.076  1.00  0.00     0.169 HD
HETATM   11  O   UNL     1      39.056 -10.845   4.649  1.00  0.00    -0.272 OA
BRANCH   9  12
HETATM   12  C   UNL     1      39.246 -11.963   1.912  1.00  0.00     0.037 A 
HETATM   13  C   UNL     1      39.904 -11.935   0.679  1.00  0.00     0.069 A 
HETATM   14  C   UNL     1      39.221 -11.543  -0.475  1.00  0.00     0.104 A 
HETATM   15  C   UNL     1      37.888 -11.135  -0.402  1.00  0.00     0.102 A 
HETATM   16  O   UNL     1      39.926 -11.589  -1.653  1.00  0.00    -0.346 OA
HETATM   17  O   UNL     1      37.168 -10.709  -1.488  1.00  0.00    -0.346 OA
HETATM   18  C   UNL     1      37.222 -11.167   0.819  1.00  0.00     0.042 A 
HETATM   19  C   UNL     1      38.024 -10.426  -2.603  1.00  0.00     0.202 C 
HETATM   20  C   UNL     1      39.053 -11.529  -2.785  1.00  0.00     0.202 C 
HETATM   21  C   UNL     1      37.897 -11.585   1.971  1.00  0.00     0.032 A 
ENDBRANCH   9  12
ENDBRANCH   7   8
ENDBRANCH   6   7
ENDBRANCH   2   6
BRANCH   1  22
HETATM   22  C   UNL     1      41.932 -15.239   3.486  1.00  0.00     0.043 A 
HETATM   23  C   UNL     1      40.632 -15.739   3.636  1.00  0.00     0.030 A 
HETATM   24  C   UNL     1      39.827 -15.944   2.512  1.00  0.00     0.002 A 
HETATM   25  C   UNL     1      40.312 -15.654   1.238  1.00  0.00     0.000 A 
HETATM   26  C   UNL     1      41.604 -15.159   1.082  1.00  0.00     0.002 A 
HETATM   27  C   UNL     1      42.414 -14.952   2.201  1.00  0.00     0.030 A 
ENDBRANCH   1  22
BRANCH   5  28
HETATM   28  C   UNL     1      43.611 -17.387   5.129  1.00  0.00     0.045 A 
HETATM   29  C   UNL     1      43.523 -18.321   6.174  1.00  0.00     0.079 A 
HETATM   30  C   UNL     1      43.696 -19.684   5.941  1.00  0.00     0.037 A 
HETATM   31  C   UNL     1      43.997 -20.135   4.658  1.00  0.00     0.003 A 
HETATM   32  C   UNL     1      44.127 -19.222   3.614  1.00  0.00     0.001 A 
HETATM   33  C   UNL     1      43.942 -17.856   3.847  1.00  0.00     0.018 A 
BRANCH  29  34
HETATM   34  O   UNL     1      43.269 -17.955   7.470  1.00  0.00    -0.360 OA
HETATM   35  H   UNL     1      42.396 -18.319   7.724  1.00  0.00     0.217 HD
ENDBRANCH  29  34
ENDBRANCH   5  28
TORSDOF 7
ENDMDL
MODEL 6
REMARK VINA RESULT:      -8.6      4.153      8.220
REMARK  7 active torsions:
REMARK  status: ('A' for Active; 'I' for Inactive)
REMARK    1  A    between atoms: C_4  and  N_5 
REMARK    2  A    between atoms: C_6  and  S_7 
REMARK    3  A    between atoms: S_7  and  C_8 
REMARK    4  A    between atoms: C_8  and  C_9 
REMARK       I    between atoms: C_9  and  N_10 
REMARK    5  A    between atoms: N_10  and  C_11 
REMARK    6  A    between atoms: C_24  and  C_25 
REMARK    7  A    between atoms: C_26  and  O_27 
ROOT
HETATM    1  N   UNL     1      41.624 -13.117   6.021  1.00  0.00    -0.271 N 
HETATM    2  C   UNL     1      40.410 -12.523   6.343  1.00  0.00     0.197 A 
HETATM    3  N   UNL     1      39.428 -13.381   6.184  1.00  0.00    -0.122 NA
HETATM    4  N   UNL     1      39.963 -14.568   5.792  1.00  0.00    -0.128 NA
HETATM    5  C   UNL     1      41.280 -14.447   5.759  1.00  0.00     0.172 A 
ENDROOT
BRANCH   2   6
HETATM    6  S   UNL     1      40.139 -10.847   6.725  1.00  0.00    -0.080 SA
BRANCH   6   7
HETATM    7  C   UNL     1      38.900 -10.443   5.451  1.00  0.00     0.185 C 
BRANCH   7   8
HETATM    8  C   UNL     1      39.390 -10.728   4.041  1.00  0.00     0.231 C 
HETATM    9  N   UNL     1      38.694 -11.736   3.394  1.00  0.00    -0.326 N 
HETATM   10  H   UNL     1      37.800 -11.984   3.800  1.00  0.00     0.169 HD
HETATM   11  O   UNL     1      40.379 -10.145   3.602  1.00  0.00    -0.272 OA
BRANCH   9  12
HETATM   12  C   UNL     1      39.052 -12.390   2.198  1.00  0.00     0.037 A 
HETATM   13  C   UNL     1      38.798 -11.873   0.924  1.00  0.00     0.069 A 
HETATM   14  C   UNL     1      39.237 -12.556  -0.213  1.00  0.00     0.104 A 
HETATM   15  C   UNL     1      39.895 -13.781  -0.090  1.00  0.00     0.102 A 
HETATM   16  O   UNL     1      38.989 -11.957  -1.424  1.00  0.00    -0.346 OA
HETATM   17  O   UNL     1      40.324 -14.518  -1.164  1.00  0.00    -0.346 OA
HETATM   18  C   UNL     1      40.159 -14.300   1.172  1.00  0.00     0.042 A 
HETATM   19  C   UNL     1      39.735 -14.054  -2.386  1.00  0.00     0.202 C 
HETATM   20  C   UNL     1      39.784 -12.537  -2.463  1.00  0.00     0.202 C 
HETATM   21  C   UNL     1      39.745 -13.604   2.313  1.00  0.00     0.032 A 
ENDBRANCH   9  12
ENDBRANCH   7   8
ENDBRANCH   6   7
ENDBRANCH   2   6
BRANCH   1  22
HETATM   22  C   UNL     1      42.915 -12.525   5.916  1.00  0.00     0.043 A 
HETATM   23  C   UNL     1      43.764 -12.444   7.028  1.00  0.00     0.030 A 
HETATM   24  C   UNL     1      45.035 -11.879   6.898  1.00  0.00     0.002 A 
HETATM   25  C   UNL     1      45.466 -11.393   5.664  1.00  0.00     0.000 A 
HETATM   26  C   UNL     1      44.626 -11.468   4.556  1.00  0.00     0.002 A 
HETATM   27  C   UNL     1      43.354 -12.032   4.679  1.00  0.00     0.030 A 
ENDBRANCH   1  22
BRANCH   5  28
HETATM   28  C   UNL     1      42.165 -15.594   5.527  1.00  0.00     0.045 A 
HETATM   29  C   UNL     1      42.656 -16.340   6.611  1.00  0.00     0.079 A 
HETATM   30  C   UNL     1      43.498 -17.433   6.413  1.00  0.00     0.037 A 
HETATM   31  C   UNL     1      43.893 -17.778   5.123  1.00  0.00     0.003 A 
HETATM   32  C   UNL     1      43.448 -17.029   4.036  1.00  0.00     0.001 A 
HETATM   33  C   UNL     1      42.594 -15.939   4.236  1.00  0.00     0.018 A 
BRANCH  29  34
HETATM   34  O   UNL     1      42.346 -16.041   7.913  1.00  0.00    -0.360 OA
HETATM   35  H   UNL     1      41.857 -15.193   7.922  1.00  0.00     0.217 HD
ENDBRANCH  29  34
ENDBRANCH   5  28
TORSDOF 7
ENDMDL
MODEL 7
REMARK VINA RESULT:      -8.6      3.359      9.669
REMARK  7 active torsions:
REMARK  status: ('A' for Active; 'I' for Inactive)
REMARK    1  A    between atoms: C_4  and  N_5 
REMARK    2  A    between atoms: C_6  and  S_7 
REMARK    3  A    between atoms: S_7  and  C_8 
REMARK    4  A    between atoms: C_8  and  C_9 
REMARK       I    between atoms: C_9  and  N_10 
REMARK    5  A    between atoms: N_10  and  C_11 
REMARK    6  A    between atoms: C_24  and  C_25 
REMARK    7  A    between atoms: C_26  and  O_27 
ROOT
HETATM    1  N   UNL     1      41.405 -11.176   4.828  1.00  0.00    -0.271 N 
HETATM    2  C   UNL     1      41.142 -11.097   3.466  1.00  0.00     0.197 A 
HETATM    3  N   UNL     1      40.059 -10.385   3.254  1.00  0.00    -0.122 NA
HETATM    4  N   UNL     1      39.599  -9.946   4.455  1.00  0.00    -0.128 NA
HETATM    5  C   UNL     1      40.432 -10.350   5.399  1.00  0.00     0.172 A 
ENDROOT
BRANCH   2   6
HETATM    6  S   UNL     1      41.974 -11.943   2.192  1.00  0.00    -0.080 SA
BRANCH   6   7
HETATM    7  C   UNL     1      40.691 -13.161   1.751  1.00  0.00     0.185 C 
BRANCH   7   8
HETATM    8  C   UNL     1      40.880 -14.496   2.453  1.00  0.00     0.231 C 
HETATM    9  N   UNL     1      42.205 -14.854   2.640  1.00  0.00    -0.326 N 
HETATM   10  H   UNL     1      42.881 -14.106   2.541  1.00  0.00     0.169 HD
HETATM   11  O   UNL     1      39.904 -15.192   2.725  1.00  0.00    -0.272 OA
BRANCH   9  12
HETATM   12  C   UNL     1      42.704 -16.113   3.029  1.00  0.00     0.037 A 
HETATM   13  C   UNL     1      42.543 -17.279   2.274  1.00  0.00     0.069 A 
HETATM   14  C   UNL     1      43.120 -18.478   2.700  1.00  0.00     0.104 A 
HETATM   15  C   UNL     1      43.824 -18.534   3.904  1.00  0.00     0.102 A 
HETATM   16  O   UNL     1      42.955 -19.566   1.878  1.00  0.00    -0.346 OA
HETATM   17  O   UNL     1      44.387 -19.684   4.397  1.00  0.00    -0.346 OA
HETATM   18  C   UNL     1      43.996 -17.379   4.659  1.00  0.00     0.042 A 
HETATM   19  C   UNL     1      43.891 -20.842   3.714  1.00  0.00     0.202 C 
HETATM   20  C   UNL     1      43.871 -20.614   2.212  1.00  0.00     0.202 C 
HETATM   21  C   UNL     1      43.443 -16.171   4.219  1.00  0.00     0.032 A 
ENDBRANCH   9  12
ENDBRANCH   7   8
ENDBRANCH   6   7
ENDBRANCH   2   6
BRANCH   1  22
HETATM   22  C   UNL     1      42.385 -11.952   5.511  1.00  0.00     0.043 A 
HETATM   23  C   UNL     1      43.690 -11.472   5.688  1.00  0.00     0.030 A 
HETATM   24  C   UNL     1      44.629 -12.241   6.380  1.00  0.00     0.002 A 
HETATM   25  C   UNL     1      44.277 -13.487   6.897  1.00  0.00     0.000 A 
HETATM   26  C   UNL     1      42.982 -13.970   6.722  1.00  0.00     0.002 A 
HETATM   27  C   UNL     1      42.038 -13.208   6.031  1.00  0.00     0.030 A 
ENDBRANCH   1  22
BRANCH   5  28
HETATM   28  C   UNL     1      40.309  -9.909   6.793  1.00  0.00     0.045 A 
HETATM   29  C   UNL     1      39.224 -10.335   7.576  1.00  0.00     0.079 A 
HETATM   30  C   UNL     1      39.087  -9.928   8.903  1.00  0.00     0.037 A 
HETATM   31  C   UNL     1      40.019  -9.055   9.459  1.00  0.00     0.003 A 
HETATM   32  C   UNL     1      41.082  -8.590   8.688  1.00  0.00     0.001 A 
HETATM   33  C   UNL     1      41.223  -9.008   7.361  1.00  0.00     0.018 A 
BRANCH  29  34
HETATM   34  O   UNL     1      38.244 -11.162   7.092  1.00  0.00    -0.360 OA
HETATM   35  H   UNL     1      37.377 -10.804   7.374  1.00  0.00     0.217 HD
ENDBRANCH  29  34
ENDBRANCH   5  28
TORSDOF 7
ENDMDL
MODEL 8
REMARK VINA RESULT:      -8.5      3.079     10.036
REMARK  7 active torsions:
REMARK  status: ('A' for Active; 'I' for Inactive)
REMARK    1  A    between atoms: C_4  and  N_5 
REMARK    2  A    between atoms: C_6  and  S_7 
REMARK    3  A    between atoms: S_7  and  C_8 
REMARK    4  A    between atoms: C_8  and  C_9 
REMARK       I    between atoms: C_9  and  N_10 
REMARK    5  A    between atoms: N_10  and  C_11 
REMARK    6  A    between atoms: C_24  and  C_25 
REMARK    7  A    between atoms: C_26  and  O_27 
ROOT
HETATM    1  N   UNL     1      43.318 -10.067   8.238  1.00  0.00    -0.271 N 
HETATM    2  C   UNL     1      44.066 -10.936   7.455  1.00  0.00     0.197 A 
HETATM    3  N   UNL     1      45.110 -11.368   8.125  1.00  0.00    -0.122 NA
HETATM    4  N   UNL     1      45.064 -10.830   9.373  1.00  0.00    -0.128 NA
HETATM    5  C   UNL     1      43.961 -10.107   9.479  1.00  0.00     0.172 A 
ENDROOT
BRANCH   2   6
HETATM    6  S   UNL     1      43.818 -11.299   5.770  1.00  0.00    -0.080 SA
BRANCH   6   7
HETATM    7  C   UNL     1      43.160 -12.992   5.919  1.00  0.00     0.185 C 
BRANCH   7   8
HETATM    8  C   UNL     1      42.019 -13.268   4.954  1.00  0.00     0.231 C 
HETATM    9  N   UNL     1      42.402 -13.936   3.803  1.00  0.00    -0.326 N 
HETATM   10  H   UNL     1      43.306 -14.392   3.839  1.00  0.00     0.169 HD
HETATM   11  O   UNL     1      40.894 -12.831   5.187  1.00  0.00    -0.272 OA
BRANCH   9  12
HETATM   12  C   UNL     1      41.646 -14.119   2.628  1.00  0.00     0.037 A 
HETATM   13  C   UNL     1      41.564 -13.173   1.601  1.00  0.00     0.069 A 
HETATM   14  C   UNL     1      40.840 -13.455   0.441  1.00  0.00     0.104 A 
HETATM   15  C   UNL     1      40.155 -14.665   0.312  1.00  0.00     0.102 A 
HETATM   16  O   UNL     1      40.848 -12.492  -0.539  1.00  0.00    -0.346 OA
HETATM   17  O   UNL     1      39.401 -14.992  -0.786  1.00  0.00    -0.346 OA
HETATM   18  C   UNL     1      40.237 -15.616   1.323  1.00  0.00     0.042 A 
HETATM   19  C   UNL     1      39.139 -13.843  -1.601  1.00  0.00     0.202 C 
HETATM   20  C   UNL     1      40.402 -13.020  -1.792  1.00  0.00     0.202 C 
HETATM   21  C   UNL     1      40.985 -15.347   2.474  1.00  0.00     0.032 A 
ENDBRANCH   9  12
ENDBRANCH   7   8
ENDBRANCH   6   7
ENDBRANCH   2   6
BRANCH   1  22
HETATM   22  C   UNL     1      42.197  -9.266   7.874  1.00  0.00     0.043 A 
HETATM   23  C   UNL     1      42.371  -7.994   7.314  1.00  0.00     0.030 A 
HETATM   24  C   UNL     1      41.258  -7.235   6.944  1.00  0.00     0.002 A 
HETATM   25  C   UNL     1      39.971  -7.736   7.130  1.00  0.00     0.000 A 
HETATM   26  C   UNL     1      39.791  -9.000   7.689  1.00  0.00     0.002 A 
HETATM   27  C   UNL     1      40.899  -9.764   8.061  1.00  0.00     0.030 A 
ENDBRANCH   1  22
BRANCH   5  28
HETATM   28  C   UNL     1      43.531  -9.520  10.753  1.00  0.00     0.045 A 
HETATM   29  C   UNL     1      43.345 -10.335  11.882  1.00  0.00     0.079 A 
HETATM   30  C   UNL     1      42.937  -9.797  13.101  1.00  0.00     0.037 A 
HETATM   31  C   UNL     1      42.672  -8.434  13.204  1.00  0.00     0.003 A 
HETATM   32  C   UNL     1      42.813  -7.613  12.086  1.00  0.00     0.001 A 
HETATM   33  C   UNL     1      43.233  -8.153  10.866  1.00  0.00     0.018 A 
BRANCH  29  34
HETATM   34  O   UNL     1      43.546 -11.690  11.854  1.00  0.00    -0.360 OA
HETATM   35  H   UNL     1      44.335 -11.892  12.397  1.00  0.00     0.217 HD
ENDBRANCH  29  34
ENDBRANCH   5  28
TORSDOF 7
ENDMDL
MODEL 9
REMARK VINA RESULT:      -8.5      2.993      4.340
REMARK  7 active torsions:
REMARK  status: ('A' for Active; 'I' for Inactive)
REMARK    1  A    between atoms: C_4  and  N_5 
REMARK    2  A    between atoms: C_6  and  S_7 
REMARK    3  A    between atoms: S_7  and  C_8 
REMARK    4  A    between atoms: C_8  and  C_9 
REMARK       I    between atoms: C_9  and  N_10 
REMARK    5  A    between atoms: N_10  and  C_11 
REMARK    6  A    between atoms: C_24  and  C_25 
REMARK    7  A    between atoms: C_26  and  O_27 
ROOT
HETATM    1  N   UNL     1      41.670 -12.619   3.970  1.00  0.00    -0.271 N 
HETATM    2  C   UNL     1      40.635 -11.792   3.553  1.00  0.00     0.197 A 
HETATM    3  N   UNL     1      39.941 -12.376   2.603  1.00  0.00    -0.122 NA
HETATM    4  N   UNL     1      40.468 -13.610   2.391  1.00  0.00    -0.128 NA
HETATM    5  C   UNL     1      41.457 -13.799   3.249  1.00  0.00     0.172 A 
ENDROOT
BRANCH   2   6
HETATM    6  S   UNL     1      40.356 -10.145   4.042  1.00  0.00    -0.080 SA
BRANCH   6   7
HETATM    7  C   UNL     1      38.873 -10.383   5.076  1.00  0.00     0.185 C 
BRANCH   7   8
HETATM    8  C   UNL     1      39.208 -10.656   6.533  1.00  0.00     0.231 C 
HETATM    9  N   UNL     1      39.597  -9.532   7.243  1.00  0.00    -0.326 N 
HETATM   10  H   UNL     1      39.370  -8.642   6.817  1.00  0.00     0.169 HD
HETATM   11  O   UNL     1      39.204 -11.808   6.961  1.00  0.00    -0.272 OA
BRANCH   9  12
HETATM   12  C   UNL     1      40.194  -9.491   8.519  1.00  0.00     0.037 A 
HETATM   13  C   UNL     1      39.482  -9.636   9.714  1.00  0.00     0.069 A 
HETATM   14  C   UNL     1      40.156  -9.643  10.938  1.00  0.00     0.104 A 
HETATM   15  C   UNL     1      41.539  -9.461  10.983  1.00  0.00     0.102 A 
HETATM   16  O   UNL     1      39.390  -9.837  12.061  1.00  0.00    -0.346 OA
HETATM   17  O   UNL     1      42.258  -9.426  12.150  1.00  0.00    -0.346 OA
HETATM   18  C   UNL     1      42.257  -9.324   9.800  1.00  0.00     0.042 A 
HETATM   19  C   UNL     1      41.401  -9.265  13.287  1.00  0.00     0.202 C 
HETATM   20  C   UNL     1      40.198 -10.189  13.188  1.00  0.00     0.202 C 
HETATM   21  C   UNL     1      41.587  -9.345   8.572  1.00  0.00     0.032 A 
ENDBRANCH   9  12
ENDBRANCH   7   8
ENDBRANCH   6   7
ENDBRANCH   2   6
BRANCH   1  22
HETATM   22  C   UNL     1      42.740 -12.339   4.867  1.00  0.00     0.043 A 
HETATM   23  C   UNL     1      42.675 -12.730   6.211  1.00  0.00     0.030 A 
HETATM   24  C   UNL     1      43.745 -12.464   7.069  1.00  0.00     0.002 A 
HETATM   25  C   UNL     1      44.881 -11.810   6.596  1.00  0.00     0.000 A 
HETATM   26  C   UNL     1      44.951 -11.417   5.261  1.00  0.00     0.002 A 
HETATM   27  C   UNL     1      43.885 -11.679   4.398  1.00  0.00     0.030 A 
ENDBRANCH   1  22
BRANCH   5  28
HETATM   28  C   UNL     1      42.135 -15.093   3.390  1.00  0.00     0.045 A 
HETATM   29  C   UNL     1      42.755 -15.691   2.281  1.00  0.00     0.079 A 
HETATM   30  C   UNL     1      43.404 -16.920   2.392  1.00  0.00     0.037 A 
HETATM   31  C   UNL     1      43.413 -17.591   3.613  1.00  0.00     0.003 A 
HETATM   32  C   UNL     1      42.772 -17.032   4.717  1.00  0.00     0.001 A 
HETATM   33  C   UNL     1      42.131 -15.794   4.606  1.00  0.00     0.018 A 
BRANCH  29  34
HETATM   34  O   UNL     1      42.756 -15.116   1.037  1.00  0.00    -0.360 OA
HETATM   35  H   UNL     1      41.912 -14.632   0.925  1.00  0.00     0.217 HD
ENDBRANCH  29  34
ENDBRANCH   5  28
TORSDOF 7
ENDMDL
MODEL 10
REMARK VINA RESULT:      -8.5      2.641      4.496
REMARK  7 active torsions:
REMARK  status: ('A' for Active; 'I' for Inactive)
REMARK    1  A    between atoms: C_4  and  N_5 
REMARK    2  A    between atoms: C_6  and  S_7 
REMARK    3  A    between atoms: S_7  and  C_8 
REMARK    4  A    between atoms: C_8  and  C_9 
REMARK       I    between atoms: C_9  and  N_10 
REMARK    5  A    between atoms: N_10  and  C_11 
REMARK    6  A    between atoms: C_24  and  C_25 
REMARK    7  A    between atoms: C_26  and  O_27 
ROOT
HETATM    1  N   UNL     1      42.287 -12.201   6.178  1.00  0.00    -0.271 N 
HETATM    2  C   UNL     1      41.130 -11.477   5.922  1.00  0.00     0.197 A 
HETATM    3  N   UNL     1      40.217 -12.254   5.384  1.00  0.00    -0.122 NA
HETATM    4  N   UNL     1      40.727 -13.511   5.303  1.00  0.00    -0.128 NA
HETATM    5  C   UNL     1      41.937 -13.512   5.839  1.00  0.00     0.172 A 
ENDROOT
BRANCH   2   6
HETATM    6  S   UNL     1      40.915  -9.758   6.092  1.00  0.00    -0.080 SA
BRANCH   6   7
HETATM    7  C   UNL     1      39.946  -9.725   7.636  1.00  0.00     0.185 C 
BRANCH   7   8
HETATM    8  C   UNL     1      40.547  -8.810   8.690  1.00  0.00     0.231 C 
HETATM    9  N   UNL     1      41.174  -9.479   9.728  1.00  0.00    -0.326 N 
HETATM   10  H   UNL     1      41.396 -10.452   9.554  1.00  0.00     0.169 HD
HETATM   11  O   UNL     1      40.380  -7.594   8.619  1.00  0.00    -0.272 OA
BRANCH   9  12
HETATM   12  C   UNL     1      41.606  -8.939  10.956  1.00  0.00     0.037 A 
HETATM   13  C   UNL     1      40.748  -8.651  12.022  1.00  0.00     0.069 A 
HETATM   14  C   UNL     1      41.262  -8.173  13.230  1.00  0.00     0.104 A 
HETATM   15  C   UNL     1      42.631  -7.937  13.370  1.00  0.00     0.102 A 
HETATM   16  O   UNL     1      40.359  -7.959  14.242  1.00  0.00    -0.346 OA
HETATM   17  O   UNL     1      43.198  -7.439  14.515  1.00  0.00    -0.346 OA
HETATM   18  C   UNL     1      43.494  -8.228  12.319  1.00  0.00     0.042 A 
HETATM   19  C   UNL     1      42.206  -6.895  15.395  1.00  0.00     0.202 C 
HETATM   20  C   UNL     1      41.015  -7.832  15.507  1.00  0.00     0.202 C 
HETATM   21  C   UNL     1      42.984  -8.734  11.118  1.00  0.00     0.032 A 
ENDBRANCH   9  12
ENDBRANCH   7   8
ENDBRANCH   6   7
ENDBRANCH   2   6
BRANCH   1  22
HETATM   22  C   UNL     1      43.559 -11.737   6.622  1.00  0.00     0.043 A 
HETATM   23  C   UNL     1      44.653 -11.685   5.748  1.00  0.00     0.030 A 
HETATM   24  C   UNL     1      45.885 -11.205   6.199  1.00  0.00     0.002 A 
HETATM   25  C   UNL     1      46.035 -10.778   7.517  1.00  0.00     0.000 A 
HETATM   26  C   UNL     1      44.952 -10.830   8.391  1.00  0.00     0.002 A 
HETATM   27  C   UNL     1      43.717 -11.308   7.948  1.00  0.00     0.030 A 
ENDBRANCH   1  22
BRANCH   5  28
HETATM   28  C   UNL     1      42.698 -14.748   6.052  1.00  0.00     0.045 A 
HETATM   29  C   UNL     1      43.187 -15.475   4.955  1.00  0.00     0.079 A 
HETATM   30  C   UNL     1      43.913 -16.652   5.135  1.00  0.00     0.037 A 
HETATM   31  C   UNL     1      44.132 -17.142   6.420  1.00  0.00     0.003 A 
HETATM   32  C   UNL     1      43.622 -16.455   7.521  1.00  0.00     0.001 A 
HETATM   33  C   UNL     1      42.904 -15.269   7.339  1.00  0.00     0.018 A 
BRANCH  29  34
HETATM   34  O   UNL     1      42.981 -15.083   3.658  1.00  0.00    -0.360 OA
HETATM   35  H   UNL     1      42.978 -14.104   3.634  1.00  0.00     0.217 HD
ENDBRANCH  29  34
ENDBRANCH   5  28
TORSDOF 7
ENDMDL
