MODEL 1
REMARK VINA RESULT:      -8.3      0.000      0.000
REMARK  7 active torsions:
REMARK  status: ('A' for Active; 'I' for Inactive)
REMARK    1  A    between atoms: O_2  and  C_3 
REMARK    2  A    between atoms: C_4  and  O_5 
REMARK    3  A    between atoms: O_5  and  C_6 
REMARK       I    between atoms: C_6  and  N_7 
REMARK    4  A    between atoms: C_14  and  O_15 
REMARK    5  A    between atoms: C_18  and  C_19 
REMARK    6  A    between atoms: C_23  and  N_24 
REMARK    7  A    between atoms: C_31  and  C_32 
ROOT
HETATM    1  C   UNL     1      40.935 -12.415   5.684  1.00  0.00     0.106 A 
HETATM    2  C   UNL     1      40.317 -11.184   6.363  1.00  0.00     0.081 A 
HETATM    3  C   UNL     1      38.895 -11.084   6.336  1.00  0.00     0.100 C 
HETATM    4  N   UNL     1      37.736 -11.025   6.318  1.00  0.00    -0.191 NA
HETATM    5  C   UNL     1      41.056 -10.253   7.026  1.00  0.00     0.140 A 
HETATM    6  O   UNL     1      42.449 -10.364   7.153  1.00  0.00    -0.279 OA
HETATM    7  C   UNL     1      42.997 -11.473   6.674  1.00  0.00     0.175 A 
HETATM    8  C   UNL     1      42.394 -12.496   5.988  1.00  0.00     0.040 A 
HETATM    9  N   UNL     1      44.309 -11.790   6.789  1.00  0.00    -0.256 N 
HETATM   10  H   UNL     1      45.046 -11.261   7.242  1.00  0.00     0.191 HD
HETATM   11  N   UNL     1      44.611 -12.963   6.207  1.00  0.00    -0.172 NA
HETATM   12  C   UNL     1      43.439 -13.431   5.734  1.00  0.00     0.099 A 
ENDROOT
BRANCH   1  13
HETATM   13  C   UNL     1      40.758 -12.376   4.165  1.00  0.00    -0.039 C 
HETATM   14  C   UNL     1      40.151 -13.412   3.422  1.00  0.00     0.048 C 
HETATM   15  C   UNL     1      40.130 -13.389   2.024  1.00  0.00     0.105 C 
HETATM   16  C   UNL     1      40.821 -12.372   1.357  1.00  0.00     0.147 C 
HETATM   17  C   UNL     1      41.359 -11.296   2.059  1.00  0.00     0.105 C 
HETATM   18  C   UNL     1      41.336 -11.302   3.455  1.00  0.00     0.048 C 
BRANCH  15  19
HETATM   19  O   UNL     1      39.517 -14.342   1.254  1.00  0.00    -0.353 OA
HETATM   20  C   UNL     1      39.986 -15.671   1.452  1.00  0.00     0.210 C 
ENDBRANCH  15  19
BRANCH  16  21
HETATM   21  O   UNL     1      40.951 -12.384  -0.038  1.00  0.00    -0.256 OA
BRANCH  21  22
HETATM   22  C   UNL     1      39.805 -11.944  -0.694  1.00  0.00     0.368 C 
HETATM   23  N   UNL     1      39.595 -12.611  -1.890  1.00  0.00    -0.324 N 
HETATM   24  C   UNL     1      40.150 -13.931  -2.182  1.00  0.00     0.154 C 
HETATM   25  C   UNL     1      38.488 -12.225  -2.758  1.00  0.00     0.154 C 
HETATM   26  C   UNL     1      39.019 -14.970  -2.213  1.00  0.00     0.187 C 
HETATM   27  O   UNL     1      37.988 -14.587  -3.140  1.00  0.00    -0.388 OA
HETATM   28  C   UNL     1      37.416 -13.317  -2.775  1.00  0.00     0.187 C 
HETATM   29  O   UNL     1      39.051 -11.061  -0.290  1.00  0.00    -0.238 OA
ENDBRANCH  21  22
ENDBRANCH  16  21
BRANCH  17  30
HETATM   30  O   UNL     1      41.979 -10.294   1.359  1.00  0.00    -0.353 OA
HETATM   31  C   UNL     1      41.178  -9.115   1.312  1.00  0.00     0.210 C 
ENDBRANCH  17  30
ENDBRANCH   1  13
BRANCH   5  32
HETATM   32  N   UNL     1      40.554  -9.129   7.646  1.00  0.00    -0.282 NA
HETATM   33  H   UNL     1      40.137  -9.289   8.561  1.00  0.00     0.126 HD
HETATM   34  H   UNL     1      39.944  -8.598   7.029  1.00  0.00     0.126 HD
ENDBRANCH   5  32
BRANCH  12  35
HETATM   35  C   UNL     1      43.387 -14.716   5.037  1.00  0.00    -0.005 A 
HETATM   36  C   UNL     1      43.443 -15.931   5.734  1.00  0.00     0.015 A 
HETATM   37  C   UNL     1      43.398 -17.147   5.044  1.00  0.00     0.020 A 
HETATM   38  C   UNL     1      43.303 -17.153   3.654  1.00  0.00     0.011 A 
HETATM   39 BR   UNL     1      43.251 -18.799   2.724  1.00  0.00    -0.051 Br
HETATM   40  C   UNL     1      43.258 -15.957   2.944  1.00  0.00     0.020 A 
HETATM   41  C   UNL     1      43.302 -14.744   3.635  1.00  0.00     0.015 A 
ENDBRANCH  12  35
TORSDOF 7
ENDMDL
MODEL 2
REMARK VINA RESULT:      -8.2      2.363      7.438
REMARK  7 active torsions:
REMARK  status: ('A' for Active; 'I' for Inactive)
REMARK    1  A    between atoms: O_2  and  C_3 
REMARK    2  A    between atoms: C_4  and  O_5 
REMARK    3  A    between atoms: O_5  and  C_6 
REMARK       I    between atoms: C_6  and  N_7 
REMARK    4  A    between atoms: C_14  and  O_15 
REMARK    5  A    between atoms: C_18  and  C_19 
REMARK    6  A    between atoms: C_23  and  N_24 
REMARK    7  A    between atoms: C_31  and  C_32 
ROOT
HETATM    1  C   UNL     1      41.243 -12.343   0.477  1.00  0.00     0.106 A 
HETATM    2  C   UNL     1      40.879 -11.235  -0.524  1.00  0.00     0.081 A 
HETATM    3  C   UNL     1      41.663 -10.045  -0.473  1.00  0.00     0.100 C 
HETATM    4  N   UNL     1      42.319  -9.088  -0.428  1.00  0.00    -0.191 NA
HETATM    5  C   UNL     1      39.911 -11.378  -1.469  1.00  0.00     0.140 A 
HETATM    6  O   UNL     1      39.181 -12.568  -1.610  1.00  0.00    -0.279 OA
HETATM    7  C   UNL     1      39.548 -13.579  -0.835  1.00  0.00     0.175 A 
HETATM    8  C   UNL     1      40.497 -13.595   0.156  1.00  0.00     0.040 A 
HETATM    9  N   UNL     1      39.018 -14.824  -0.898  1.00  0.00    -0.256 N 
HETATM   10  H   UNL     1      38.295 -15.168  -1.520  1.00  0.00     0.191 HD
HETATM   11  N   UNL     1      39.555 -15.663   0.006  1.00  0.00    -0.172 NA
HETATM   12  C   UNL     1      40.492 -14.934   0.645  1.00  0.00     0.099 A 
ENDROOT
BRANCH   1  13
HETATM   13  C   UNL     1      40.915 -11.939   1.916  1.00  0.00    -0.039 C 
HETATM   14  C   UNL     1      39.740 -11.247   2.284  1.00  0.00     0.048 C 
HETATM   15  C   UNL     1      39.548 -10.785   3.590  1.00  0.00     0.105 C 
HETATM   16  C   UNL     1      40.589 -10.919   4.513  1.00  0.00     0.147 C 
HETATM   17  C   UNL     1      41.725 -11.665   4.203  1.00  0.00     0.105 C 
HETATM   18  C   UNL     1      41.891 -12.165   2.909  1.00  0.00     0.048 C 
BRANCH  15  19
HETATM   19  O   UNL     1      38.410 -10.149   4.015  1.00  0.00    -0.353 OA
HETATM   20  C   UNL     1      38.195  -8.859   3.453  1.00  0.00     0.210 C 
ENDBRANCH  15  19
BRANCH  16  21
HETATM   21  O   UNL     1      40.502 -10.347   5.788  1.00  0.00    -0.256 OA
BRANCH  21  22
HETATM   22  C   UNL     1      41.032  -9.061   5.844  1.00  0.00     0.368 C 
HETATM   23  N   UNL     1      40.920  -8.500   7.105  1.00  0.00    -0.324 N 
HETATM   24  C   UNL     1      40.773  -9.290   8.326  1.00  0.00     0.154 C 
HETATM   25  C   UNL     1      41.346  -7.123   7.334  1.00  0.00     0.154 C 
HETATM   26  C   UNL     1      42.059  -9.189   9.162  1.00  0.00     0.187 C 
HETATM   27  O   UNL     1      42.396  -7.816   9.430  1.00  0.00    -0.388 OA
HETATM   28  C   UNL     1      42.605  -7.091   8.204  1.00  0.00     0.187 C 
HETATM   29  O   UNL     1      41.541  -8.461   4.898  1.00  0.00    -0.238 OA
ENDBRANCH  21  22
ENDBRANCH  16  21
BRANCH  17  30
HETATM   30  O   UNL     1      42.696 -11.817   5.157  1.00  0.00    -0.353 OA
HETATM   31  C   UNL     1      43.021 -13.191   5.360  1.00  0.00     0.210 C 
ENDBRANCH  17  30
ENDBRANCH   1  13
BRANCH   5  32
HETATM   32  N   UNL     1      39.543 -10.416  -2.385  1.00  0.00    -0.282 NA
HETATM   33  H   UNL     1      40.182 -10.295  -3.167  1.00  0.00     0.126 HD
HETATM   34  H   UNL     1      39.310  -9.535  -1.934  1.00  0.00     0.126 HD
ENDBRANCH   5  32
BRANCH  12  35
HETATM   35  C   UNL     1      41.298 -15.539   1.705  1.00  0.00    -0.005 A 
HETATM   36  C   UNL     1      42.643 -15.876   1.502  1.00  0.00     0.015 A 
HETATM   37  C   UNL     1      43.391 -16.459   2.530  1.00  0.00     0.020 A 
HETATM   38  C   UNL     1      42.795 -16.714   3.764  1.00  0.00     0.011 A 
HETATM   39 BR   UNL     1      43.807 -17.510   5.148  1.00  0.00    -0.051 Br
HETATM   40  C   UNL     1      41.457 -16.397   3.980  1.00  0.00     0.020 A 
HETATM   41  C   UNL     1      40.713 -15.813   2.952  1.00  0.00     0.015 A 
ENDBRANCH  12  35
TORSDOF 7
ENDMDL
MODEL 3
REMARK VINA RESULT:      -8.1      3.357      7.482
REMARK  7 active torsions:
REMARK  status: ('A' for Active; 'I' for Inactive)
REMARK    1  A    between atoms: O_2  and  C_3 
REMARK    2  A    between atoms: C_4  and  O_5 
REMARK    3  A    between atoms: O_5  and  C_6 
REMARK       I    between atoms: C_6  and  N_7 
REMARK    4  A    between atoms: C_14  and  O_15 
REMARK    5  A    between atoms: C_18  and  C_19 
REMARK    6  A    between atoms: C_23  and  N_24 
REMARK    7  A    between atoms: C_31  and  C_32 
ROOT
HETATM    1  C   UNL     1      40.951 -15.161   4.084  1.00  0.00     0.106 A 
HETATM    2  C   UNL     1      41.290 -16.000   5.326  1.00  0.00     0.081 A 
HETATM    3  C   UNL     1      40.359 -15.952   6.405  1.00  0.00     0.100 C 
HETATM    4  N   UNL     1      39.584 -15.913   7.268  1.00  0.00    -0.191 NA
HETATM    5  C   UNL     1      42.380 -16.812   5.398  1.00  0.00     0.140 A 
HETATM    6  O   UNL     1      43.270 -16.956   4.323  1.00  0.00    -0.279 OA
HETATM    7  C   UNL     1      42.942 -16.332   3.199  1.00  0.00     0.175 A 
HETATM    8  C   UNL     1      41.887 -15.487   2.968  1.00  0.00     0.040 A 
HETATM    9  N   UNL     1      43.634 -16.432   2.038  1.00  0.00    -0.256 N 
HETATM   10  H   UNL     1      44.467 -16.976   1.849  1.00  0.00     0.191 HD
HETATM   11  N   UNL     1      43.100 -15.689   1.053  1.00  0.00    -0.172 NA
HETATM   12  C   UNL     1      42.003 -15.123   1.596  1.00  0.00     0.099 A 
ENDROOT
BRANCH   1  13
HETATM   13  C   UNL     1      41.039 -13.661   4.370  1.00  0.00    -0.039 C 
HETATM   14  C   UNL     1      42.159 -13.046   4.972  1.00  0.00     0.048 C 
HETATM   15  C   UNL     1      42.140 -11.694   5.331  1.00  0.00     0.105 C 
HETATM   16  C   UNL     1      40.949 -10.975   5.188  1.00  0.00     0.147 C 
HETATM   17  C   UNL     1      39.857 -11.531   4.526  1.00  0.00     0.105 C 
HETATM   18  C   UNL     1      39.898 -12.868   4.127  1.00  0.00     0.048 C 
BRANCH  15  19
HETATM   19  O   UNL     1      43.211 -11.035   5.876  1.00  0.00    -0.353 OA
HETATM   20  C   UNL     1      43.774 -11.648   7.030  1.00  0.00     0.210 C 
ENDBRANCH  15  19
BRANCH  16  21
HETATM   21  O   UNL     1      40.837  -9.664   5.666  1.00  0.00    -0.256 OA
BRANCH  21  22
HETATM   22  C   UNL     1      40.473  -9.603   7.008  1.00  0.00     0.368 C 
HETATM   23  N   UNL     1      41.394  -8.906   7.772  1.00  0.00    -0.324 N 
HETATM   24  C   UNL     1      42.319  -7.922   7.216  1.00  0.00     0.154 C 
HETATM   25  C   UNL     1      41.222  -8.811   9.219  1.00  0.00     0.154 C 
HETATM   26  C   UNL     1      41.916  -6.514   7.683  1.00  0.00     0.187 C 
HETATM   27  O   UNL     1      41.836  -6.447   9.118  1.00  0.00    -0.388 OA
HETATM   28  C   UNL     1      40.861  -7.379   9.621  1.00  0.00     0.187 C 
HETATM   29  O   UNL     1      39.461 -10.108   7.492  1.00  0.00    -0.238 OA
ENDBRANCH  21  22
ENDBRANCH  16  21
BRANCH  17  30
HETATM   30  O   UNL     1      38.729 -10.770   4.360  1.00  0.00    -0.353 OA
HETATM   31  C   UNL     1      38.557 -10.379   2.999  1.00  0.00     0.210 C 
ENDBRANCH  17  30
ENDBRANCH   1  13
BRANCH   5  32
HETATM   32  N   UNL     1      42.732 -17.579   6.487  1.00  0.00    -0.282 NA
HETATM   33  H   UNL     1      42.779 -18.581   6.315  1.00  0.00     0.126 HD
HETATM   34  H   UNL     1      42.174 -17.351   7.306  1.00  0.00     0.126 HD
ENDBRANCH   5  32
BRANCH  12  35
HETATM   35  C   UNL     1      41.156 -14.242   0.792  1.00  0.00    -0.005 A 
HETATM   36  C   UNL     1      41.317 -12.850   0.815  1.00  0.00     0.015 A 
HETATM   37  C   UNL     1      40.491 -12.027   0.042  1.00  0.00     0.020 A 
HETATM   38  C   UNL     1      39.495 -12.594  -0.752  1.00  0.00     0.011 A 
HETATM   39 BR   UNL     1      38.375 -11.479  -1.789  1.00  0.00    -0.051 Br
HETATM   40  C   UNL     1      39.313 -13.973  -0.778  1.00  0.00     0.020 A 
HETATM   41  C   UNL     1      40.141 -14.792  -0.006  1.00  0.00     0.015 A 
ENDBRANCH  12  35
TORSDOF 7
ENDMDL
MODEL 4
REMARK VINA RESULT:      -7.9      3.458      6.728
REMARK  7 active torsions:
REMARK  status: ('A' for Active; 'I' for Inactive)
REMARK    1  A    between atoms: O_2  and  C_3 
REMARK    2  A    between atoms: C_4  and  O_5 
REMARK    3  A    between atoms: O_5  and  C_6 
REMARK       I    between atoms: C_6  and  N_7 
REMARK    4  A    between atoms: C_14  and  O_15 
REMARK    5  A    between atoms: C_18  and  C_19 
REMARK    6  A    between atoms: C_23  and  N_24 
REMARK    7  A    between atoms: C_31  and  C_32 
ROOT
HETATM    1  C   UNL     1      41.002 -15.132   4.043  1.00  0.00     0.106 A 
HETATM    2  C   UNL     1      41.353 -15.920   5.315  1.00  0.00     0.081 A 
HETATM    3  C   UNL     1      40.449 -15.802   6.411  1.00  0.00     0.100 C 
HETATM    4  N   UNL     1      39.696 -15.706   7.289  1.00  0.00    -0.191 NA
HETATM    5  C   UNL     1      42.426 -16.752   5.399  1.00  0.00     0.140 A 
HETATM    6  O   UNL     1      43.288 -16.965   4.312  1.00  0.00    -0.279 OA
HETATM    7  C   UNL     1      42.946 -16.386   3.168  1.00  0.00     0.175 A 
HETATM    8  C   UNL     1      41.904 -15.529   2.923  1.00  0.00     0.040 A 
HETATM    9  N   UNL     1      43.608 -16.555   1.998  1.00  0.00    -0.256 N 
HETATM   10  H   UNL     1      44.425 -17.126   1.814  1.00  0.00     0.191 HD
HETATM   11  N   UNL     1      43.066 -15.847   0.991  1.00  0.00    -0.172 NA
HETATM   12  C   UNL     1      41.995 -15.232   1.532  1.00  0.00     0.099 A 
ENDROOT
BRANCH   1  13
HETATM   13  C   UNL     1      41.129 -13.623   4.256  1.00  0.00    -0.039 C 
HETATM   14  C   UNL     1      40.035 -12.732   4.206  1.00  0.00     0.048 C 
HETATM   15  C   UNL     1      40.221 -11.347   4.277  1.00  0.00     0.105 C 
HETATM   16  C   UNL     1      41.524 -10.842   4.288  1.00  0.00     0.147 C 
HETATM   17  C   UNL     1      42.618 -11.695   4.419  1.00  0.00     0.105 C 
HETATM   18  C   UNL     1      42.423 -13.077   4.394  1.00  0.00     0.048 C 
BRANCH  15  19
HETATM   19  O   UNL     1      39.195 -10.439   4.279  1.00  0.00    -0.353 OA
HETATM   20  C   UNL     1      38.498 -10.313   3.044  1.00  0.00     0.210 C 
ENDBRANCH  15  19
BRANCH  16  21
HETATM   21  O   UNL     1      41.764  -9.464   4.214  1.00  0.00    -0.256 OA
BRANCH  21  22
HETATM   22  C   UNL     1      41.564  -8.812   5.428  1.00  0.00     0.368 C 
HETATM   23  N   UNL     1      41.096  -7.519   5.259  1.00  0.00    -0.324 N 
HETATM   24  C   UNL     1      40.399  -7.068   4.056  1.00  0.00     0.154 C 
HETATM   25  C   UNL     1      40.908  -6.652   6.418  1.00  0.00     0.154 C 
HETATM   26  C   UNL     1      38.919  -6.813   4.384  1.00  0.00     0.187 C 
HETATM   27  O   UNL     1      38.782  -5.892   5.480  1.00  0.00    -0.388 OA
HETATM   28  C   UNL     1      39.417  -6.407   6.665  1.00  0.00     0.187 C 
HETATM   29  O   UNL     1      41.779  -9.296   6.537  1.00  0.00    -0.238 OA
ENDBRANCH  21  22
ENDBRANCH  16  21
BRANCH  17  30
HETATM   30  O   UNL     1      43.875 -11.152   4.482  1.00  0.00    -0.353 OA
HETATM   31  C   UNL     1      44.502 -11.426   5.734  1.00  0.00     0.210 C 
ENDBRANCH  17  30
ENDBRANCH   1  13
BRANCH   5  32
HETATM   32  N   UNL     1      42.789 -17.476   6.514  1.00  0.00    -0.282 NA
HETATM   33  H   UNL     1      43.554 -18.132   6.375  1.00  0.00     0.126 HD
HETATM   34  H   UNL     1      41.984 -17.908   6.962  1.00  0.00     0.126 HD
ENDBRANCH   5  32
BRANCH  12  35
HETATM   35  C   UNL     1      41.148 -14.370   0.708  1.00  0.00    -0.005 A 
HETATM   36  C   UNL     1      41.289 -12.976   0.721  1.00  0.00     0.015 A 
HETATM   37  C   UNL     1      40.463 -12.172  -0.071  1.00  0.00     0.020 A 
HETATM   38  C   UNL     1      39.488 -12.759  -0.875  1.00  0.00     0.011 A 
HETATM   39 BR   UNL     1      38.368 -11.669  -1.939  1.00  0.00    -0.051 Br
HETATM   40  C   UNL     1      39.325 -14.141  -0.892  1.00  0.00     0.020 A 
HETATM   41  C   UNL     1      40.153 -14.942  -0.101  1.00  0.00     0.015 A 
ENDBRANCH  12  35
TORSDOF 7
ENDMDL
MODEL 5
REMARK VINA RESULT:      -7.7      2.423      7.390
REMARK  7 active torsions:
REMARK  status: ('A' for Active; 'I' for Inactive)
REMARK    1  A    between atoms: O_2  and  C_3 
REMARK    2  A    between atoms: C_4  and  O_5 
REMARK    3  A    between atoms: O_5  and  C_6 
REMARK       I    between atoms: C_6  and  N_7 
REMARK    4  A    between atoms: C_14  and  O_15 
REMARK    5  A    between atoms: C_18  and  C_19 
REMARK    6  A    between atoms: C_23  and  N_24 
REMARK    7  A    between atoms: C_31  and  C_32 
ROOT
HETATM    1  C   UNL     1      41.507 -11.903   0.053  1.00  0.00     0.106 A 
HETATM    2  C   UNL     1      41.192 -10.912  -1.078  1.00  0.00     0.081 A 
HETATM    3  C   UNL     1      42.054  -9.782  -1.197  1.00  0.00     0.100 C 
HETATM    4  N   UNL     1      42.774  -8.876  -1.290  1.00  0.00    -0.191 NA
HETATM    5  C   UNL     1      40.192 -11.109  -1.979  1.00  0.00     0.140 A 
HETATM    6  O   UNL     1      39.381 -12.253  -1.950  1.00  0.00    -0.279 OA
HETATM    7  C   UNL     1      39.700 -13.178  -1.055  1.00  0.00     0.175 A 
HETATM    8  C   UNL     1      40.671 -13.131  -0.088  1.00  0.00     0.040 A 
HETATM    9  N   UNL     1      39.086 -14.381  -0.945  1.00  0.00    -0.256 N 
HETATM   10  H   UNL     1      38.326 -14.752  -1.504  1.00  0.00     0.191 HD
HETATM   11  N   UNL     1      39.590 -15.130   0.051  1.00  0.00    -0.172 NA
HETATM   12  C   UNL     1      40.590 -14.391   0.573  1.00  0.00     0.099 A 
ENDROOT
BRANCH   1  13
HETATM   13  C   UNL     1      41.245 -11.294   1.432  1.00  0.00    -0.039 C 
HETATM   14  C   UNL     1      42.222 -11.212   2.448  1.00  0.00     0.048 C 
HETATM   15  C   UNL     1      41.898 -10.766   3.734  1.00  0.00     0.105 C 
HETATM   16  C   UNL     1      40.560 -10.504   4.039  1.00  0.00     0.147 C 
HETATM   17  C   UNL     1      39.588 -10.500   3.041  1.00  0.00     0.105 C 
HETATM   18  C   UNL     1      39.927 -10.901   1.746  1.00  0.00     0.048 C 
BRANCH  15  19
HETATM   19  O   UNL     1      42.813 -10.623   4.744  1.00  0.00    -0.353 OA
HETATM   20  C   UNL     1      43.461 -11.825   5.147  1.00  0.00     0.210 C 
ENDBRANCH  15  19
BRANCH  16  21
HETATM   21  O   UNL     1      40.165 -10.196   5.347  1.00  0.00    -0.256 OA
BRANCH  21  22
HETATM   22  C   UNL     1      40.358  -8.855   5.671  1.00  0.00     0.368 C 
HETATM   23  N   UNL     1      40.724  -8.682   6.995  1.00  0.00    -0.324 N 
HETATM   24  C   UNL     1      41.343  -9.731   7.803  1.00  0.00     0.154 C 
HETATM   25  C   UNL     1      40.886  -7.337   7.539  1.00  0.00     0.154 C 
HETATM   26  C   UNL     1      42.810  -9.368   8.081  1.00  0.00     0.187 C 
HETATM   27  O   UNL     1      42.917  -8.068   8.689  1.00  0.00    -0.388 OA
HETATM   28  C   UNL     1      42.363  -7.054   7.830  1.00  0.00     0.187 C 
HETATM   29  O   UNL     1      40.219  -7.911   4.896  1.00  0.00    -0.238 OA
ENDBRANCH  21  22
ENDBRANCH  16  21
BRANCH  17  30
HETATM   30  O   UNL     1      38.298 -10.183   3.376  1.00  0.00    -0.353 OA
HETATM   31  C   UNL     1      37.821  -9.067   2.625  1.00  0.00     0.210 C 
ENDBRANCH  17  30
ENDBRANCH   1  13
BRANCH   5  32
HETATM   32  N   UNL     1      39.865 -10.251  -3.007  1.00  0.00    -0.282 NA
HETATM   33  H   UNL     1      38.881 -10.243  -3.268  1.00  0.00     0.126 HD
HETATM   34  H   UNL     1      40.479 -10.371  -3.809  1.00  0.00     0.126 HD
ENDBRANCH   5  32
BRANCH  12  35
HETATM   35  C   UNL     1      41.381 -14.908   1.690  1.00  0.00    -0.005 A 
HETATM   36  C   UNL     1      41.030 -14.644   3.020  1.00  0.00     0.015 A 
HETATM   37  C   UNL     1      41.805 -15.145   4.071  1.00  0.00     0.020 A 
HETATM   38  C   UNL     1      42.940 -15.906   3.795  1.00  0.00     0.011 A 
HETATM   39 BR   UNL     1      43.990 -16.574   5.218  1.00  0.00    -0.051 Br
HETATM   40  C   UNL     1      43.311 -16.169   2.480  1.00  0.00     0.020 A 
HETATM   41  C   UNL     1      42.533 -15.669   1.432  1.00  0.00     0.015 A 
ENDBRANCH  12  35
TORSDOF 7
ENDMDL
MODEL 6
REMARK VINA RESULT:      -7.2     17.046     19.797
REMARK  7 active torsions:
REMARK  status: ('A' for Active; 'I' for Inactive)
REMARK    1  A    between atoms: O_2  and  C_3 
REMARK    2  A    between atoms: C_4  and  O_5 
REMARK    3  A    between atoms: O_5  and  C_6 
REMARK       I    between atoms: C_6  and  N_7 
REMARK    4  A    between atoms: C_14  and  O_15 
REMARK    5  A    between atoms: C_18  and  C_19 
REMARK    6  A    between atoms: C_23  and  N_24 
REMARK    7  A    between atoms: C_31  and  C_32 
ROOT
HETATM    1  C   UNL     1      45.259 -31.388   0.197  1.00  0.00     0.106 A 
HETATM    2  C   UNL     1      43.836 -31.562   0.751  1.00  0.00     0.081 A 
HETATM    3  C   UNL     1      43.216 -32.827   0.536  1.00  0.00     0.100 C 
HETATM    4  N   UNL     1      42.730 -33.868   0.366  1.00  0.00    -0.191 NA
HETATM    5  C   UNL     1      43.200 -30.601   1.475  1.00  0.00     0.140 A 
HETATM    6  O   UNL     1      43.812 -29.377   1.785  1.00  0.00    -0.279 OA
HETATM    7  C   UNL     1      45.079 -29.243   1.416  1.00  0.00     0.175 A 
HETATM    8  C   UNL     1      45.854 -30.112   0.690  1.00  0.00     0.040 A 
HETATM    9  N   UNL     1      45.853 -28.170   1.710  1.00  0.00    -0.256 N 
HETATM   10  H   UNL     1      45.603 -27.341   2.238  1.00  0.00     0.191 HD
HETATM   11  N   UNL     1      47.096 -28.275   1.208  1.00  0.00    -0.172 NA
HETATM   12  C   UNL     1      47.128 -29.479   0.602  1.00  0.00     0.099 A 
ENDROOT
BRANCH   1  13
HETATM   13  C   UNL     1      45.274 -31.371  -1.333  1.00  0.00    -0.039 C 
HETATM   14  C   UNL     1      45.906 -32.359  -2.119  1.00  0.00     0.048 C 
HETATM   15  C   UNL     1      46.006 -32.230  -3.508  1.00  0.00     0.105 C 
HETATM   16  C   UNL     1      45.565 -31.047  -4.108  1.00  0.00     0.147 C 
HETATM   17  C   UNL     1      44.867 -30.092  -3.373  1.00  0.00     0.105 C 
HETATM   18  C   UNL     1      44.730 -30.248  -1.992  1.00  0.00     0.048 C 
BRANCH  15  19
HETATM   19  O   UNL     1      46.567 -33.178  -4.324  1.00  0.00    -0.353 OA
HETATM   20  C   UNL     1      47.977 -33.326  -4.195  1.00  0.00     0.210 C 
ENDBRANCH  15  19
BRANCH  16  21
HETATM   21  O   UNL     1      45.772 -30.810  -5.473  1.00  0.00    -0.256 OA
BRANCH  21  22
HETATM   22  C   UNL     1      44.790 -31.378  -6.279  1.00  0.00     0.368 C 
HETATM   23  N   UNL     1      45.304 -31.872  -7.466  1.00  0.00    -0.324 N 
HETATM   24  C   UNL     1      46.706 -32.244  -7.642  1.00  0.00     0.154 C 
HETATM   25  C   UNL     1      44.409 -32.428  -8.476  1.00  0.00     0.154 C 
HETATM   26  C   UNL     1      46.821 -33.771  -7.771  1.00  0.00     0.187 C 
HETATM   27  O   UNL     1      45.982 -34.266  -8.830  1.00  0.00    -0.388 OA
HETATM   28  C   UNL     1      44.601 -33.943  -8.583  1.00  0.00     0.187 C 
HETATM   29  O   UNL     1      43.593 -31.441  -6.001  1.00  0.00    -0.238 OA
ENDBRANCH  21  22
ENDBRANCH  16  21
BRANCH  17  30
HETATM   30  O   UNL     1      44.405 -28.972  -4.014  1.00  0.00    -0.353 OA
HETATM   31  C   UNL     1      45.121 -27.805  -3.612  1.00  0.00     0.210 C 
ENDBRANCH  17  30
ENDBRANCH   1  13
BRANCH   5  32
HETATM   32  N   UNL     1      41.926 -30.703   1.989  1.00  0.00    -0.282 NA
HETATM   33  H   UNL     1      41.512 -31.631   1.942  1.00  0.00     0.126 HD
HETATM   34  H   UNL     1      41.309 -29.984   1.618  1.00  0.00     0.126 HD
ENDBRANCH   5  32
BRANCH  12  35
HETATM   35  C   UNL     1      48.351 -29.939  -0.056  1.00  0.00    -0.005 A 
HETATM   36  C   UNL     1      49.384 -30.553   0.665  1.00  0.00     0.015 A 
HETATM   37  C   UNL     1      50.546 -30.980   0.015  1.00  0.00     0.020 A 
HETATM   38  C   UNL     1      50.684 -30.786  -1.359  1.00  0.00     0.011 A 
HETATM   39 BR   UNL     1      52.260 -31.356  -2.234  1.00  0.00    -0.051 Br
HETATM   40  C   UNL     1      49.674 -30.167  -2.089  1.00  0.00     0.020 A 
HETATM   41  C   UNL     1      48.512 -29.744  -1.437  1.00  0.00     0.015 A 
ENDBRANCH  12  35
TORSDOF 7
ENDMDL
MODEL 7
REMARK VINA RESULT:      -7.2     17.187     19.883
REMARK  7 active torsions:
REMARK  status: ('A' for Active; 'I' for Inactive)
REMARK    1  A    between atoms: O_2  and  C_3 
REMARK    2  A    between atoms: C_4  and  O_5 
REMARK    3  A    between atoms: O_5  and  C_6 
REMARK       I    between atoms: C_6  and  N_7 
REMARK    4  A    between atoms: C_14  and  O_15 
REMARK    5  A    between atoms: C_18  and  C_19 
REMARK    6  A    between atoms: C_23  and  N_24 
REMARK    7  A    between atoms: C_31  and  C_32 
ROOT
HETATM    1  C   UNL     1      49.028 -31.212   1.651  1.00  0.00     0.106 A 
HETATM    2  C   UNL     1      49.984 -31.925   2.620  1.00  0.00     0.081 A 
HETATM    3  C   UNL     1      50.505 -33.183   2.197  1.00  0.00     0.100 C 
HETATM    4  N   UNL     1      50.932 -34.198   1.830  1.00  0.00    -0.191 NA
HETATM    5  C   UNL     1      50.388 -31.379   3.800  1.00  0.00     0.140 A 
HETATM    6  O   UNL     1      49.969 -30.104   4.210  1.00  0.00    -0.279 OA
HETATM    7  C   UNL     1      49.234 -29.419   3.344  1.00  0.00     0.175 A 
HETATM    8  C   UNL     1      48.750 -29.825   2.126  1.00  0.00     0.040 A 
HETATM    9  N   UNL     1      48.819 -28.143   3.532  1.00  0.00    -0.256 N 
HETATM   10  H   UNL     1      48.998 -27.535   4.323  1.00  0.00     0.191 HD
HETATM   11  N   UNL     1      48.076 -27.684   2.510  1.00  0.00    -0.172 NA
HETATM   12  C   UNL     1      48.048 -28.694   1.617  1.00  0.00     0.099 A 
ENDROOT
BRANCH   1  13
HETATM   13  C   UNL     1      47.698 -31.954   1.517  1.00  0.00    -0.039 C 
HETATM   14  C   UNL     1      47.057 -32.192   0.282  1.00  0.00     0.048 C 
HETATM   15  C   UNL     1      45.780 -32.759   0.221  1.00  0.00     0.105 C 
HETATM   16  C   UNL     1      45.088 -32.990   1.414  1.00  0.00     0.147 C 
HETATM   17  C   UNL     1      45.722 -32.840   2.646  1.00  0.00     0.105 C 
HETATM   18  C   UNL     1      47.016 -32.317   2.698  1.00  0.00     0.048 C 
BRANCH  15  19
HETATM   19  O   UNL     1      45.130 -33.054  -0.949  1.00  0.00    -0.353 OA
HETATM   20  C   UNL     1      44.878 -31.939  -1.797  1.00  0.00     0.210 C 
ENDBRANCH  15  19
BRANCH  16  21
HETATM   21  O   UNL     1      43.756 -33.420   1.404  1.00  0.00    -0.256 OA
BRANCH  21  22
HETATM   22  C   UNL     1      42.847 -32.378   1.568  1.00  0.00     0.368 C 
HETATM   23  N   UNL     1      41.705 -32.778   2.242  1.00  0.00    -0.324 N 
HETATM   24  C   UNL     1      41.658 -33.943   3.123  1.00  0.00     0.154 C 
HETATM   25  C   UNL     1      40.602 -31.841   2.433  1.00  0.00     0.154 C 
HETATM   26  C   UNL     1      41.508 -33.479   4.581  1.00  0.00     0.187 C 
HETATM   27  O   UNL     1      40.363 -32.622   4.737  1.00  0.00    -0.388 OA
HETATM   28  C   UNL     1      40.483 -31.451   3.908  1.00  0.00     0.187 C 
HETATM   29  O   UNL     1      43.007 -31.227   1.166  1.00  0.00    -0.238 OA
ENDBRANCH  21  22
ENDBRANCH  16  21
BRANCH  17  30
HETATM   30  O   UNL     1      45.022 -33.131   3.788  1.00  0.00    -0.353 OA
HETATM   31  C   UNL     1      44.983 -32.015   4.676  1.00  0.00     0.210 C 
ENDBRANCH  17  30
ENDBRANCH   1  13
BRANCH   5  32
HETATM   32  N   UNL     1      51.237 -31.976   4.706  1.00  0.00    -0.282 NA
HETATM   33  H   UNL     1      52.046 -31.420   4.975  1.00  0.00     0.126 HD
HETATM   34  H   UNL     1      51.492 -32.919   4.420  1.00  0.00     0.126 HD
ENDBRANCH   5  32
BRANCH  12  35
HETATM   35  C   UNL     1      47.324 -28.540   0.355  1.00  0.00    -0.005 A 
HETATM   36  C   UNL     1      45.926 -28.456   0.317  1.00  0.00     0.015 A 
HETATM   37  C   UNL     1      45.257 -28.314  -0.903  1.00  0.00     0.020 A 
HETATM   38  C   UNL     1      45.983 -28.263  -2.091  1.00  0.00     0.011 A 
HETATM   39 BR   UNL     1      45.075 -28.080  -3.739  1.00  0.00    -0.051 Br
HETATM   40  C   UNL     1      47.371 -28.357  -2.074  1.00  0.00     0.020 A 
HETATM   41  C   UNL     1      48.038 -28.497  -0.854  1.00  0.00     0.015 A 
ENDBRANCH  12  35
TORSDOF 7
ENDMDL
MODEL 8
REMARK VINA RESULT:      -6.8      3.685      7.646
REMARK  7 active torsions:
REMARK  status: ('A' for Active; 'I' for Inactive)
REMARK    1  A    between atoms: O_2  and  C_3 
REMARK    2  A    between atoms: C_4  and  O_5 
REMARK    3  A    between atoms: O_5  and  C_6 
REMARK       I    between atoms: C_6  and  N_7 
REMARK    4  A    between atoms: C_14  and  O_15 
REMARK    5  A    between atoms: C_18  and  C_19 
REMARK    6  A    between atoms: C_23  and  N_24 
REMARK    7  A    between atoms: C_31  and  C_32 
ROOT
HETATM    1  C   UNL     1      41.689 -12.547   3.350  1.00  0.00     0.106 A 
HETATM    2  C   UNL     1      40.952 -13.242   2.194  1.00  0.00     0.081 A 
HETATM    3  C   UNL     1      40.976 -12.582   0.931  1.00  0.00     0.100 C 
HETATM    4  N   UNL     1      41.018 -12.040  -0.095  1.00  0.00    -0.191 NA
HETATM    5  C   UNL     1      40.355 -14.459   2.321  1.00  0.00     0.140 A 
HETATM    6  O   UNL     1      40.388 -15.180   3.523  1.00  0.00    -0.279 OA
HETATM    7  C   UNL     1      41.112 -14.657   4.504  1.00  0.00     0.175 A 
HETATM    8  C   UNL     1      41.768 -13.453   4.532  1.00  0.00     0.040 A 
HETATM    9  N   UNL     1      41.329 -15.258   5.699  1.00  0.00    -0.256 N 
HETATM   10  H   UNL     1      40.996 -16.160   6.019  1.00  0.00     0.191 HD
HETATM   11  N   UNL     1      42.086 -14.512   6.523  1.00  0.00    -0.172 NA
HETATM   12  C   UNL     1      42.394 -13.408   5.812  1.00  0.00     0.099 A 
ENDROOT
BRANCH   1  13
HETATM   13  C   UNL     1      40.989 -11.255   3.775  1.00  0.00    -0.039 C 
HETATM   14  C   UNL     1      41.428  -9.968   3.396  1.00  0.00     0.048 C 
HETATM   15  C   UNL     1      40.834  -8.814   3.917  1.00  0.00     0.105 C 
HETATM   16  C   UNL     1      39.860  -8.947   4.912  1.00  0.00     0.147 C 
HETATM   17  C   UNL     1      39.352 -10.200   5.247  1.00  0.00     0.105 C 
HETATM   18  C   UNL     1      39.918 -11.348   4.689  1.00  0.00     0.048 C 
BRANCH  15  19
HETATM   19  O   UNL     1      41.188  -7.541   3.551  1.00  0.00    -0.353 OA
HETATM   20  C   UNL     1      40.505  -7.028   2.413  1.00  0.00     0.210 C 
ENDBRANCH  15  19
BRANCH  16  21
HETATM   21  O   UNL     1      39.339  -7.824   5.566  1.00  0.00    -0.256 OA
BRANCH  21  22
HETATM   22  C   UNL     1      40.203  -7.305   6.527  1.00  0.00     0.368 C 
HETATM   23  N   UNL     1      40.410  -5.945   6.368  1.00  0.00    -0.324 N 
HETATM   24  C   UNL     1      39.478  -5.067   5.664  1.00  0.00     0.154 C 
HETATM   25  C   UNL     1      41.353  -5.243   7.232  1.00  0.00     0.154 C 
HETATM   26  C   UNL     1      38.789  -4.133   6.672  1.00  0.00     0.187 C 
HETATM   27  O   UNL     1      39.757  -3.403   7.448  1.00  0.00    -0.388 OA
HETATM   28  C   UNL     1      40.607  -4.303   8.183  1.00  0.00     0.187 C 
HETATM   29  O   UNL     1      40.742  -7.955   7.420  1.00  0.00    -0.238 OA
ENDBRANCH  21  22
ENDBRANCH  16  21
BRANCH  17  30
HETATM   30  O   UNL     1      38.359 -10.279   6.189  1.00  0.00    -0.353 OA
HETATM   31  C   UNL     1      38.841 -10.831   7.413  1.00  0.00     0.210 C 
ENDBRANCH  17  30
ENDBRANCH   1  13
BRANCH   5  32
HETATM   32  N   UNL     1      39.678 -15.122   1.321  1.00  0.00    -0.282 NA
HETATM   33  H   UNL     1      38.923 -15.727   1.636  1.00  0.00     0.126 HD
HETATM   34  H   UNL     1      40.314 -15.596   0.683  1.00  0.00     0.126 HD
ENDBRANCH   5  32
BRANCH  12  35
HETATM   35  C   UNL     1      43.230 -12.363   6.402  1.00  0.00    -0.005 A 
HETATM   36  C   UNL     1      44.619 -12.509   6.510  1.00  0.00     0.015 A 
HETATM   37  C   UNL     1      45.396 -11.497   7.083  1.00  0.00     0.020 A 
HETATM   38  C   UNL     1      44.786 -10.338   7.558  1.00  0.00     0.011 A 
HETATM   39 BR   UNL     1      45.838  -8.976   8.340  1.00  0.00    -0.051 Br
HETATM   40  C   UNL     1      43.406 -10.180   7.470  1.00  0.00     0.020 A 
HETATM   41  C   UNL     1      42.632 -11.191   6.895  1.00  0.00     0.015 A 
ENDBRANCH  12  35
TORSDOF 7
ENDMDL
MODEL 9
REMARK VINA RESULT:      -6.8      3.248      7.262
REMARK  7 active torsions:
REMARK  status: ('A' for Active; 'I' for Inactive)
REMARK    1  A    between atoms: O_2  and  C_3 
REMARK    2  A    between atoms: C_4  and  O_5 
REMARK    3  A    between atoms: O_5  and  C_6 
REMARK       I    between atoms: C_6  and  N_7 
REMARK    4  A    between atoms: C_14  and  O_15 
REMARK    5  A    between atoms: C_18  and  C_19 
REMARK    6  A    between atoms: C_23  and  N_24 
REMARK    7  A    between atoms: C_31  and  C_32 
ROOT
HETATM    1  C   UNL     1      40.870 -12.645   0.036  1.00  0.00     0.106 A 
HETATM    2  C   UNL     1      40.460 -12.515  -1.439  1.00  0.00     0.081 A 
HETATM    3  C   UNL     1      40.955 -11.378  -2.143  1.00  0.00     0.100 C 
HETATM    4  N   UNL     1      41.378 -10.455  -2.706  1.00  0.00    -0.191 NA
HETATM    5  C   UNL     1      39.721 -13.455  -2.089  1.00  0.00     0.140 A 
HETATM    6  O   UNL     1      39.292 -14.631  -1.455  1.00  0.00    -0.279 OA
HETATM    7  C   UNL     1      39.725 -14.823  -0.216  1.00  0.00     0.175 A 
HETATM    8  C   UNL     1      40.471 -13.981   0.569  1.00  0.00     0.040 A 
HETATM    9  N   UNL     1      39.487 -15.940   0.513  1.00  0.00    -0.256 N 
HETATM   10  H   UNL     1      38.970 -16.769   0.242  1.00  0.00     0.191 HD
HETATM   11  N   UNL     1      40.024 -15.879   1.744  1.00  0.00    -0.172 NA
HETATM   12  C   UNL     1      40.663 -14.692   1.788  1.00  0.00     0.099 A 
ENDROOT
BRANCH   1  13
HETATM   13  C   UNL     1      40.222 -11.564   0.904  1.00  0.00    -0.039 C 
HETATM   14  C   UNL     1      38.895 -11.115   0.729  1.00  0.00     0.048 C 
HETATM   15  C   UNL     1      38.390 -10.034   1.460  1.00  0.00     0.105 C 
HETATM   16  C   UNL     1      39.256  -9.324   2.296  1.00  0.00     0.147 C 
HETATM   17  C   UNL     1      40.545  -9.789   2.549  1.00  0.00     0.105 C 
HETATM   18  C   UNL     1      41.028 -10.898   1.850  1.00  0.00     0.048 C 
BRANCH  15  19
HETATM   19  O   UNL     1      37.099  -9.585   1.365  1.00  0.00    -0.353 OA
HETATM   20  C   UNL     1      36.221 -10.425   0.624  1.00  0.00     0.210 C 
ENDBRANCH  15  19
BRANCH  16  21
HETATM   21  O   UNL     1      38.839  -8.151   2.938  1.00  0.00    -0.256 OA
BRANCH  21  22
HETATM   22  C   UNL     1      38.534  -8.345   4.282  1.00  0.00     0.368 C 
HETATM   23  N   UNL     1      39.049  -7.344   5.088  1.00  0.00    -0.324 N 
HETATM   24  C   UNL     1      39.390  -6.011   4.596  1.00  0.00     0.154 C 
HETATM   25  C   UNL     1      38.902  -7.425   6.538  1.00  0.00     0.154 C 
HETATM   26  C   UNL     1      38.394  -4.985   5.157  1.00  0.00     0.187 C 
HETATM   27  O   UNL     1      38.340  -5.046   6.594  1.00  0.00    -0.388 OA
HETATM   28  C   UNL     1      37.929  -6.352   7.036  1.00  0.00     0.187 C 
HETATM   29  O   UNL     1      37.891  -9.291   4.734  1.00  0.00    -0.238 OA
ENDBRANCH  21  22
ENDBRANCH  16  21
BRANCH  17  30
HETATM   30  O   UNL     1      41.341  -9.091   3.419  1.00  0.00    -0.353 OA
HETATM   31  C   UNL     1      41.939  -9.952   4.387  1.00  0.00     0.210 C 
ENDBRANCH  17  30
ENDBRANCH   1  13
BRANCH   5  32
HETATM   32  N   UNL     1      39.322 -13.385  -3.406  1.00  0.00    -0.282 NA
HETATM   33  H   UNL     1      39.740 -14.078  -4.023  1.00  0.00     0.126 HD
HETATM   34  H   UNL     1      39.400 -12.440  -3.775  1.00  0.00     0.126 HD
ENDBRANCH   5  32
BRANCH  12  35
HETATM   35  C   UNL     1      41.383 -14.289   2.996  1.00  0.00    -0.005 A 
HETATM   36  C   UNL     1      40.727 -14.148   4.227  1.00  0.00     0.015 A 
HETATM   37  C   UNL     1      41.436 -13.756   5.367  1.00  0.00     0.020 A 
HETATM   38  C   UNL     1      42.802 -13.495   5.280  1.00  0.00     0.011 A 
HETATM   39 BR   UNL     1      43.756 -12.956   6.821  1.00  0.00    -0.051 Br
HETATM   40  C   UNL     1      43.468 -13.617   4.063  1.00  0.00     0.020 A 
HETATM   41  C   UNL     1      42.757 -14.011   2.926  1.00  0.00     0.015 A 
ENDBRANCH  12  35
TORSDOF 7
ENDMDL
MODEL 10
REMARK VINA RESULT:      -6.6     17.204     19.976
REMARK  7 active torsions:
REMARK  status: ('A' for Active; 'I' for Inactive)
REMARK    1  A    between atoms: O_2  and  C_3 
REMARK    2  A    between atoms: C_4  and  O_5 
REMARK    3  A    between atoms: O_5  and  C_6 
REMARK       I    between atoms: C_6  and  N_7 
REMARK    4  A    between atoms: C_14  and  O_15 
REMARK    5  A    between atoms: C_18  and  C_19 
REMARK    6  A    between atoms: C_23  and  N_24 
REMARK    7  A    between atoms: C_31  and  C_32 
ROOT
HETATM    1  C   UNL     1      44.566 -31.579   0.346  1.00  0.00     0.106 A 
HETATM    2  C   UNL     1      43.130 -31.666   0.885  1.00  0.00     0.081 A 
HETATM    3  C   UNL     1      42.421 -32.876   0.627  1.00  0.00     0.100 C 
HETATM    4  N   UNL     1      41.863 -33.873   0.421  1.00  0.00    -0.191 NA
HETATM    5  C   UNL     1      42.558 -30.684   1.634  1.00  0.00     0.140 A 
HETATM    6  O   UNL     1      43.255 -29.518   1.986  1.00  0.00    -0.279 OA
HETATM    7  C   UNL     1      44.532 -29.465   1.630  1.00  0.00     0.175 A 
HETATM    8  C   UNL     1      45.248 -30.365   0.882  1.00  0.00     0.040 A 
HETATM    9  N   UNL     1      45.378 -28.461   1.963  1.00  0.00    -0.256 N 
HETATM   10  H   UNL     1      45.184 -27.633   2.514  1.00  0.00     0.191 HD
HETATM   11  N   UNL     1      46.614 -28.640   1.466  1.00  0.00    -0.172 NA
HETATM   12  C   UNL     1      46.565 -29.824   0.823  1.00  0.00     0.099 A 
ENDROOT
BRANCH   1  13
HETATM   13  C   UNL     1      44.596 -31.516  -1.182  1.00  0.00    -0.039 C 
HETATM   14  C   UNL     1      44.393 -30.329  -1.919  1.00  0.00     0.048 C 
HETATM   15  C   UNL     1      44.300 -30.346  -3.315  1.00  0.00     0.105 C 
HETATM   16  C   UNL     1      44.299 -31.579  -3.975  1.00  0.00     0.147 C 
HETATM   17  C   UNL     1      44.576 -32.757  -3.285  1.00  0.00     0.105 C 
HETATM   18  C   UNL     1      44.715 -32.728  -1.896  1.00  0.00     0.048 C 
BRANCH  15  19
HETATM   19  O   UNL     1      44.149 -29.221  -4.084  1.00  0.00    -0.353 OA
HETATM   20  C   UNL     1      45.079 -28.178  -3.814  1.00  0.00     0.210 C 
ENDBRANCH  15  19
BRANCH  16  21
HETATM   21  O   UNL     1      44.064 -31.658  -5.353  1.00  0.00    -0.256 OA
BRANCH  21  22
HETATM   22  C   UNL     1      45.233 -31.800  -6.096  1.00  0.00     0.368 C 
HETATM   23  N   UNL     1      45.117 -32.770  -7.079  1.00  0.00    -0.324 N 
HETATM   24  C   UNL     1      43.836 -33.206  -7.630  1.00  0.00     0.154 C 
HETATM   25  C   UNL     1      46.270 -33.118  -7.903  1.00  0.00     0.154 C 
HETATM   26  C   UNL     1      43.707 -32.718  -9.082  1.00  0.00     0.187 C 
HETATM   27  O   UNL     1      44.826 -33.151  -9.875  1.00  0.00    -0.388 OA
HETATM   28  C   UNL     1      46.061 -32.640  -9.342  1.00  0.00     0.187 C 
HETATM   29  O   UNL     1      46.268 -31.161  -5.920  1.00  0.00    -0.238 OA
ENDBRANCH  21  22
ENDBRANCH  16  21
BRANCH  17  30
HETATM   30  O   UNL     1      44.620 -33.936  -3.983  1.00  0.00    -0.353 OA
HETATM   31  C   UNL     1      45.871 -34.599  -3.812  1.00  0.00     0.210 C 
ENDBRANCH  17  30
ENDBRANCH   1  13
BRANCH   5  32
HETATM   32  N   UNL     1      41.275 -30.709   2.137  1.00  0.00    -0.282 NA
HETATM   33  H   UNL     1      40.536 -30.647   1.441  1.00  0.00     0.126 HD
HETATM   34  H   UNL     1      41.153 -30.040   2.894  1.00  0.00     0.126 HD
ENDBRANCH   5  32
BRANCH  12  35
HETATM   35  C   UNL     1      47.757 -30.351   0.159  1.00  0.00    -0.005 A 
HETATM   36  C   UNL     1      48.084 -29.990  -1.155  1.00  0.00     0.015 A 
HETATM   37  C   UNL     1      49.227 -30.512  -1.770  1.00  0.00     0.020 A 
HETATM   38  C   UNL     1      50.043 -31.403  -1.076  1.00  0.00     0.011 A 
HETATM   39 BR   UNL     1      51.582 -32.113  -1.913  1.00  0.00    -0.051 Br
HETATM   40  C   UNL     1      49.728 -31.783   0.225  1.00  0.00     0.020 A 
HETATM   41  C   UNL     1      48.587 -31.258   0.838  1.00  0.00     0.015 A 
ENDBRANCH  12  35
TORSDOF 7
ENDMDL
