MODEL 1
REMARK VINA RESULT:      -9.0      0.000      0.000
REMARK  6 active torsions:
REMARK  status: ('A' for Active; 'I' for Inactive)
REMARK    1  A    between atoms: C_4  and  C_5 
REMARK    2  A    between atoms: C_5  and  N_6 
REMARK    3  A    between atoms: C_10  and  C_11 
REMARK    4  A    between atoms: C_11  and  C_12 
REMARK    5  A    between atoms: N_21  and  C_22 
REMARK    6  A    between atoms: C_22  and  C_23 
ROOT
HETATM    1  C   UNL     1      41.708 -14.376   4.158  1.00  0.00     0.149 C 
HETATM    2  N   UNL     1      42.509 -13.745   3.120  1.00  0.00    -0.220 NA
HETATM    3  C   UNL     1      43.131 -12.608   3.595  1.00  0.00     0.304 C 
HETATM    4  O   UNL     1      43.963 -12.005   2.943  1.00  0.00    -0.253 OA
HETATM    5  N   UNL     1      42.630 -12.299   4.817  1.00  0.00    -0.270 N 
HETATM    6  C   UNL     1      41.705 -13.230   5.193  1.00  0.00     0.257 C 
HETATM    7  O   UNL     1      40.968 -13.172   6.167  1.00  0.00    -0.270 OA
HETATM    8  H   UNL     1      43.157 -14.338   2.605  1.00  0.00     0.134 HD
ENDROOT
BRANCH   1   9
HETATM    9  C   UNL     1      40.255 -14.727   3.694  1.00  0.00     0.028 C 
HETATM   10  C   UNL     1      40.165 -15.732   2.530  1.00  0.00     0.035 C 
HETATM   11  C   UNL     1      40.580 -15.145   1.190  1.00  0.00     0.235 C 
HETATM   12  N   UNL     1      39.724 -13.939   0.872  1.00  0.00    -0.067 N 
HETATM   13  H   UNL     1      38.768 -14.289   0.748  1.00  0.00     0.280 HD
HETATM   14  C   UNL     1      39.703 -12.896   1.963  1.00  0.00     0.235 C 
HETATM   15  C   UNL     1      39.381 -13.511   3.318  1.00  0.00     0.035 C 
BRANCH  12  16
HETATM   16  C   UNL     1      40.102 -13.277  -0.450  1.00  0.00     0.274 C 
BRANCH  16  17
HETATM   17  C   UNL     1      38.930 -12.862  -1.304  1.00  0.00    -0.026 A 
HETATM   18  C   UNL     1      38.398 -11.567  -1.143  1.00  0.00     0.016 A 
HETATM   19  C   UNL     1      37.279 -11.148  -1.872  1.00  0.00    -0.061 A 
HETATM   20  C   UNL     1      36.732  -9.757  -1.723  1.00  0.00     0.048 C 
HETATM   21  C   UNL     1      36.705 -12.024  -2.793  1.00  0.00     0.007 A 
HETATM   22  C   UNL     1      37.227 -13.304  -2.975  1.00  0.00     0.008 A 
HETATM   23  C   UNL     1      38.337 -13.741  -2.237  1.00  0.00    -0.054 A 
HETATM   24  C   UNL     1      38.869 -15.126  -2.505  1.00  0.00     0.049 C 
ENDBRANCH  16  17
ENDBRANCH  12  16
ENDBRANCH   1   9
BRANCH   1  25
HETATM   25  C   UNL     1      42.455 -15.611   4.663  1.00  0.00     0.067 A 
HETATM   26  N   UNL     1      42.167 -15.974   5.951  1.00  0.00    -0.263 NA
HETATM   27  C   UNL     1      42.807 -17.056   6.454  1.00  0.00     0.117 A 
HETATM   28  C   UNL     1      43.745 -17.786   5.750  1.00  0.00     0.019 A 
HETATM   29  C   UNL     1      44.046 -17.393   4.452  1.00  0.00     0.003 A 
HETATM   30  C   UNL     1      43.400 -16.290   3.897  1.00  0.00     0.030 A 
ENDBRANCH   1  25
BRANCH   5  31
HETATM   31  C   UNL     1      43.022 -11.126   5.582  1.00  0.00     0.168 C 
BRANCH  31  32
HETATM   32  C   UNL     1      44.063 -11.425   6.665  1.00  0.00     0.140 C 
HETATM   33  O   UNL     1      45.400 -11.289   6.150  1.00  0.00    -0.384 OA
HETATM   34  C   UNL     1      46.244 -10.829   7.220  1.00  0.00     0.168 C 
HETATM   35  C   UNL     1      45.366 -10.650   8.445  1.00  0.00     0.029 C 
HETATM   36  C   UNL     1      43.994 -10.469   7.843  1.00  0.00     0.036 C 
ENDBRANCH  31  32
ENDBRANCH   5  31
TORSDOF 6
ENDMDL
MODEL 2
REMARK VINA RESULT:      -9.0      1.956      7.119
REMARK  6 active torsions:
REMARK  status: ('A' for Active; 'I' for Inactive)
REMARK    1  A    between atoms: C_4  and  C_5 
REMARK    2  A    between atoms: C_5  and  N_6 
REMARK    3  A    between atoms: C_10  and  C_11 
REMARK    4  A    between atoms: C_11  and  C_12 
REMARK    5  A    between atoms: N_21  and  C_22 
REMARK    6  A    between atoms: C_22  and  C_23 
ROOT
HETATM    1  C   UNL     1      40.411 -12.696   2.208  1.00  0.00     0.149 C 
HETATM    2  N   UNL     1      39.824 -13.144   3.462  1.00  0.00    -0.220 NA
HETATM    3  C   UNL     1      40.254 -12.365   4.517  1.00  0.00     0.304 C 
HETATM    4  O   UNL     1      39.779 -12.467   5.634  1.00  0.00    -0.253 OA
HETATM    5  N   UNL     1      41.264 -11.562   4.101  1.00  0.00    -0.270 N 
HETATM    6  C   UNL     1      41.501 -11.759   2.770  1.00  0.00     0.257 C 
HETATM    7  O   UNL     1      42.430 -11.300   2.120  1.00  0.00    -0.270 OA
HETATM    8  H   UNL     1      38.815 -13.279   3.484  1.00  0.00     0.134 HD
ENDROOT
BRANCH   1   9
HETATM    9  C   UNL     1      41.038 -13.857   1.366  1.00  0.00     0.028 C 
HETATM   10  C   UNL     1      40.428 -15.249   1.614  1.00  0.00     0.035 C 
HETATM   11  C   UNL     1      40.817 -15.851   2.956  1.00  0.00     0.235 C 
HETATM   12  N   UNL     1      42.323 -15.944   3.058  1.00  0.00    -0.067 N 
HETATM   13  H   UNL     1      42.619 -16.619   2.344  1.00  0.00     0.280 HD
HETATM   14  C   UNL     1      43.039 -14.641   2.795  1.00  0.00     0.235 C 
HETATM   15  C   UNL     1      42.570 -13.999   1.496  1.00  0.00     0.035 C 
BRANCH  12  16
HETATM   16  C   UNL     1      42.791 -16.515   4.393  1.00  0.00     0.274 C 
BRANCH  16  17
HETATM   17  C   UNL     1      43.257 -17.948   4.337  1.00  0.00    -0.026 A 
HETATM   18  C   UNL     1      43.357 -18.580   3.080  1.00  0.00     0.016 A 
HETATM   19  C   UNL     1      43.734 -19.924   2.973  1.00  0.00    -0.061 A 
HETATM   20  C   UNL     1      43.872 -20.587   1.633  1.00  0.00     0.048 C 
HETATM   21  C   UNL     1      44.041 -20.635   4.133  1.00  0.00     0.007 A 
HETATM   22  C   UNL     1      43.960 -20.022   5.383  1.00  0.00     0.008 A 
HETATM   23  C   UNL     1      43.567 -18.681   5.504  1.00  0.00    -0.054 A 
HETATM   24  C   UNL     1      43.529 -18.071   6.882  1.00  0.00     0.049 C 
ENDBRANCH  16  17
ENDBRANCH  12  16
ENDBRANCH   1   9
BRANCH   1  25
HETATM   25  C   UNL     1      39.344 -11.937   1.418  1.00  0.00     0.067 A 
HETATM   26  N   UNL     1      39.700 -11.603   0.140  1.00  0.00    -0.263 NA
HETATM   27  C   UNL     1      38.798 -10.922  -0.604  1.00  0.00     0.117 A 
HETATM   28  C   UNL     1      37.560 -10.526  -0.133  1.00  0.00     0.019 A 
HETATM   29  C   UNL     1      37.221 -10.849   1.175  1.00  0.00     0.003 A 
HETATM   30  C   UNL     1      38.121 -11.559   1.967  1.00  0.00     0.030 A 
ENDBRANCH   1  25
BRANCH   5  31
HETATM   31  C   UNL     1      41.989 -10.650   4.972  1.00  0.00     0.168 C 
BRANCH  31  32
HETATM   32  C   UNL     1      43.117 -11.325   5.757  1.00  0.00     0.140 C 
HETATM   33  O   UNL     1      44.353 -11.297   5.019  1.00  0.00    -0.384 OA
HETATM   34  C   UNL     1      45.433 -11.207   5.964  1.00  0.00     0.168 C 
HETATM   35  C   UNL     1      44.819 -11.149   7.351  1.00  0.00     0.029 C 
HETATM   36  C   UNL     1      43.428 -10.635   7.073  1.00  0.00     0.036 C 
ENDBRANCH  31  32
ENDBRANCH   5  31
TORSDOF 6
ENDMDL
MODEL 3
REMARK VINA RESULT:      -8.9      2.705      8.037
REMARK  6 active torsions:
REMARK  status: ('A' for Active; 'I' for Inactive)
REMARK    1  A    between atoms: C_4  and  C_5 
REMARK    2  A    between atoms: C_5  and  N_6 
REMARK    3  A    between atoms: C_10  and  C_11 
REMARK    4  A    between atoms: C_11  and  C_12 
REMARK    5  A    between atoms: N_21  and  C_22 
REMARK    6  A    between atoms: C_22  and  C_23 
ROOT
HETATM    1  C   UNL     1      39.829 -11.668   3.058  1.00  0.00     0.149 C 
HETATM    2  N   UNL     1      41.124 -11.643   2.396  1.00  0.00    -0.220 NA
HETATM    3  C   UNL     1      41.040 -11.025   1.165  1.00  0.00     0.304 C 
HETATM    4  O   UNL     1      42.028 -10.762   0.502  1.00  0.00    -0.253 OA
HETATM    5  N   UNL     1      39.736 -10.830   0.847  1.00  0.00    -0.270 N 
HETATM    6  C   UNL     1      38.936 -11.274   1.862  1.00  0.00     0.257 C 
HETATM    7  O   UNL     1      37.718 -11.374   1.838  1.00  0.00    -0.270 OA
HETATM    8  H   UNL     1      41.917 -11.297   2.934  1.00  0.00     0.134 HD
ENDROOT
BRANCH   1   9
HETATM    9  C   UNL     1      39.444 -13.080   3.613  1.00  0.00     0.028 C 
HETATM   10  C   UNL     1      40.223 -13.526   4.865  1.00  0.00     0.035 C 
HETATM   11  C   UNL     1      41.668 -13.901   4.577  1.00  0.00     0.235 C 
HETATM   12  N   UNL     1      41.715 -15.005   3.544  1.00  0.00    -0.067 N 
HETATM   13  H   UNL     1      41.287 -15.828   3.983  1.00  0.00     0.280 HD
HETATM   14  C   UNL     1      40.949 -14.697   2.280  1.00  0.00     0.235 C 
HETATM   15  C   UNL     1      39.532 -14.229   2.586  1.00  0.00     0.035 C 
BRANCH  12  16
HETATM   16  C   UNL     1      43.139 -15.417   3.182  1.00  0.00     0.274 C 
BRANCH  16  17
HETATM   17  C   UNL     1      43.486 -16.846   3.518  1.00  0.00    -0.026 A 
HETATM   18  C   UNL     1      43.306 -17.838   2.532  1.00  0.00     0.016 A 
HETATM   19  C   UNL     1      43.563 -19.186   2.806  1.00  0.00    -0.061 A 
HETATM   20  C   UNL     1      43.402 -20.238   1.747  1.00  0.00     0.048 C 
HETATM   21  C   UNL     1      44.032 -19.542   4.071  1.00  0.00     0.007 A 
HETATM   22  C   UNL     1      44.228 -18.572   5.054  1.00  0.00     0.008 A 
HETATM   23  C   UNL     1      43.957 -17.221   4.796  1.00  0.00    -0.054 A 
HETATM   24  C   UNL     1      44.220 -16.220   5.892  1.00  0.00     0.049 C 
ENDBRANCH  16  17
ENDBRANCH  12  16
ENDBRANCH   1   9
BRANCH   1  25
HETATM   25  C   UNL     1      39.827 -10.607   4.159  1.00  0.00     0.067 A 
HETATM   26  N   UNL     1      41.061 -10.124   4.498  1.00  0.00    -0.263 NA
HETATM   27  C   UNL     1      41.120  -9.189   5.475  1.00  0.00     0.117 A 
HETATM   28  C   UNL     1      40.013  -8.724   6.158  1.00  0.00     0.019 A 
HETATM   29  C   UNL     1      38.768  -9.241   5.821  1.00  0.00     0.003 A 
HETATM   30  C   UNL     1      38.667 -10.198   4.814  1.00  0.00     0.030 A 
ENDBRANCH   1  25
BRANCH   5  31
HETATM   31  C   UNL     1      39.282 -10.254  -0.408  1.00  0.00     0.168 C 
BRANCH  31  32
HETATM   32  C   UNL     1      38.971 -11.300  -1.482  1.00  0.00     0.140 C 
HETATM   33  O   UNL     1      39.607 -12.556  -1.182  1.00  0.00    -0.384 OA
HETATM   34  C   UNL     1      38.765 -13.610  -1.679  1.00  0.00     0.168 C 
HETATM   35  C   UNL     1      37.536 -12.961  -2.290  1.00  0.00     0.029 C 
HETATM   36  C   UNL     1      37.491 -11.624  -1.593  1.00  0.00     0.036 C 
ENDBRANCH  31  32
ENDBRANCH   5  31
TORSDOF 6
ENDMDL
MODEL 4
REMARK VINA RESULT:      -8.8      1.453      2.443
REMARK  6 active torsions:
REMARK  status: ('A' for Active; 'I' for Inactive)
REMARK    1  A    between atoms: C_4  and  C_5 
REMARK    2  A    between atoms: C_5  and  N_6 
REMARK    3  A    between atoms: C_10  and  C_11 
REMARK    4  A    between atoms: C_11  and  C_12 
REMARK    5  A    between atoms: N_21  and  C_22 
REMARK    6  A    between atoms: C_22  and  C_23 
ROOT
HETATM    1  C   UNL     1      42.114 -13.507   4.201  1.00  0.00     0.149 C 
HETATM    2  N   UNL     1      42.872 -12.401   3.635  1.00  0.00    -0.220 NA
HETATM    3  C   UNL     1      43.917 -12.043   4.462  1.00  0.00     0.304 C 
HETATM    4  O   UNL     1      44.767 -11.240   4.119  1.00  0.00    -0.253 OA
HETATM    5  N   UNL     1      43.788 -12.677   5.653  1.00  0.00    -0.270 N 
HETATM    6  C   UNL     1      42.690 -13.489   5.633  1.00  0.00     0.257 C 
HETATM    7  O   UNL     1      42.211 -14.090   6.585  1.00  0.00    -0.270 OA
HETATM    8  H   UNL     1      43.174 -12.490   2.667  1.00  0.00     0.134 HD
ENDROOT
BRANCH   1   9
HETATM    9  C   UNL     1      40.568 -13.262   4.207  1.00  0.00     0.028 C 
HETATM   10  C   UNL     1      39.778 -14.040   3.138  1.00  0.00     0.035 C 
HETATM   11  C   UNL     1      39.979 -13.507   1.728  1.00  0.00     0.235 C 
HETATM   12  N   UNL     1      39.585 -12.047   1.672  1.00  0.00    -0.067 N 
HETATM   13  H   UNL     1      38.575 -12.015   1.849  1.00  0.00     0.280 HD
HETATM   14  C   UNL     1      40.270 -11.185   2.704  1.00  0.00     0.235 C 
HETATM   15  C   UNL     1      40.145 -11.781   4.101  1.00  0.00     0.035 C 
BRANCH  12  16
HETATM   16  C   UNL     1      39.786 -11.433   0.289  1.00  0.00     0.274 C 
BRANCH  16  17
HETATM   17  C   UNL     1      38.858 -11.961  -0.775  1.00  0.00    -0.026 A 
HETATM   18  C   UNL     1      39.121 -13.228  -1.337  1.00  0.00     0.016 A 
HETATM   19  C   UNL     1      38.322 -13.744  -2.365  1.00  0.00    -0.061 A 
HETATM   20  C   UNL     1      38.583 -15.105  -2.941  1.00  0.00     0.048 C 
HETATM   21  C   UNL     1      37.232 -12.998  -2.814  1.00  0.00     0.007 A 
HETATM   22  C   UNL     1      36.950 -11.750  -2.260  1.00  0.00     0.008 A 
HETATM   23  C   UNL     1      37.753 -11.215  -1.243  1.00  0.00    -0.054 A 
HETATM   24  C   UNL     1      37.375  -9.875  -0.666  1.00  0.00     0.049 C 
ENDBRANCH  16  17
ENDBRANCH  12  16
ENDBRANCH   1   9
BRANCH   1  25
HETATM   25  C   UNL     1      42.481 -14.784   3.444  1.00  0.00     0.067 A 
HETATM   26  N   UNL     1      42.181 -15.949   4.096  1.00  0.00    -0.263 NA
HETATM   27  C   UNL     1      42.493 -17.111   3.476  1.00  0.00     0.117 A 
HETATM   28  C   UNL     1      43.116 -17.179   2.246  1.00  0.00     0.019 A 
HETATM   29  C   UNL     1      43.439 -15.989   1.605  1.00  0.00     0.003 A 
HETATM   30  C   UNL     1      43.124 -14.773   2.208  1.00  0.00     0.030 A 
ENDBRANCH   1  25
BRANCH   5  31
HETATM   31  C   UNL     1      44.687 -12.483   6.779  1.00  0.00     0.168 C 
BRANCH  31  32
HETATM   32  C   UNL     1      44.527 -11.121   7.459  1.00  0.00     0.140 C 
HETATM   33  O   UNL     1      44.104 -11.271   8.827  1.00  0.00    -0.384 OA
HETATM   34  C   UNL     1      44.671 -10.191   9.589  1.00  0.00     0.168 C 
HETATM   35  C   UNL     1      45.507  -9.355   8.638  1.00  0.00     0.029 C 
HETATM   36  C   UNL     1      45.822 -10.331   7.532  1.00  0.00     0.036 C 
ENDBRANCH  31  32
ENDBRANCH   5  31
TORSDOF 6
ENDMDL
MODEL 5
REMARK VINA RESULT:      -8.7      2.406      7.814
REMARK  6 active torsions:
REMARK  status: ('A' for Active; 'I' for Inactive)
REMARK    1  A    between atoms: C_4  and  C_5 
REMARK    2  A    between atoms: C_5  and  N_6 
REMARK    3  A    between atoms: C_10  and  C_11 
REMARK    4  A    between atoms: C_11  and  C_12 
REMARK    5  A    between atoms: N_21  and  C_22 
REMARK    6  A    between atoms: C_22  and  C_23 
ROOT
HETATM    1  C   UNL     1      40.768 -12.673   4.681  1.00  0.00     0.149 C 
HETATM    2  N   UNL     1      42.174 -12.704   4.306  1.00  0.00    -0.220 NA
HETATM    3  C   UNL     1      42.373 -12.098   3.082  1.00  0.00     0.304 C 
HETATM    4  O   UNL     1      43.487 -11.880   2.641  1.00  0.00    -0.253 OA
HETATM    5  N   UNL     1      41.173 -11.858   2.498  1.00  0.00    -0.270 N 
HETATM    6  C   UNL     1      40.162 -12.259   3.324  1.00  0.00     0.257 C 
HETATM    7  O   UNL     1      38.972 -12.314   3.045  1.00  0.00    -0.270 OA
HETATM    8  H   UNL     1      42.849 -12.382   4.997  1.00  0.00     0.134 HD
ENDROOT
BRANCH   1   9
HETATM    9  C   UNL     1      40.220 -14.063   5.149  1.00  0.00     0.028 C 
HETATM   10  C   UNL     1      40.883 -14.636   6.415  1.00  0.00     0.035 C 
HETATM   11  C   UNL     1      42.300 -15.138   6.183  1.00  0.00     0.235 C 
HETATM   12  N   UNL     1      42.298 -16.196   5.102  1.00  0.00    -0.067 N 
HETATM   13  H   UNL     1      41.770 -16.991   5.479  1.00  0.00     0.280 HD
HETATM   14  C   UNL     1      41.635 -15.761   3.818  1.00  0.00     0.235 C 
HETATM   15  C   UNL     1      40.255 -15.170   4.073  1.00  0.00     0.035 C 
BRANCH  12  16
HETATM   16  C   UNL     1      43.694 -16.730   4.793  1.00  0.00     0.274 C 
BRANCH  16  17
HETATM   17  C   UNL     1      43.762 -18.219   4.564  1.00  0.00    -0.026 A 
HETATM   18  C   UNL     1      43.827 -18.700   3.240  1.00  0.00     0.016 A 
HETATM   19  C   UNL     1      43.840 -20.073   2.968  1.00  0.00    -0.061 A 
HETATM   20  C   UNL     1      43.941 -20.584   1.560  1.00  0.00     0.048 C 
HETATM   21  C   UNL     1      43.817 -20.974   4.034  1.00  0.00     0.007 A 
HETATM   22  C   UNL     1      43.766 -20.515   5.349  1.00  0.00     0.008 A 
HETATM   23  C   UNL     1      43.735 -19.142   5.633  1.00  0.00    -0.054 A 
HETATM   24  C   UNL     1      43.712 -18.714   7.078  1.00  0.00     0.049 C 
ENDBRANCH  16  17
ENDBRANCH  12  16
ENDBRANCH   1   9
BRANCH   1  25
HETATM   25  C   UNL     1      40.577 -11.600   5.754  1.00  0.00     0.067 A 
HETATM   26  N   UNL     1      39.290 -11.446   6.194  1.00  0.00    -0.263 NA
HETATM   27  C   UNL     1      39.060 -10.503   7.137  1.00  0.00     0.117 A 
HETATM   28  C   UNL     1      40.042  -9.680   7.652  1.00  0.00     0.019 A 
HETATM   29  C   UNL     1      41.340  -9.829   7.179  1.00  0.00     0.003 A 
HETATM   30  C   UNL     1      41.617 -10.796   6.216  1.00  0.00     0.030 A 
ENDBRANCH   1  25
BRANCH   5  31
HETATM   31  C   UNL     1      41.015 -11.280   1.173  1.00  0.00     0.168 C 
BRANCH  31  32
HETATM   32  C   UNL     1      41.130 -12.305   0.043  1.00  0.00     0.140 C 
HETATM   33  O   UNL     1      40.604 -13.584   0.446  1.00  0.00    -0.384 OA
HETATM   34  C   UNL     1      40.040 -14.219  -0.714  1.00  0.00     0.168 C 
HETATM   35  C   UNL     1      40.207 -13.263  -1.881  1.00  0.00     0.029 C 
HETATM   36  C   UNL     1      40.335 -11.926  -1.195  1.00  0.00     0.036 C 
ENDBRANCH  31  32
ENDBRANCH   5  31
TORSDOF 6
ENDMDL
MODEL 6
REMARK VINA RESULT:      -8.3      1.969      4.948
REMARK  6 active torsions:
REMARK  status: ('A' for Active; 'I' for Inactive)
REMARK    1  A    between atoms: C_4  and  C_5 
REMARK    2  A    between atoms: C_5  and  N_6 
REMARK    3  A    between atoms: C_10  and  C_11 
REMARK    4  A    between atoms: C_11  and  C_12 
REMARK    5  A    between atoms: N_21  and  C_22 
REMARK    6  A    between atoms: C_22  and  C_23 
ROOT
HETATM    1  C   UNL     1      42.531 -12.247   5.599  1.00  0.00     0.149 C 
HETATM    2  N   UNL     1      41.128 -12.623   5.508  1.00  0.00    -0.220 NA
HETATM    3  C   UNL     1      40.879 -13.781   6.218  1.00  0.00     0.304 C 
HETATM    4  O   UNL     1      39.749 -14.198   6.400  1.00  0.00    -0.253 OA
HETATM    5  N   UNL     1      42.055 -14.339   6.596  1.00  0.00    -0.270 N 
HETATM    6  C   UNL     1      43.097 -13.557   6.186  1.00  0.00     0.257 C 
HETATM    7  O   UNL     1      44.286 -13.840   6.241  1.00  0.00    -0.270 OA
HETATM    8  H   UNL     1      40.437 -11.903   5.713  1.00  0.00     0.134 HD
ENDROOT
BRANCH   1   9
HETATM    9  C   UNL     1      43.176 -11.920   4.211  1.00  0.00     0.028 C 
HETATM   10  C   UNL     1      42.574 -10.706   3.479  1.00  0.00     0.035 C 
HETATM   11  C   UNL     1      41.190 -10.968   2.907  1.00  0.00     0.235 C 
HETATM   12  N   UNL     1      41.241 -12.145   1.958  1.00  0.00    -0.067 N 
HETATM   13  H   UNL     1      41.826 -11.851   1.168  1.00  0.00     0.280 HD
HETATM   14  C   UNL     1      41.851 -13.390   2.555  1.00  0.00     0.235 C 
HETATM   15  C   UNL     1      43.194 -13.095   3.210  1.00  0.00     0.035 C 
BRANCH  12  16
HETATM   16  C   UNL     1      39.878 -12.487   1.364  1.00  0.00     0.274 C 
BRANCH  16  17
HETATM   17  C   UNL     1      39.874 -12.682  -0.131  1.00  0.00    -0.026 A 
HETATM   18  C   UNL     1      39.883 -11.545  -0.965  1.00  0.00     0.016 A 
HETATM   19  C   UNL     1      39.828 -11.668  -2.358  1.00  0.00    -0.061 A 
HETATM   20  C   UNL     1      39.870 -10.458  -3.246  1.00  0.00     0.048 C 
HETATM   21  C   UNL     1      39.792 -12.943  -2.924  1.00  0.00     0.007 A 
HETATM   22  C   UNL     1      39.795 -14.078  -2.115  1.00  0.00     0.008 A 
HETATM   23  C   UNL     1      39.833 -13.967  -0.717  1.00  0.00    -0.054 A 
HETATM   24  C   UNL     1      39.865 -15.235   0.098  1.00  0.00     0.049 C 
ENDBRANCH  16  17
ENDBRANCH  12  16
ENDBRANCH   1   9
BRANCH   1  25
HETATM   25  C   UNL     1      42.656 -11.073   6.571  1.00  0.00     0.067 A 
HETATM   26  N   UNL     1      43.888 -10.931   7.150  1.00  0.00    -0.263 NA
HETATM   27  C   UNL     1      44.053  -9.914   8.027  1.00  0.00     0.117 A 
HETATM   28  C   UNL     1      43.046  -9.039   8.384  1.00  0.00     0.019 A 
HETATM   29  C   UNL     1      41.792  -9.209   7.808  1.00  0.00     0.003 A 
HETATM   30  C   UNL     1      41.587 -10.240   6.894  1.00  0.00     0.030 A 
ENDBRANCH   1  25
BRANCH   5  31
HETATM   31  C   UNL     1      42.163 -15.600   7.312  1.00  0.00     0.168 C 
BRANCH  31  32
HETATM   32  C   UNL     1      42.475 -16.792   6.404  1.00  0.00     0.140 C 
HETATM   33  O   UNL     1      42.255 -16.461   5.020  1.00  0.00    -0.384 OA
HETATM   34  C   UNL     1      43.198 -17.205   4.230  1.00  0.00     0.168 C 
HETATM   35  C   UNL     1      44.057 -18.011   5.187  1.00  0.00     0.029 C 
HETATM   36  C   UNL     1      43.924 -17.239   6.476  1.00  0.00     0.036 C 
ENDBRANCH  31  32
ENDBRANCH   5  31
TORSDOF 6
ENDMDL
MODEL 7
REMARK VINA RESULT:      -8.1      2.361      8.198
REMARK  6 active torsions:
REMARK  status: ('A' for Active; 'I' for Inactive)
REMARK    1  A    between atoms: C_4  and  C_5 
REMARK    2  A    between atoms: C_5  and  N_6 
REMARK    3  A    between atoms: C_10  and  C_11 
REMARK    4  A    between atoms: C_11  and  C_12 
REMARK    5  A    between atoms: N_21  and  C_22 
REMARK    6  A    between atoms: C_22  and  C_23 
ROOT
HETATM    1  C   UNL     1      42.369 -13.706   3.940  1.00  0.00     0.149 C 
HETATM    2  N   UNL     1      41.022 -13.167   4.044  1.00  0.00    -0.220 NA
HETATM    3  C   UNL     1      40.247 -13.561   2.973  1.00  0.00     0.304 C 
HETATM    4  O   UNL     1      39.048 -13.347   2.928  1.00  0.00    -0.253 OA
HETATM    5  N   UNL     1      41.035 -14.142   2.035  1.00  0.00    -0.270 N 
HETATM    6  C   UNL     1      42.328 -14.182   2.472  1.00  0.00     0.257 C 
HETATM    7  O   UNL     1      43.308 -14.511   1.818  1.00  0.00    -0.270 OA
HETATM    8  H   UNL     1      40.533 -13.299   4.928  1.00  0.00     0.134 HD
ENDROOT
BRANCH   1   9
HETATM    9  C   UNL     1      43.486 -12.632   4.158  1.00  0.00     0.028 C 
HETATM   10  C   UNL     1      43.980 -12.486   5.610  1.00  0.00     0.035 C 
HETATM   11  C   UNL     1      42.976 -11.803   6.526  1.00  0.00     0.235 C 
HETATM   12  N   UNL     1      42.632 -10.435   5.979  1.00  0.00    -0.067 N 
HETATM   13  H   UNL     1      43.493  -9.879   6.032  1.00  0.00     0.280 HD
HETATM   14  C   UNL     1      42.170 -10.446   4.542  1.00  0.00     0.235 C 
HETATM   15  C   UNL     1      43.135 -11.217   3.651  1.00  0.00     0.035 C 
BRANCH  12  16
HETATM   16  C   UNL     1      41.605  -9.697   6.833  1.00  0.00     0.274 C 
BRANCH  16  17
HETATM   17  C   UNL     1      42.194  -8.743   7.841  1.00  0.00    -0.026 A 
HETATM   18  C   UNL     1      42.746  -9.265   9.029  1.00  0.00     0.016 A 
HETATM   19  C   UNL     1      43.258  -8.422  10.021  1.00  0.00    -0.061 A 
HETATM   20  C   UNL     1      43.874  -8.980  11.272  1.00  0.00     0.048 C 
HETATM   21  C   UNL     1      43.246  -7.043   9.811  1.00  0.00     0.007 A 
HETATM   22  C   UNL     1      42.716  -6.510   8.636  1.00  0.00     0.008 A 
HETATM   23  C   UNL     1      42.183  -7.344   7.642  1.00  0.00    -0.054 A 
HETATM   24  C   UNL     1      41.655  -6.705   6.383  1.00  0.00     0.049 C 
ENDBRANCH  16  17
ENDBRANCH  12  16
ENDBRANCH   1   9
BRANCH   1  25
HETATM   25  C   UNL     1      42.503 -14.869   4.924  1.00  0.00     0.067 A 
HETATM   26  N   UNL     1      41.597 -14.866   5.949  1.00  0.00    -0.263 NA
HETATM   27  C   UNL     1      41.675 -15.867   6.856  1.00  0.00     0.117 A 
HETATM   28  C   UNL     1      42.629 -16.865   6.815  1.00  0.00     0.019 A 
HETATM   29  C   UNL     1      43.559 -16.843   5.783  1.00  0.00     0.003 A 
HETATM   30  C   UNL     1      43.504 -15.833   4.825  1.00  0.00     0.030 A 
ENDBRANCH   1  25
BRANCH   5  31
HETATM   31  C   UNL     1      40.552 -14.623   0.751  1.00  0.00     0.168 C 
BRANCH  31  32
HETATM   32  C   UNL     1      40.133 -13.499  -0.201  1.00  0.00     0.140 C 
HETATM   33  O   UNL     1      41.158 -12.494  -0.301  1.00  0.00    -0.384 OA
HETATM   34  C   UNL     1      41.116 -11.946  -1.630  1.00  0.00     0.168 C 
HETATM   35  C   UNL     1      40.023 -12.677  -2.388  1.00  0.00     0.029 C 
HETATM   36  C   UNL     1      39.906 -13.974  -1.626  1.00  0.00     0.036 C 
ENDBRANCH  31  32
ENDBRANCH   5  31
TORSDOF 6
ENDMDL
MODEL 8
REMARK VINA RESULT:      -8.1     16.661     19.486
REMARK  6 active torsions:
REMARK  status: ('A' for Active; 'I' for Inactive)
REMARK    1  A    between atoms: C_4  and  C_5 
REMARK    2  A    between atoms: C_5  and  N_6 
REMARK    3  A    between atoms: C_10  and  C_11 
REMARK    4  A    between atoms: C_11  and  C_12 
REMARK    5  A    between atoms: N_21  and  C_22 
REMARK    6  A    between atoms: C_22  and  C_23 
ROOT
HETATM    1  C   UNL     1      48.598 -30.178   1.054  1.00  0.00     0.149 C 
HETATM    2  N   UNL     1      47.600 -31.146   0.625  1.00  0.00    -0.220 NA
HETATM    3  C   UNL     1      48.112 -31.991  -0.339  1.00  0.00     0.304 C 
HETATM    4  O   UNL     1      47.500 -32.968  -0.734  1.00  0.00    -0.253 OA
HETATM    5  N   UNL     1      49.314 -31.524  -0.756  1.00  0.00    -0.270 N 
HETATM    6  C   UNL     1      49.642 -30.394  -0.062  1.00  0.00     0.257 C 
HETATM    7  O   UNL     1      50.586 -29.649  -0.288  1.00  0.00    -0.270 OA
HETATM    8  H   UNL     1      47.107 -31.662   1.352  1.00  0.00     0.134 HD
ENDROOT
BRANCH   1   9
HETATM    9  C   UNL     1      48.071 -28.705   1.062  1.00  0.00     0.028 C 
HETATM   10  C   UNL     1      46.916 -28.428   2.044  1.00  0.00     0.035 C 
HETATM   11  C   UNL     1      45.590 -29.028   1.604  1.00  0.00     0.235 C 
HETATM   12  N   UNL     1      45.216 -28.498   0.238  1.00  0.00    -0.067 N 
HETATM   13  H   UNL     1      45.052 -27.492   0.354  1.00  0.00     0.280 HD
HETATM   14  C   UNL     1      46.291 -28.678  -0.806  1.00  0.00     0.235 C 
HETATM   15  C   UNL     1      47.638 -28.162  -0.317  1.00  0.00     0.035 C 
BRANCH  12  16
HETATM   16  C   UNL     1      43.905 -29.078  -0.284  1.00  0.00     0.274 C 
BRANCH  16  17
HETATM   17  C   UNL     1      44.062 -30.096  -1.387  1.00  0.00    -0.026 A 
HETATM   18  C   UNL     1      44.105 -29.647  -2.723  1.00  0.00     0.016 A 
HETATM   19  C   UNL     1      44.196 -30.551  -3.787  1.00  0.00    -0.061 A 
HETATM   20  C   UNL     1      44.275 -30.072  -5.208  1.00  0.00     0.048 C 
HETATM   21  C   UNL     1      44.275 -31.917  -3.511  1.00  0.00     0.007 A 
HETATM   22  C   UNL     1      44.247 -32.376  -2.195  1.00  0.00     0.008 A 
HETATM   23  C   UNL     1      44.138 -31.481  -1.121  1.00  0.00    -0.054 A 
HETATM   24  C   UNL     1      44.144 -32.042   0.278  1.00  0.00     0.049 C 
ENDBRANCH  16  17
ENDBRANCH  12  16
ENDBRANCH   1   9
BRANCH   1  25
HETATM   25  C   UNL     1      49.122 -30.599   2.428  1.00  0.00     0.067 A 
HETATM   26  N   UNL     1      48.379 -31.559   3.060  1.00  0.00    -0.263 NA
HETATM   27  C   UNL     1      48.791 -31.963   4.284  1.00  0.00     0.117 A 
HETATM   28  C   UNL     1      49.894 -31.442   4.932  1.00  0.00     0.019 A 
HETATM   29  C   UNL     1      50.626 -30.450   4.290  1.00  0.00     0.003 A 
HETATM   30  C   UNL     1      50.237 -30.016   3.025  1.00  0.00     0.030 A 
ENDBRANCH   1  25
BRANCH   5  31
HETATM   31  C   UNL     1      50.106 -32.141  -1.807  1.00  0.00     0.168 C 
BRANCH  31  32
HETATM   32  C   UNL     1      51.419 -32.747  -1.304  1.00  0.00     0.140 C 
HETATM   33  O   UNL     1      51.594 -34.088  -1.798  1.00  0.00    -0.384 OA
HETATM   34  C   UNL     1      53.002 -34.317  -1.975  1.00  0.00     0.168 C 
HETATM   35  C   UNL     1      53.722 -33.035  -1.595  1.00  0.00     0.029 C 
HETATM   36  C   UNL     1      52.649 -31.990  -1.776  1.00  0.00     0.036 C 
ENDBRANCH  31  32
ENDBRANCH   5  31
TORSDOF 6
ENDMDL
MODEL 9
REMARK VINA RESULT:      -8.1     16.839     19.743
REMARK  6 active torsions:
REMARK  status: ('A' for Active; 'I' for Inactive)
REMARK    1  A    between atoms: C_4  and  C_5 
REMARK    2  A    between atoms: C_5  and  N_6 
REMARK    3  A    between atoms: C_10  and  C_11 
REMARK    4  A    between atoms: C_11  and  C_12 
REMARK    5  A    between atoms: N_21  and  C_22 
REMARK    6  A    between atoms: C_22  and  C_23 
ROOT
HETATM    1  C   UNL     1      48.751 -30.247   0.280  1.00  0.00     0.149 C 
HETATM    2  N   UNL     1      47.725 -31.207  -0.098  1.00  0.00    -0.220 NA
HETATM    3  C   UNL     1      48.262 -32.242  -0.836  1.00  0.00     0.304 C 
HETATM    4  O   UNL     1      47.614 -33.230  -1.132  1.00  0.00    -0.253 OA
HETATM    5  N   UNL     1      49.539 -31.937  -1.176  1.00  0.00    -0.270 N 
HETATM    6  C   UNL     1      49.887 -30.727  -0.648  1.00  0.00     0.257 C 
HETATM    7  O   UNL     1      50.910 -30.099  -0.880  1.00  0.00    -0.270 OA
HETATM    8  H   UNL     1      47.113 -31.552   0.640  1.00  0.00     0.134 HD
ENDROOT
BRANCH   1   9
HETATM    9  C   UNL     1      48.356 -28.764  -0.025  1.00  0.00     0.028 C 
HETATM   10  C   UNL     1      47.257 -28.179   0.883  1.00  0.00     0.035 C 
HETATM   11  C   UNL     1      45.872 -28.734   0.592  1.00  0.00     0.235 C 
HETATM   12  N   UNL     1      45.510 -28.476  -0.853  1.00  0.00    -0.067 N 
HETATM   13  H   UNL     1      45.437 -27.458  -0.955  1.00  0.00     0.280 HD
HETATM   14  C   UNL     1      46.536 -28.973  -1.842  1.00  0.00     0.235 C 
HETATM   15  C   UNL     1      47.935 -28.490  -1.485  1.00  0.00     0.035 C 
BRANCH  12  16
HETATM   16  C   UNL     1      44.138 -29.032  -1.228  1.00  0.00     0.274 C 
BRANCH  16  17
HETATM   17  C   UNL     1      44.171 -30.194  -2.189  1.00  0.00    -0.026 A 
HETATM   18  C   UNL     1      44.147 -29.931  -3.574  1.00  0.00     0.016 A 
HETATM   19  C   UNL     1      44.123 -30.972  -4.508  1.00  0.00    -0.061 A 
HETATM   20  C   UNL     1      44.129 -30.692  -5.983  1.00  0.00     0.048 C 
HETATM   21  C   UNL     1      44.153 -32.291  -4.053  1.00  0.00     0.007 A 
HETATM   22  C   UNL     1      44.191 -32.569  -2.687  1.00  0.00     0.008 A 
HETATM   23  C   UNL     1      44.197 -31.534  -1.741  1.00  0.00    -0.054 A 
HETATM   24  C   UNL     1      44.270 -31.903  -0.282  1.00  0.00     0.049 C 
ENDBRANCH  16  17
ENDBRANCH  12  16
ENDBRANCH   1   9
BRANCH   1  25
HETATM   25  C   UNL     1      49.084 -30.451   1.759  1.00  0.00     0.067 A 
HETATM   26  N   UNL     1      48.128 -31.112   2.480  1.00  0.00    -0.263 NA
HETATM   27  C   UNL     1      48.365 -31.312   3.797  1.00  0.00     0.117 A 
HETATM   28  C   UNL     1      49.498 -30.864   4.448  1.00  0.00     0.019 A 
HETATM   29  C   UNL     1      50.450 -30.172   3.709  1.00  0.00     0.003 A 
HETATM   30  C   UNL     1      50.245 -29.956   2.349  1.00  0.00     0.030 A 
ENDBRANCH   1  25
BRANCH   5  31
HETATM   31  C   UNL     1      50.383 -32.783  -2.004  1.00  0.00     0.168 C 
BRANCH  31  32
HETATM   32  C   UNL     1      50.318 -32.438  -3.494  1.00  0.00     0.140 C 
HETATM   33  O   UNL     1      51.626 -32.479  -4.094  1.00  0.00    -0.384 OA
HETATM   34  C   UNL     1      51.475 -32.903  -5.460  1.00  0.00     0.168 C 
HETATM   35  C   UNL     1      49.998 -33.161  -5.695  1.00  0.00     0.029 C 
HETATM   36  C   UNL     1      49.484 -33.418  -4.300  1.00  0.00     0.036 C 
ENDBRANCH  31  32
ENDBRANCH   5  31
TORSDOF 6
ENDMDL
MODEL 10
REMARK VINA RESULT:      -8.1      3.537      7.298
REMARK  6 active torsions:
REMARK  status: ('A' for Active; 'I' for Inactive)
REMARK    1  A    between atoms: C_4  and  C_5 
REMARK    2  A    between atoms: C_5  and  N_6 
REMARK    3  A    between atoms: C_10  and  C_11 
REMARK    4  A    between atoms: C_11  and  C_12 
REMARK    5  A    between atoms: N_21  and  C_22 
REMARK    6  A    between atoms: C_22  and  C_23 
ROOT
HETATM    1  C   UNL     1      41.137  -9.881   5.838  1.00  0.00     0.149 C 
HETATM    2  N   UNL     1      40.106 -10.826   6.241  1.00  0.00    -0.220 NA
HETATM    3  C   UNL     1      39.524 -10.445   7.433  1.00  0.00     0.304 C 
HETATM    4  O   UNL     1      38.542 -11.007   7.883  1.00  0.00    -0.253 OA
HETATM    5  N   UNL     1      40.240  -9.432   7.980  1.00  0.00    -0.270 N 
HETATM    6  C   UNL     1      41.278  -9.095   7.158  1.00  0.00     0.257 C 
HETATM    7  O   UNL     1      42.191  -8.324   7.417  1.00  0.00    -0.270 OA
HETATM    8  H   UNL     1      39.405 -11.078   5.546  1.00  0.00     0.134 HD
ENDROOT
BRANCH   1   9
HETATM    9  C   UNL     1      42.485 -10.568   5.437  1.00  0.00     0.028 C 
HETATM   10  C   UNL     1      42.575 -11.029   3.970  1.00  0.00     0.035 C 
HETATM   11  C   UNL     1      41.724 -12.252   3.667  1.00  0.00     0.235 C 
HETATM   12  N   UNL     1      42.127 -13.395   4.572  1.00  0.00    -0.067 N 
HETATM   13  H   UNL     1      43.088 -13.643   4.311  1.00  0.00     0.280 HD
HETATM   14  C   UNL     1      42.115 -13.049   6.041  1.00  0.00     0.235 C 
HETATM   15  C   UNL     1      42.890 -11.768   6.320  1.00  0.00     0.035 C 
BRANCH  12  16
HETATM   16  C   UNL     1      41.294 -14.653   4.344  1.00  0.00     0.274 C 
BRANCH  16  17
HETATM   17  C   UNL     1      42.076 -15.845   3.851  1.00  0.00    -0.026 A 
HETATM   18  C   UNL     1      42.628 -16.733   4.796  1.00  0.00     0.016 A 
HETATM   19  C   UNL     1      43.406 -17.826   4.396  1.00  0.00    -0.061 A 
HETATM   20  C   UNL     1      43.966 -18.790   5.401  1.00  0.00     0.048 C 
HETATM   21  C   UNL     1      43.610 -18.049   3.033  1.00  0.00     0.007 A 
HETATM   22  C   UNL     1      43.060 -17.187   2.085  1.00  0.00     0.008 A 
HETATM   23  C   UNL     1      42.294 -16.079   2.475  1.00  0.00    -0.054 A 
HETATM   24  C   UNL     1      41.704 -15.206   1.397  1.00  0.00     0.049 C 
ENDBRANCH  16  17
ENDBRANCH  12  16
ENDBRANCH   1   9
BRANCH   1  25
HETATM   25  C   UNL     1      40.584  -9.017   4.703  1.00  0.00     0.067 A 
HETATM   26  N   UNL     1      39.487  -9.531   4.067  1.00  0.00    -0.263 NA
HETATM   27  C   UNL     1      38.961  -8.812   3.048  1.00  0.00     0.117 A 
HETATM   28  C   UNL     1      39.486  -7.613   2.606  1.00  0.00     0.019 A 
HETATM   29  C   UNL     1      40.615  -7.114   3.244  1.00  0.00     0.003 A 
HETATM   30  C   UNL     1      41.178  -7.822   4.303  1.00  0.00     0.030 A 
ENDBRANCH   1  25
BRANCH   5  31
HETATM   31  C   UNL     1      39.939  -8.826   9.267  1.00  0.00     0.168 C 
BRANCH  31  32
HETATM   32  C   UNL     1      40.676  -9.484  10.437  1.00  0.00     0.140 C 
HETATM   33  O   UNL     1      41.571  -8.554  11.076  1.00  0.00    -0.384 OA
HETATM   34  C   UNL     1      41.633  -8.885  12.473  1.00  0.00     0.168 C 
HETATM   35  C   UNL     1      40.704 -10.063  12.703  1.00  0.00     0.029 C 
HETATM   36  C   UNL     1      39.748  -9.958  11.541  1.00  0.00     0.036 C 
ENDBRANCH  31  32
ENDBRANCH   5  31
TORSDOF 6
ENDMDL
