MODEL 1
REMARK VINA RESULT:      -8.7      0.000      0.000
REMARK  6 active torsions:
REMARK  status: ('A' for Active; 'I' for Inactive)
REMARK    1  A    between atoms: C_2  and  C_3 
REMARK    2  A    between atoms: C_3  and  C_4 
REMARK    3  A    between atoms: C_4  and  C_5 
REMARK    4  A    between atoms: C_8  and  N_9 
REMARK       I    between atoms: N_9  and  C_10 
REMARK    5  A    between atoms: C_10  and  C_11 
REMARK    6  A    between atoms: N_16  and  C_17 
ROOT
HETATM    1  C   UNL     1      43.233 -11.859   6.877  1.00  0.00     0.098 A 
HETATM    2  C   UNL     1      41.993 -11.846   6.026  1.00  0.00     0.205 A 
HETATM    3  O   UNL     1      41.213 -10.899   6.024  1.00  0.00    -0.286 OA
HETATM    4  C   UNL     1      41.836 -13.016   5.184  1.00  0.00     0.087 A 
HETATM    5  C   UNL     1      42.751 -14.044   5.191  1.00  0.00     0.145 A 
HETATM    6  N   UNL     1      42.331 -14.984   4.263  1.00  0.00    -0.216 N 
HETATM    7  N   UNL     1      41.214 -14.534   3.613  1.00  0.00    -0.170 NA
HETATM    8  C   UNL     1      40.892 -13.378   4.208  1.00  0.00     0.069 A 
HETATM    9  C   UNL     1      39.684 -12.627   3.784  1.00  0.00     0.073 C 
HETATM   10  N   UNL     1      43.869 -14.013   5.957  1.00  0.00    -0.349 N 
HETATM   11  C   UNL     1      44.072 -12.915   6.773  1.00  0.00     0.111 A 
HETATM   12  H   UNL     1      44.676 -14.615   5.807  1.00  0.00     0.167 HD
ENDROOT
BRANCH   1  13
HETATM   13  C   UNL     1      43.634 -10.745   7.787  1.00  0.00     0.261 C 
HETATM   14  N   UNL     1      42.793 -10.546   8.863  1.00  0.00    -0.323 N 
HETATM   15  H   UNL     1      42.010 -11.192   8.965  1.00  0.00     0.169 HD
HETATM   16  O   UNL     1      44.625 -10.072   7.517  1.00  0.00    -0.267 OA
BRANCH  14  17
HETATM   17  C   UNL     1      42.836  -9.489   9.798  1.00  0.00     0.035 A 
HETATM   18  C   UNL     1      42.320  -8.216   9.560  1.00  0.00     0.030 A 
HETATM   19  C   UNL     1      42.344  -7.241  10.561  1.00  0.00     0.009 A 
HETATM   20  C   UNL     1      42.872  -7.524  11.825  1.00  0.00    -0.058 A 
HETATM   21  C   UNL     1      43.420  -8.791  12.055  1.00  0.00     0.009 A 
HETATM   22  C   UNL     1      43.409  -9.760  11.045  1.00  0.00     0.030 A 
BRANCH  20  23
HETATM   23  C   UNL     1      42.828  -6.487  12.921  1.00  0.00     0.038 C 
BRANCH  23  24
HETATM   24  C   UNL     1      43.255  -7.073  14.273  1.00  0.00     0.004 C 
BRANCH  24  25
HETATM   25  C   UNL     1      42.151  -6.939  15.320  1.00  0.00    -0.004 C 
HETATM   26  C   UNL     1      41.348  -8.225  15.443  1.00  0.00     0.005 C 
ENDBRANCH  24  25
ENDBRANCH  23  24
ENDBRANCH  20  23
ENDBRANCH  14  17
ENDBRANCH   1  13
BRANCH   6  27
HETATM   27  C   UNL     1      42.886 -16.254   3.928  1.00  0.00     0.060 A 
HETATM   28  C   UNL     1      43.639 -17.000   4.844  1.00  0.00     0.031 A 
HETATM   29  C   UNL     1      44.190 -18.229   4.465  1.00  0.00     0.002 A 
HETATM   30  C   UNL     1      43.983 -18.726   3.181  1.00  0.00     0.000 A 
HETATM   31  C   UNL     1      43.205 -18.008   2.275  1.00  0.00     0.002 A 
HETATM   32  C   UNL     1      42.652 -16.781   2.647  1.00  0.00     0.031 A 
ENDBRANCH   6  27
TORSDOF 6
ENDMDL
MODEL 2
REMARK VINA RESULT:      -8.5      1.784     10.326
REMARK  6 active torsions:
REMARK  status: ('A' for Active; 'I' for Inactive)
REMARK    1  A    between atoms: C_2  and  C_3 
REMARK    2  A    between atoms: C_3  and  C_4 
REMARK    3  A    between atoms: C_4  and  C_5 
REMARK    4  A    between atoms: C_8  and  N_9 
REMARK       I    between atoms: N_9  and  C_10 
REMARK    5  A    between atoms: C_10  and  C_11 
REMARK    6  A    between atoms: N_16  and  C_17 
ROOT
HETATM    1  C   UNL     1      42.955 -10.659   7.154  1.00  0.00     0.098 A 
HETATM    2  C   UNL     1      41.801  -9.709   6.992  1.00  0.00     0.205 A 
HETATM    3  O   UNL     1      41.178  -9.613   5.938  1.00  0.00    -0.286 OA
HETATM    4  C   UNL     1      41.466  -8.968   8.192  1.00  0.00     0.087 A 
HETATM    5  C   UNL     1      42.169  -9.130   9.364  1.00  0.00     0.145 A 
HETATM    6  N   UNL     1      41.584  -8.311  10.319  1.00  0.00    -0.216 N 
HETATM    7  N   UNL     1      40.478  -7.697   9.795  1.00  0.00    -0.170 NA
HETATM    8  C   UNL     1      40.444  -8.055   8.504  1.00  0.00     0.069 A 
HETATM    9  C   UNL     1      39.389  -7.524   7.606  1.00  0.00     0.073 C 
HETATM   10  N   UNL     1      43.192 -10.010   9.479  1.00  0.00    -0.349 N 
HETATM   11  C   UNL     1      43.547 -10.750   8.366  1.00  0.00     0.111 A 
HETATM   12  H   UNL     1      43.562 -10.336  10.371  1.00  0.00     0.167 HD
ENDROOT
BRANCH   1  13
HETATM   13  C   UNL     1      43.452 -11.563   6.073  1.00  0.00     0.261 C 
HETATM   14  N   UNL     1      42.474 -12.312   5.450  1.00  0.00    -0.323 N 
HETATM   15  H   UNL     1      41.511 -12.154   5.745  1.00  0.00     0.169 HD
HETATM   16  O   UNL     1      44.656 -11.617   5.838  1.00  0.00    -0.267 OA
BRANCH  14  17
HETATM   17  C   UNL     1      42.660 -13.345   4.506  1.00  0.00     0.035 A 
HETATM   18  C   UNL     1      42.911 -13.128   3.152  1.00  0.00     0.030 A 
HETATM   19  C   UNL     1      43.147 -14.204   2.291  1.00  0.00     0.009 A 
HETATM   20  C   UNL     1      43.152 -15.518   2.772  1.00  0.00    -0.058 A 
HETATM   21  C   UNL     1      42.869 -15.739   4.123  1.00  0.00     0.009 A 
HETATM   22  C   UNL     1      42.617 -14.661   4.979  1.00  0.00     0.030 A 
BRANCH  20  23
HETATM   23  C   UNL     1      43.480 -16.667   1.848  1.00  0.00     0.038 C 
BRANCH  23  24
HETATM   24  C   UNL     1      42.759 -17.953   2.268  1.00  0.00     0.004 C 
BRANCH  24  25
HETATM   25  C   UNL     1      43.746 -19.046   2.675  1.00  0.00    -0.004 C 
HETATM   26  C   UNL     1      43.480 -20.339   1.919  1.00  0.00     0.005 C 
ENDBRANCH  24  25
ENDBRANCH  23  24
ENDBRANCH  20  23
ENDBRANCH  14  17
ENDBRANCH   1  13
BRANCH   6  27
HETATM   27  C   UNL     1      41.963  -8.061  11.670  1.00  0.00     0.060 A 
HETATM   28  C   UNL     1      42.353  -6.790  12.108  1.00  0.00     0.031 A 
HETATM   29  C   UNL     1      42.746  -6.594  13.437  1.00  0.00     0.002 A 
HETATM   30  C   UNL     1      42.739  -7.658  14.336  1.00  0.00     0.000 A 
HETATM   31  C   UNL     1      42.318  -8.918  13.917  1.00  0.00     0.002 A 
HETATM   32  C   UNL     1      41.924  -9.119  12.593  1.00  0.00     0.031 A 
ENDBRANCH   6  27
TORSDOF 6
ENDMDL
MODEL 3
REMARK VINA RESULT:      -8.4      2.035     10.500
REMARK  6 active torsions:
REMARK  status: ('A' for Active; 'I' for Inactive)
REMARK    1  A    between atoms: C_2  and  C_3 
REMARK    2  A    between atoms: C_3  and  C_4 
REMARK    3  A    between atoms: C_4  and  C_5 
REMARK    4  A    between atoms: C_8  and  N_9 
REMARK       I    between atoms: N_9  and  C_10 
REMARK    5  A    between atoms: C_10  and  C_11 
REMARK    6  A    between atoms: N_16  and  C_17 
ROOT
HETATM    1  C   UNL     1      42.839 -11.555   6.111  1.00  0.00     0.098 A 
HETATM    2  C   UNL     1      44.238 -11.160   6.496  1.00  0.00     0.205 A 
HETATM    3  O   UNL     1      45.227 -11.673   5.979  1.00  0.00    -0.286 OA
HETATM    4  C   UNL     1      44.309 -10.099   7.482  1.00  0.00     0.087 A 
HETATM    5  C   UNL     1      43.176  -9.527   8.014  1.00  0.00     0.145 A 
HETATM    6  N   UNL     1      43.583  -8.534   8.892  1.00  0.00    -0.216 N 
HETATM    7  N   UNL     1      44.946  -8.414   8.866  1.00  0.00    -0.170 NA
HETATM    8  C   UNL     1      45.378  -9.392   8.057  1.00  0.00     0.069 A 
HETATM    9  C   UNL     1      46.831  -9.593   7.834  1.00  0.00     0.073 C 
HETATM   10  N   UNL     1      41.930  -9.894   7.629  1.00  0.00    -0.349 N 
HETATM   11  C   UNL     1      41.806 -10.897   6.684  1.00  0.00     0.111 A 
HETATM   12  H   UNL     1      41.095  -9.338   7.804  1.00  0.00     0.167 HD
ENDROOT
BRANCH   1  13
HETATM   13  C   UNL     1      42.514 -12.588   5.083  1.00  0.00     0.261 C 
HETATM   14  N   UNL     1      42.958 -13.860   5.381  1.00  0.00    -0.323 N 
HETATM   15  H   UNL     1      43.421 -13.991   6.281  1.00  0.00     0.169 HD
HETATM   16  O   UNL     1      41.932 -12.254   4.055  1.00  0.00    -0.267 OA
BRANCH  14  17
HETATM   17  C   UNL     1      42.926 -14.996   4.543  1.00  0.00     0.035 A 
HETATM   18  C   UNL     1      43.027 -14.942   3.153  1.00  0.00     0.030 A 
HETATM   19  C   UNL     1      43.050 -16.117   2.396  1.00  0.00     0.009 A 
HETATM   20  C   UNL     1      42.989 -17.370   3.016  1.00  0.00    -0.058 A 
HETATM   21  C   UNL     1      42.856 -17.424   4.407  1.00  0.00     0.009 A 
HETATM   22  C   UNL     1      42.816 -16.246   5.161  1.00  0.00     0.030 A 
BRANCH  20  23
HETATM   23  C   UNL     1      43.089 -18.633   2.194  1.00  0.00     0.038 C 
BRANCH  23  24
HETATM   24  C   UNL     1      44.236 -19.531   2.675  1.00  0.00     0.004 C 
BRANCH  24  25
HETATM   25  C   UNL     1      43.716 -20.832   3.285  1.00  0.00    -0.004 C 
HETATM   26  C   UNL     1      44.015 -20.901   4.775  1.00  0.00     0.005 C 
ENDBRANCH  24  25
ENDBRANCH  23  24
ENDBRANCH  20  23
ENDBRANCH  14  17
ENDBRANCH   1  13
BRANCH   6  27
HETATM   27  C   UNL     1      42.811  -7.689   9.743  1.00  0.00     0.060 A 
HETATM   28  C   UNL     1      41.813  -8.196  10.585  1.00  0.00     0.031 A 
HETATM   29  C   UNL     1      41.059  -7.328  11.382  1.00  0.00     0.002 A 
HETATM   30  C   UNL     1      41.303  -5.957  11.355  1.00  0.00     0.000 A 
HETATM   31  C   UNL     1      42.317  -5.448  10.547  1.00  0.00     0.002 A 
HETATM   32  C   UNL     1      43.074  -6.309   9.749  1.00  0.00     0.031 A 
ENDBRANCH   6  27
TORSDOF 6
ENDMDL
MODEL 4
REMARK VINA RESULT:      -8.3      1.800      2.954
REMARK  6 active torsions:
REMARK  status: ('A' for Active; 'I' for Inactive)
REMARK    1  A    between atoms: C_2  and  C_3 
REMARK    2  A    between atoms: C_3  and  C_4 
REMARK    3  A    between atoms: C_4  and  C_5 
REMARK    4  A    between atoms: C_8  and  N_9 
REMARK       I    between atoms: N_9  and  C_10 
REMARK    5  A    between atoms: C_10  and  C_11 
REMARK    6  A    between atoms: N_16  and  C_17 
ROOT
HETATM    1  C   UNL     1      42.654 -11.184   6.602  1.00  0.00     0.098 A 
HETATM    2  C   UNL     1      43.326 -12.517   6.783  1.00  0.00     0.205 A 
HETATM    3  O   UNL     1      44.042 -12.761   7.749  1.00  0.00    -0.286 OA
HETATM    4  C   UNL     1      43.012 -13.487   5.752  1.00  0.00     0.087 A 
HETATM    5  C   UNL     1      42.177 -13.184   4.701  1.00  0.00     0.145 A 
HETATM    6  N   UNL     1      42.059 -14.324   3.920  1.00  0.00    -0.216 N 
HETATM    7  N   UNL     1      42.738 -15.362   4.499  1.00  0.00    -0.170 NA
HETATM    8  C   UNL     1      43.350 -14.839   5.570  1.00  0.00     0.069 A 
HETATM    9  C   UNL     1      44.229 -15.682   6.418  1.00  0.00     0.073 C 
HETATM   10  N   UNL     1      41.573 -11.977   4.581  1.00  0.00    -0.349 N 
HETATM   11  C   UNL     1      41.831 -11.018   5.542  1.00  0.00     0.111 A 
HETATM   12  H   UNL     1      40.772 -11.802   3.976  1.00  0.00     0.167 HD
ENDROOT
BRANCH   1  13
HETATM   13  C   UNL     1      42.787 -10.044   7.559  1.00  0.00     0.261 C 
HETATM   14  N   UNL     1      42.769 -10.402   8.891  1.00  0.00    -0.323 N 
HETATM   15  H   UNL     1      42.713 -11.399   9.103  1.00  0.00     0.169 HD
HETATM   16  O   UNL     1      42.860  -8.898   7.125  1.00  0.00    -0.267 OA
BRANCH  14  17
HETATM   17  C   UNL     1      42.729  -9.540  10.008  1.00  0.00     0.035 A 
HETATM   18  C   UNL     1      43.773  -9.397  10.921  1.00  0.00     0.030 A 
HETATM   19  C   UNL     1      43.682  -8.474  11.967  1.00  0.00     0.009 A 
HETATM   20  C   UNL     1      42.550  -7.664  12.111  1.00  0.00    -0.058 A 
HETATM   21  C   UNL     1      41.489  -7.829  11.216  1.00  0.00     0.009 A 
HETATM   22  C   UNL     1      41.576  -8.766  10.180  1.00  0.00     0.030 A 
BRANCH  20  23
HETATM   23  C   UNL     1      42.493  -6.620  13.200  1.00  0.00     0.038 C 
BRANCH  23  24
HETATM   24  C   UNL     1      42.912  -7.196  14.559  1.00  0.00     0.004 C 
BRANCH  24  25
HETATM   25  C   UNL     1      41.822  -8.084  15.155  1.00  0.00    -0.004 C 
HETATM   26  C   UNL     1      41.296  -7.511  16.462  1.00  0.00     0.005 C 
ENDBRANCH  24  25
ENDBRANCH  23  24
ENDBRANCH  20  23
ENDBRANCH  14  17
ENDBRANCH   1  13
BRANCH   6  27
HETATM   27  C   UNL     1      41.364 -14.526   2.691  1.00  0.00     0.060 A 
HETATM   28  C   UNL     1      40.481 -15.597   2.505  1.00  0.00     0.031 A 
HETATM   29  C   UNL     1      39.843 -15.776   1.273  1.00  0.00     0.002 A 
HETATM   30  C   UNL     1      40.069 -14.884   0.228  1.00  0.00     0.000 A 
HETATM   31  C   UNL     1      40.918 -13.796   0.416  1.00  0.00     0.002 A 
HETATM   32  C   UNL     1      41.558 -13.611   1.643  1.00  0.00     0.031 A 
ENDBRANCH   6  27
TORSDOF 6
ENDMDL
MODEL 5
REMARK VINA RESULT:      -8.2      5.639     10.220
REMARK  6 active torsions:
REMARK  status: ('A' for Active; 'I' for Inactive)
REMARK    1  A    between atoms: C_2  and  C_3 
REMARK    2  A    between atoms: C_3  and  C_4 
REMARK    3  A    between atoms: C_4  and  C_5 
REMARK    4  A    between atoms: C_8  and  N_9 
REMARK       I    between atoms: N_9  and  C_10 
REMARK    5  A    between atoms: C_10  and  C_11 
REMARK    6  A    between atoms: N_16  and  C_17 
ROOT
HETATM    1  C   UNL     1      41.352 -13.873   1.624  1.00  0.00     0.098 A 
HETATM    2  C   UNL     1      41.932 -13.568   2.977  1.00  0.00     0.205 A 
HETATM    3  O   UNL     1      41.865 -12.450   3.480  1.00  0.00    -0.286 OA
HETATM    4  C   UNL     1      42.523 -14.712   3.644  1.00  0.00     0.087 A 
HETATM    5  C   UNL     1      42.548 -15.958   3.061  1.00  0.00     0.145 A 
HETATM    6  N   UNL     1      43.146 -16.828   3.960  1.00  0.00    -0.216 N 
HETATM    7  N   UNL     1      43.426 -16.174   5.130  1.00  0.00    -0.170 NA
HETATM    8  C   UNL     1      43.098 -14.893   4.914  1.00  0.00     0.069 A 
HETATM    9  C   UNL     1      43.319 -13.874   5.969  1.00  0.00     0.073 C 
HETATM   10  N   UNL     1      41.998 -16.201   1.847  1.00  0.00    -0.349 N 
HETATM   11  C   UNL     1      41.413 -15.146   1.171  1.00  0.00     0.111 A 
HETATM   12  H   UNL     1      41.775 -17.133   1.501  1.00  0.00     0.167 HD
ENDROOT
BRANCH   1  13
HETATM   13  C   UNL     1      40.649 -12.869   0.770  1.00  0.00     0.261 C 
HETATM   14  N   UNL     1      39.314 -13.134   0.545  1.00  0.00    -0.323 N 
HETATM   15  H   UNL     1      38.919 -13.952   1.009  1.00  0.00     0.169 HD
HETATM   16  O   UNL     1      41.283 -11.926   0.302  1.00  0.00    -0.267 OA
BRANCH  14  17
HETATM   17  C   UNL     1      38.442 -12.451  -0.330  1.00  0.00     0.035 A 
HETATM   18  C   UNL     1      37.833 -11.233  -0.030  1.00  0.00     0.030 A 
HETATM   19  C   UNL     1      37.031 -10.588  -0.977  1.00  0.00     0.009 A 
HETATM   20  C   UNL     1      36.836 -11.140  -2.248  1.00  0.00    -0.058 A 
HETATM   21  C   UNL     1      37.421 -12.377  -2.538  1.00  0.00     0.009 A 
HETATM   22  C   UNL     1      38.209 -13.029  -1.583  1.00  0.00     0.030 A 
BRANCH  20  23
HETATM   23  C   UNL     1      36.028 -10.399  -3.286  1.00  0.00     0.038 C 
BRANCH  23  24
HETATM   24  C   UNL     1      34.882  -9.604  -2.649  1.00  0.00     0.004 C 
BRANCH  24  25
HETATM   25  C   UNL     1      33.517 -10.149  -3.066  1.00  0.00    -0.004 C 
HETATM   26  C   UNL     1      33.660 -11.401  -3.919  1.00  0.00     0.005 C 
ENDBRANCH  24  25
ENDBRANCH  23  24
ENDBRANCH  20  23
ENDBRANCH  14  17
ENDBRANCH   1  13
BRANCH   6  27
HETATM   27  C   UNL     1      43.469 -18.210   3.824  1.00  0.00     0.060 A 
HETATM   28  C   UNL     1      43.399 -18.870   2.590  1.00  0.00     0.031 A 
HETATM   29  C   UNL     1      43.696 -20.234   2.505  1.00  0.00     0.002 A 
HETATM   30  C   UNL     1      44.077 -20.943   3.642  1.00  0.00     0.000 A 
HETATM   31  C   UNL     1      44.184 -20.287   4.866  1.00  0.00     0.002 A 
HETATM   32  C   UNL     1      43.889 -18.925   4.957  1.00  0.00     0.031 A 
ENDBRANCH   6  27
TORSDOF 6
ENDMDL
MODEL 6
REMARK VINA RESULT:      -7.8      5.506      9.674
REMARK  6 active torsions:
REMARK  status: ('A' for Active; 'I' for Inactive)
REMARK    1  A    between atoms: C_2  and  C_3 
REMARK    2  A    between atoms: C_3  and  C_4 
REMARK    3  A    between atoms: C_4  and  C_5 
REMARK    4  A    between atoms: C_8  and  N_9 
REMARK       I    between atoms: N_9  and  C_10 
REMARK    5  A    between atoms: C_10  and  C_11 
REMARK    6  A    between atoms: N_16  and  C_17 
ROOT
HETATM    1  C   UNL     1      42.181 -13.522   2.150  1.00  0.00     0.098 A 
HETATM    2  C   UNL     1      42.543 -13.446   3.608  1.00  0.00     0.205 A 
HETATM    3  O   UNL     1      42.473 -12.398   4.244  1.00  0.00    -0.286 OA
HETATM    4  C   UNL     1      42.926 -14.716   4.194  1.00  0.00     0.087 A 
HETATM    5  C   UNL     1      42.959 -15.875   3.454  1.00  0.00     0.145 A 
HETATM    6  N   UNL     1      43.330 -16.904   4.307  1.00  0.00    -0.216 N 
HETATM    7  N   UNL     1      43.453 -16.432   5.586  1.00  0.00    -0.170 NA
HETATM    8  C   UNL     1      43.261 -15.108   5.501  1.00  0.00     0.069 A 
HETATM    9  C   UNL     1      43.374 -14.255   6.710  1.00  0.00     0.073 C 
HETATM   10  N   UNL     1      42.607 -15.911   2.146  1.00  0.00    -0.349 N 
HETATM   11  C   UNL     1      42.225 -14.728   1.540  1.00  0.00     0.111 A 
HETATM   12  H   UNL     1      42.380 -16.766   1.643  1.00  0.00     0.167 HD
ENDROOT
BRANCH   1  13
HETATM   13  C   UNL     1      41.710 -12.357   1.343  1.00  0.00     0.261 C 
HETATM   14  N   UNL     1      41.017 -12.689   0.197  1.00  0.00    -0.323 N 
HETATM   15  H   UNL     1      40.851 -13.681   0.027  1.00  0.00     0.169 HD
HETATM   16  O   UNL     1      41.989 -11.218   1.708  1.00  0.00    -0.267 OA
BRANCH  14  17
HETATM   17  C   UNL     1      40.583 -11.816  -0.823  1.00  0.00     0.035 A 
HETATM   18  C   UNL     1      39.630 -10.815  -0.640  1.00  0.00     0.030 A 
HETATM   19  C   UNL     1      39.300  -9.948  -1.686  1.00  0.00     0.009 A 
HETATM   20  C   UNL     1      39.928 -10.055  -2.932  1.00  0.00    -0.058 A 
HETATM   21  C   UNL     1      40.860 -11.079  -3.126  1.00  0.00     0.009 A 
HETATM   22  C   UNL     1      41.177 -11.956  -2.083  1.00  0.00     0.030 A 
BRANCH  20  23
HETATM   23  C   UNL     1      39.616  -9.068  -4.031  1.00  0.00     0.038 C 
BRANCH  23  24
HETATM   24  C   UNL     1      40.256  -7.701  -3.762  1.00  0.00     0.004 C 
BRANCH  24  25
HETATM   25  C   UNL     1      41.736  -7.687  -4.139  1.00  0.00    -0.004 C 
HETATM   26  C   UNL     1      42.617  -7.492  -2.914  1.00  0.00     0.005 C 
ENDBRANCH  24  25
ENDBRANCH  23  24
ENDBRANCH  20  23
ENDBRANCH  14  17
ENDBRANCH   1  13
BRANCH   6  27
HETATM   27  C   UNL     1      43.569 -18.282   4.033  1.00  0.00     0.060 A 
HETATM   28  C   UNL     1      43.467 -18.810   2.739  1.00  0.00     0.031 A 
HETATM   29  C   UNL     1      43.681 -20.175   2.517  1.00  0.00     0.002 A 
HETATM   30  C   UNL     1      44.012 -21.015   3.578  1.00  0.00     0.000 A 
HETATM   31  C   UNL     1      44.151 -20.493   4.862  1.00  0.00     0.002 A 
HETATM   32  C   UNL     1      43.938 -19.132   5.089  1.00  0.00     0.031 A 
ENDBRANCH   6  27
TORSDOF 6
ENDMDL
MODEL 7
REMARK VINA RESULT:      -7.8      2.983     10.492
REMARK  6 active torsions:
REMARK  status: ('A' for Active; 'I' for Inactive)
REMARK    1  A    between atoms: C_2  and  C_3 
REMARK    2  A    between atoms: C_3  and  C_4 
REMARK    3  A    between atoms: C_4  and  C_5 
REMARK    4  A    between atoms: C_8  and  N_9 
REMARK       I    between atoms: N_9  and  C_10 
REMARK    5  A    between atoms: C_10  and  C_11 
REMARK    6  A    between atoms: N_16  and  C_17 
ROOT
HETATM    1  C   UNL     1      42.479 -10.866   5.489  1.00  0.00     0.098 A 
HETATM    2  C   UNL     1      43.954 -10.986   5.756  1.00  0.00     0.205 A 
HETATM    3  O   UNL     1      44.755 -11.285   4.874  1.00  0.00    -0.286 OA
HETATM    4  C   UNL     1      44.342 -10.670   7.117  1.00  0.00     0.087 A 
HETATM    5  C   UNL     1      43.416 -10.307   8.069  1.00  0.00     0.145 A 
HETATM    6  N   UNL     1      44.106 -10.043   9.243  1.00  0.00    -0.216 N 
HETATM    7  N   UNL     1      45.453 -10.155   9.030  1.00  0.00    -0.170 NA
HETATM    8  C   UNL     1      45.585 -10.583   7.767  1.00  0.00     0.069 A 
HETATM    9  C   UNL     1      46.929 -10.865   7.206  1.00  0.00     0.073 C 
HETATM   10  N   UNL     1      42.096 -10.190   7.787  1.00  0.00    -0.349 N 
HETATM   11  C   UNL     1      41.673 -10.471   6.501  1.00  0.00     0.111 A 
HETATM   12  H   UNL     1      41.432  -9.692   8.378  1.00  0.00     0.167 HD
ENDROOT
BRANCH   1  13
HETATM   13  C   UNL     1      41.850 -11.094   4.154  1.00  0.00     0.261 C 
HETATM   14  N   UNL     1      41.347 -12.365   3.961  1.00  0.00    -0.323 N 
HETATM   15  H   UNL     1      41.409 -13.012   4.747  1.00  0.00     0.169 HD
HETATM   16  O   UNL     1      41.851 -10.189   3.324  1.00  0.00    -0.267 OA
BRANCH  14  17
HETATM   17  C   UNL     1      40.834 -12.908   2.763  1.00  0.00     0.035 A 
HETATM   18  C   UNL     1      39.752 -12.373   2.065  1.00  0.00     0.030 A 
HETATM   19  C   UNL     1      39.343 -12.932   0.851  1.00  0.00     0.009 A 
HETATM   20  C   UNL     1      40.017 -14.030   0.304  1.00  0.00    -0.058 A 
HETATM   21  C   UNL     1      41.081 -14.588   1.020  1.00  0.00     0.009 A 
HETATM   22  C   UNL     1      41.478 -14.036   2.243  1.00  0.00     0.030 A 
BRANCH  20  23
HETATM   23  C   UNL     1      39.612 -14.581  -1.042  1.00  0.00     0.038 C 
BRANCH  23  24
HETATM   24  C   UNL     1      40.232 -13.777  -2.192  1.00  0.00     0.004 C 
BRANCH  24  25
HETATM   25  C   UNL     1      39.166 -13.057  -3.016  1.00  0.00    -0.004 C 
HETATM   26  C   UNL     1      37.768 -13.515  -2.631  1.00  0.00     0.005 C 
ENDBRANCH  24  25
ENDBRANCH  23  24
ENDBRANCH  20  23
ENDBRANCH  14  17
ENDBRANCH   1  13
BRANCH   6  27
HETATM   27  C   UNL     1      43.617  -9.691  10.535  1.00  0.00     0.060 A 
HETATM   28  C   UNL     1      43.251 -10.658  11.479  1.00  0.00     0.031 A 
HETATM   29  C   UNL     1      42.747 -10.270  12.725  1.00  0.00     0.002 A 
HETATM   30  C   UNL     1      42.620  -8.919  13.041  1.00  0.00     0.000 A 
HETATM   31  C   UNL     1      43.014  -7.950  12.121  1.00  0.00     0.002 A 
HETATM   32  C   UNL     1      43.518  -8.332  10.876  1.00  0.00     0.031 A 
ENDBRANCH   6  27
TORSDOF 6
ENDMDL
MODEL 8
REMARK VINA RESULT:      -7.8      1.733      2.267
REMARK  6 active torsions:
REMARK  status: ('A' for Active; 'I' for Inactive)
REMARK    1  A    between atoms: C_2  and  C_3 
REMARK    2  A    between atoms: C_3  and  C_4 
REMARK    3  A    between atoms: C_4  and  C_5 
REMARK    4  A    between atoms: C_8  and  N_9 
REMARK       I    between atoms: N_9  and  C_10 
REMARK    5  A    between atoms: C_10  and  C_11 
REMARK    6  A    between atoms: N_16  and  C_17 
ROOT
HETATM    1  C   UNL     1      43.205 -12.689   6.368  1.00  0.00     0.098 A 
HETATM    2  C   UNL     1      42.107 -12.647   5.343  1.00  0.00     0.205 A 
HETATM    3  O   UNL     1      41.413 -11.649   5.169  1.00  0.00    -0.286 OA
HETATM    4  C   UNL     1      41.980 -13.857   4.555  1.00  0.00     0.087 A 
HETATM    5  C   UNL     1      42.800 -14.944   4.757  1.00  0.00     0.145 A 
HETATM    6  N   UNL     1      42.446 -15.913   3.831  1.00  0.00    -0.216 N 
HETATM    7  N   UNL     1      41.473 -15.432   2.997  1.00  0.00    -0.170 NA
HETATM    8  C   UNL     1      41.162 -14.217   3.470  1.00  0.00     0.069 A 
HETATM    9  C   UNL     1      40.092 -13.414   2.829  1.00  0.00     0.073 C 
HETATM   10  N   UNL     1      43.794 -14.939   5.679  1.00  0.00    -0.349 N 
HETATM   11  C   UNL     1      43.964 -13.805   6.452  1.00  0.00     0.111 A 
HETATM   12  H   UNL     1      44.563 -15.606   5.686  1.00  0.00     0.167 HD
ENDROOT
BRANCH   1  13
HETATM   13  C   UNL     1      43.558 -11.546   7.264  1.00  0.00     0.261 C 
HETATM   14  N   UNL     1      42.502 -10.719   7.589  1.00  0.00    -0.323 N 
HETATM   15  H   UNL     1      41.582 -10.980   7.234  1.00  0.00     0.169 HD
HETATM   16  O   UNL     1      44.725 -11.390   7.611  1.00  0.00    -0.267 OA
BRANCH  14  17
HETATM   17  C   UNL     1      42.559  -9.495   8.289  1.00  0.00     0.035 A 
HETATM   18  C   UNL     1      42.781  -9.391   9.662  1.00  0.00     0.030 A 
HETATM   19  C   UNL     1      42.887  -8.137  10.272  1.00  0.00     0.009 A 
HETATM   20  C   UNL     1      42.788  -6.963   9.518  1.00  0.00    -0.058 A 
HETATM   21  C   UNL     1      42.533  -7.066   8.146  1.00  0.00     0.009 A 
HETATM   22  C   UNL     1      42.410  -8.322   7.541  1.00  0.00     0.030 A 
BRANCH  20  23
HETATM   23  C   UNL     1      42.977  -5.616  10.174  1.00  0.00     0.038 C 
BRANCH  23  24
HETATM   24  C   UNL     1      42.078  -5.457  11.407  1.00  0.00     0.004 C 
BRANCH  24  25
HETATM   25  C   UNL     1      40.602  -5.379  11.023  1.00  0.00    -0.004 C 
HETATM   26  C   UNL     1      40.164  -3.939  10.805  1.00  0.00     0.005 C 
ENDBRANCH  24  25
ENDBRANCH  23  24
ENDBRANCH  20  23
ENDBRANCH  14  17
ENDBRANCH   1  13
BRANCH   6  27
HETATM   27  C   UNL     1      42.940 -17.239   3.656  1.00  0.00     0.060 A 
HETATM   28  C   UNL     1      43.618 -17.919   4.676  1.00  0.00     0.031 A 
HETATM   29  C   UNL     1      44.113 -19.208   4.453  1.00  0.00     0.002 A 
HETATM   30  C   UNL     1      43.923 -19.831   3.221  1.00  0.00     0.000 A 
HETATM   31  C   UNL     1      43.218 -19.176   2.214  1.00  0.00     0.002 A 
HETATM   32  C   UNL     1      42.721 -17.889   2.431  1.00  0.00     0.031 A 
ENDBRANCH   6  27
TORSDOF 6
ENDMDL
MODEL 9
REMARK VINA RESULT:      -7.8     19.313     20.550
REMARK  6 active torsions:
REMARK  status: ('A' for Active; 'I' for Inactive)
REMARK    1  A    between atoms: C_2  and  C_3 
REMARK    2  A    between atoms: C_3  and  C_4 
REMARK    3  A    between atoms: C_4  and  C_5 
REMARK    4  A    between atoms: C_8  and  N_9 
REMARK       I    between atoms: N_9  and  C_10 
REMARK    5  A    between atoms: C_10  and  C_11 
REMARK    6  A    between atoms: N_16  and  C_17 
ROOT
HETATM    1  C   UNL     1      47.724 -29.852   2.588  1.00  0.00     0.098 A 
HETATM    2  C   UNL     1      46.265 -29.987   2.924  1.00  0.00     0.205 A 
HETATM    3  O   UNL     1      45.874 -30.177   4.073  1.00  0.00    -0.286 OA
HETATM    4  C   UNL     1      45.375 -29.821   1.792  1.00  0.00     0.087 A 
HETATM    5  C   UNL     1      45.851 -29.575   0.525  1.00  0.00     0.145 A 
HETATM    6  N   UNL     1      44.755 -29.438  -0.314  1.00  0.00    -0.216 N 
HETATM    7  N   UNL     1      43.597 -29.513   0.411  1.00  0.00    -0.170 NA
HETATM    8  C   UNL     1      43.975 -29.795   1.666  1.00  0.00     0.069 A 
HETATM    9  C   UNL     1      42.959 -30.000   2.727  1.00  0.00     0.073 C 
HETATM   10  N   UNL     1      47.173 -29.441   0.262  1.00  0.00    -0.349 N 
HETATM   11  C   UNL     1      48.066 -29.580   1.308  1.00  0.00     0.111 A 
HETATM   12  H   UNL     1      47.542 -29.018  -0.589  1.00  0.00     0.167 HD
ENDROOT
BRANCH   1  13
HETATM   13  C   UNL     1      48.825 -29.935   3.594  1.00  0.00     0.261 C 
HETATM   14  N   UNL     1      49.279 -31.213   3.851  1.00  0.00    -0.323 N 
HETATM   15  H   UNL     1      48.862 -31.971   3.309  1.00  0.00     0.169 HD
HETATM   16  O   UNL     1      49.220 -28.910   4.143  1.00  0.00    -0.267 OA
BRANCH  14  17
HETATM   17  C   UNL     1      50.198 -31.610   4.846  1.00  0.00     0.035 A 
HETATM   18  C   UNL     1      51.475 -31.071   4.988  1.00  0.00     0.030 A 
HETATM   19  C   UNL     1      52.304 -31.473   6.040  1.00  0.00     0.009 A 
HETATM   20  C   UNL     1      51.865 -32.412   6.980  1.00  0.00    -0.058 A 
HETATM   21  C   UNL     1      50.596 -32.978   6.820  1.00  0.00     0.009 A 
HETATM   22  C   UNL     1      49.775 -32.586   5.756  1.00  0.00     0.030 A 
BRANCH  20  23
HETATM   23  C   UNL     1      52.740 -32.784   8.153  1.00  0.00     0.038 C 
BRANCH  23  24
HETATM   24  C   UNL     1      53.563 -31.589   8.646  1.00  0.00     0.004 C 
BRANCH  24  25
HETATM   25  C   UNL     1      53.536 -31.474  10.169  1.00  0.00    -0.004 C 
HETATM   26  C   UNL     1      52.311 -32.162  10.752  1.00  0.00     0.005 C 
ENDBRANCH  24  25
ENDBRANCH  23  24
ENDBRANCH  20  23
ENDBRANCH  14  17
ENDBRANCH   1  13
BRANCH   6  27
HETATM   27  C   UNL     1      44.699 -29.237  -1.725  1.00  0.00     0.060 A 
HETATM   28  C   UNL     1      44.165 -30.200  -2.591  1.00  0.00     0.031 A 
HETATM   29  C   UNL     1      44.157 -29.976  -3.972  1.00  0.00     0.002 A 
HETATM   30  C   UNL     1      44.664 -28.788  -4.494  1.00  0.00     0.000 A 
HETATM   31  C   UNL     1      45.164 -27.810  -3.637  1.00  0.00     0.002 A 
HETATM   32  C   UNL     1      45.175 -28.028  -2.258  1.00  0.00     0.031 A 
ENDBRANCH   6  27
TORSDOF 6
ENDMDL
MODEL 10
REMARK VINA RESULT:      -7.7      3.164      5.076
REMARK  6 active torsions:
REMARK  status: ('A' for Active; 'I' for Inactive)
REMARK    1  A    between atoms: C_2  and  C_3 
REMARK    2  A    between atoms: C_3  and  C_4 
REMARK    3  A    between atoms: C_4  and  C_5 
REMARK    4  A    between atoms: C_8  and  N_9 
REMARK       I    between atoms: N_9  and  C_10 
REMARK    5  A    between atoms: C_10  and  C_11 
REMARK    6  A    between atoms: N_16  and  C_17 
ROOT
HETATM    1  C   UNL     1      40.988 -12.194   4.240  1.00  0.00     0.098 A 
HETATM    2  C   UNL     1      41.873 -13.265   3.667  1.00  0.00     0.205 A 
HETATM    3  O   UNL     1      42.811 -13.743   4.298  1.00  0.00    -0.286 OA
HETATM    4  C   UNL     1      41.489 -13.710   2.341  1.00  0.00     0.087 A 
HETATM    5  C   UNL     1      40.409 -13.172   1.680  1.00  0.00     0.145 A 
HETATM    6  N   UNL     1      40.294 -13.829   0.464  1.00  0.00    -0.216 N 
HETATM    7  N   UNL     1      41.229 -14.825   0.379  1.00  0.00    -0.170 NA
HETATM    8  C   UNL     1      41.977 -14.713   1.486  1.00  0.00     0.069 A 
HETATM    9  C   UNL     1      43.134 -15.615   1.703  1.00  0.00     0.073 C 
HETATM   10  N   UNL     1      39.621 -12.220   2.236  1.00  0.00    -0.349 N 
HETATM   11  C   UNL     1      39.937 -11.766   3.503  1.00  0.00     0.111 A 
HETATM   12  H   UNL     1      38.690 -11.984   1.895  1.00  0.00     0.167 HD
ENDROOT
BRANCH   1  13
HETATM   13  C   UNL     1      41.155 -11.612   5.606  1.00  0.00     0.261 C 
HETATM   14  N   UNL     1      42.352 -10.958   5.813  1.00  0.00    -0.323 N 
HETATM   15  H   UNL     1      42.988 -10.891   5.018  1.00  0.00     0.169 HD
HETATM   16  O   UNL     1      40.272 -11.777   6.444  1.00  0.00    -0.267 OA
BRANCH  14  17
HETATM   17  C   UNL     1      42.845 -10.443   7.032  1.00  0.00     0.035 A 
HETATM   18  C   UNL     1      42.281  -9.360   7.705  1.00  0.00     0.030 A 
HETATM   19  C   UNL     1      42.789  -8.949   8.941  1.00  0.00     0.009 A 
HETATM   20  C   UNL     1      43.862  -9.622   9.535  1.00  0.00    -0.058 A 
HETATM   21  C   UNL     1      44.450 -10.688   8.845  1.00  0.00     0.009 A 
HETATM   22  C   UNL     1      43.949 -11.087   7.600  1.00  0.00     0.030 A 
BRANCH  20  23
HETATM   23  C   UNL     1      44.356  -9.215  10.902  1.00  0.00     0.038 C 
BRANCH  23  24
HETATM   24  C   UNL     1      43.291  -8.431  11.678  1.00  0.00     0.004 C 
BRANCH  24  25
HETATM   25  C   UNL     1      42.706  -9.255  12.824  1.00  0.00    -0.004 C 
HETATM   26  C   UNL     1      41.341  -9.817  12.459  1.00  0.00     0.005 C 
ENDBRANCH  24  25
ENDBRANCH  23  24
ENDBRANCH  20  23
ENDBRANCH  14  17
ENDBRANCH   1  13
BRANCH   6  27
HETATM   27  C   UNL     1      39.386 -13.612  -0.613  1.00  0.00     0.060 A 
HETATM   28  C   UNL     1      38.640 -12.432  -0.729  1.00  0.00     0.031 A 
HETATM   29  C   UNL     1      37.737 -12.272  -1.786  1.00  0.00     0.002 A 
HETATM   30  C   UNL     1      37.585 -13.277  -2.739  1.00  0.00     0.000 A 
HETATM   31  C   UNL     1      38.349 -14.439  -2.651  1.00  0.00     0.002 A 
HETATM   32  C   UNL     1      39.252 -14.604  -1.599  1.00  0.00     0.031 A 
ENDBRANCH   6  27
TORSDOF 6
ENDMDL
