MODEL 1
REMARK VINA RESULT:      -9.3      0.000      0.000
REMARK  4 active torsions:
REMARK  status: ('A' for Active; 'I' for Inactive)
REMARK    1  A    between atoms: C_6  and  C_7 
REMARK    2  A    between atoms: C_10  and  N_11 
REMARK       I    between atoms: N_11  and  C_12 
REMARK    3  A    between atoms: C_24  and  C_25 
REMARK       I    between atoms: C_25  and  N_26 
REMARK    4  A    between atoms: N_26  and  C_27 
ROOT
HETATM    1  C   UNL     1      38.238 -11.279   3.054  1.00  0.00     0.070 C 
HETATM    2  C   UNL     1      39.630 -11.731   3.417  1.00  0.00     0.037 C 
HETATM    3  N   UNL     1      39.964 -11.598   4.762  1.00  0.00    -0.193 N 
HETATM    4  C   UNL     1      41.237 -11.563   5.204  1.00  0.00     0.709 A 
HETATM    5  N   UNL     1      42.246 -11.936   4.352  1.00  0.00    -0.165 N 
HETATM    6  C   UNL     1      41.997 -12.444   2.997  1.00  0.00     0.182 C 
HETATM    7  N   UNL     1      41.701 -11.162   6.359  1.00  0.00    -0.062 NA
HETATM    8  C   UNL     1      43.071 -11.220   6.229  1.00  0.00     0.103 A 
HETATM    9  C   UNL     1      43.445 -11.693   4.971  1.00  0.00     0.082 A 
HETATM   10  C   UNL     1      44.068 -10.864   7.150  1.00  0.00     0.034 A 
HETATM   11  C   UNL     1      45.411 -10.988   6.773  1.00  0.00     0.002 A 
HETATM   12  C   UNL     1      45.757 -11.464   5.507  1.00  0.00     0.002 A 
HETATM   13  C   UNL     1      44.779 -11.832   4.576  1.00  0.00     0.032 A 
HETATM   14  C   UNL     1      40.574 -12.150   2.537  1.00  0.00     0.061 C 
HETATM   15  H   UNL     1      39.262 -11.189   5.375  1.00  0.00     0.184 HD
ENDROOT
BRANCH   6  16
HETATM   16  C   UNL     1      42.341 -13.931   2.928  1.00  0.00    -0.030 A 
HETATM   17  C   UNL     1      43.205 -14.447   1.949  1.00  0.00     0.012 A 
HETATM   18  C   UNL     1      43.450 -15.823   1.854  1.00  0.00     0.030 A 
HETATM   19  C   UNL     1      42.846 -16.712   2.741  1.00  0.00     0.034 A 
HETATM   20  C   UNL     1      42.018 -16.201   3.747  1.00  0.00     0.030 A 
HETATM   21  C   UNL     1      41.772 -14.827   3.845  1.00  0.00     0.012 A 
BRANCH  19  22
HETATM   22  N   UNL     1      42.992 -18.114   2.673  1.00  0.00    -0.328 N 
HETATM   23  C   UNL     1      43.870 -18.905   3.393  1.00  0.00     0.218 C 
HETATM   24  C   UNL     1      43.805 -20.354   2.977  1.00  0.00     0.117 C 
HETATM   25  O   UNL     1      44.621 -18.547   4.293  1.00  0.00    -0.274 OA
HETATM   26  H   UNL     1      42.397 -18.589   2.005  1.00  0.00     0.169 HD
ENDBRANCH  19  22
ENDBRANCH   6  16
BRANCH  14  27
HETATM   27  C   UNL     1      40.406 -12.191   1.055  1.00  0.00     0.256 C 
HETATM   28  N   UNL     1      39.615 -13.220   0.595  1.00  0.00    -0.323 N 
HETATM   29  H   UNL     1      39.306 -13.901   1.276  1.00  0.00     0.169 HD
HETATM   30  O   UNL     1      40.993 -11.355   0.377  1.00  0.00    -0.267 OA
BRANCH  28  31
HETATM   31  C   UNL     1      39.111 -13.382  -0.714  1.00  0.00     0.035 A 
HETATM   32  C   UNL     1      38.233 -12.486  -1.330  1.00  0.00     0.029 A 
HETATM   33  C   UNL     1      37.733 -12.746  -2.610  1.00  0.00     0.002 A 
HETATM   34  C   UNL     1      38.101 -13.907  -3.284  1.00  0.00     0.000 A 
HETATM   35  C   UNL     1      38.978 -14.805  -2.682  1.00  0.00     0.002 A 
HETATM   36  C   UNL     1      39.484 -14.541  -1.406  1.00  0.00     0.029 A 
ENDBRANCH  28  31
ENDBRANCH  14  27
TORSDOF 4
ENDMDL
MODEL 2
REMARK VINA RESULT:      -9.0      2.511      6.395
REMARK  4 active torsions:
REMARK  status: ('A' for Active; 'I' for Inactive)
REMARK    1  A    between atoms: C_6  and  C_7 
REMARK    2  A    between atoms: C_10  and  N_11 
REMARK       I    between atoms: N_11  and  C_12 
REMARK    3  A    between atoms: C_24  and  C_25 
REMARK       I    between atoms: C_25  and  N_26 
REMARK    4  A    between atoms: N_26  and  C_27 
ROOT
HETATM    1  C   UNL     1      40.589 -13.392   0.020  1.00  0.00     0.070 C 
HETATM    2  C   UNL     1      41.296 -13.909   1.248  1.00  0.00     0.037 C 
HETATM    3  N   UNL     1      42.291 -14.851   1.007  1.00  0.00    -0.193 N 
HETATM    4  C   UNL     1      42.744 -15.701   1.950  1.00  0.00     0.709 A 
HETATM    5  N   UNL     1      42.419 -15.470   3.263  1.00  0.00    -0.165 N 
HETATM    6  C   UNL     1      41.657 -14.293   3.699  1.00  0.00     0.182 C 
HETATM    7  N   UNL     1      43.439 -16.801   1.809  1.00  0.00    -0.062 NA
HETATM    8  C   UNL     1      43.515 -17.336   3.075  1.00  0.00     0.103 A 
HETATM    9  C   UNL     1      42.871 -16.527   4.011  1.00  0.00     0.082 A 
HETATM   10  C   UNL     1      44.111 -18.533   3.501  1.00  0.00     0.034 A 
HETATM   11  C   UNL     1      44.034 -18.881   4.855  1.00  0.00     0.002 A 
HETATM   12  C   UNL     1      43.383 -18.052   5.771  1.00  0.00     0.002 A 
HETATM   13  C   UNL     1      42.788 -16.850   5.370  1.00  0.00     0.032 A 
HETATM   14  C   UNL     1      40.970 -13.600   2.529  1.00  0.00     0.061 C 
HETATM   15  H   UNL     1      42.441 -15.130   0.039  1.00  0.00     0.184 HD
ENDROOT
BRANCH   6  16
HETATM   16  C   UNL     1      42.564 -13.352   4.490  1.00  0.00    -0.030 A 
HETATM   17  C   UNL     1      43.420 -12.438   3.855  1.00  0.00     0.012 A 
HETATM   18  C   UNL     1      44.298 -11.636   4.593  1.00  0.00     0.030 A 
HETATM   19  C   UNL     1      44.335 -11.721   5.984  1.00  0.00     0.034 A 
HETATM   20  C   UNL     1      43.453 -12.597   6.628  1.00  0.00     0.030 A 
HETATM   21  C   UNL     1      42.573 -13.400   5.892  1.00  0.00     0.012 A 
BRANCH  19  22
HETATM   22  N   UNL     1      45.232 -10.995   6.795  1.00  0.00    -0.328 N 
HETATM   23  C   UNL     1      44.948  -9.904   7.598  1.00  0.00     0.218 C 
HETATM   24  C   UNL     1      46.186  -9.331   8.241  1.00  0.00     0.117 C 
HETATM   25  O   UNL     1      43.845  -9.422   7.827  1.00  0.00    -0.274 OA
HETATM   26  H   UNL     1      46.197 -11.299   6.769  1.00  0.00     0.169 HD
ENDBRANCH  19  22
ENDBRANCH   6  16
BRANCH  14  27
HETATM   27  C   UNL     1      39.828 -12.731   2.937  1.00  0.00     0.256 C 
HETATM   28  N   UNL     1      40.169 -11.423   3.203  1.00  0.00    -0.323 N 
HETATM   29  H   UNL     1      41.154 -11.194   3.196  1.00  0.00     0.169 HD
HETATM   30  O   UNL     1      38.715 -13.236   3.036  1.00  0.00    -0.267 OA
BRANCH  28  31
HETATM   31  C   UNL     1      39.285 -10.340   3.398  1.00  0.00     0.035 A 
HETATM   32  C   UNL     1      38.714  -9.600   2.360  1.00  0.00     0.029 A 
HETATM   33  C   UNL     1      37.890  -8.504   2.635  1.00  0.00     0.002 A 
HETATM   34  C   UNL     1      37.635  -8.133   3.952  1.00  0.00     0.000 A 
HETATM   35  C   UNL     1      38.194  -8.865   4.996  1.00  0.00     0.002 A 
HETATM   36  C   UNL     1      39.011  -9.965   4.720  1.00  0.00     0.029 A 
ENDBRANCH  28  31
ENDBRANCH  14  27
TORSDOF 4
ENDMDL
MODEL 3
REMARK VINA RESULT:      -9.0      1.574      2.142
REMARK  4 active torsions:
REMARK  status: ('A' for Active; 'I' for Inactive)
REMARK    1  A    between atoms: C_6  and  C_7 
REMARK    2  A    between atoms: C_10  and  N_11 
REMARK       I    between atoms: N_11  and  C_12 
REMARK    3  A    between atoms: C_24  and  C_25 
REMARK       I    between atoms: C_25  and  N_26 
REMARK    4  A    between atoms: N_26  and  C_27 
ROOT
HETATM    1  C   UNL     1      38.776 -10.120   3.909  1.00  0.00     0.070 C 
HETATM    2  C   UNL     1      40.051 -10.724   4.442  1.00  0.00     0.037 C 
HETATM    3  N   UNL     1      40.334 -10.433   5.773  1.00  0.00    -0.193 N 
HETATM    4  C   UNL     1      41.570 -10.532   6.301  1.00  0.00     0.709 A 
HETATM    5  N   UNL     1      42.543 -11.192   5.594  1.00  0.00    -0.165 N 
HETATM    6  C   UNL     1      42.281 -11.863   4.314  1.00  0.00     0.182 C 
HETATM    7  N   UNL     1      42.037 -10.030   7.416  1.00  0.00    -0.062 NA
HETATM    8  C   UNL     1      43.381 -10.325   7.401  1.00  0.00     0.103 A 
HETATM    9  C   UNL     1      43.733 -11.047   6.260  1.00  0.00     0.082 A 
HETATM   10  C   UNL     1      44.376  -9.991   8.332  1.00  0.00     0.034 A 
HETATM   11  C   UNL     1      45.696 -10.386   8.082  1.00  0.00     0.002 A 
HETATM   12  C   UNL     1      46.021 -11.107   6.931  1.00  0.00     0.002 A 
HETATM   13  C   UNL     1      45.043 -11.458   5.993  1.00  0.00     0.032 A 
HETATM   14  C   UNL     1      40.954 -11.423   3.708  1.00  0.00     0.061 C 
HETATM   15  H   UNL     1      39.681  -9.825   6.263  1.00  0.00     0.184 HD
ENDROOT
BRANCH   6  16
HETATM   16  C   UNL     1      42.372 -13.378   4.494  1.00  0.00    -0.030 A 
HETATM   17  C   UNL     1      41.787 -14.031   5.590  1.00  0.00     0.012 A 
HETATM   18  C   UNL     1      41.945 -15.409   5.779  1.00  0.00     0.030 A 
HETATM   19  C   UNL     1      42.681 -16.169   4.871  1.00  0.00     0.034 A 
HETATM   20  C   UNL     1      43.230 -15.532   3.751  1.00  0.00     0.030 A 
HETATM   21  C   UNL     1      43.074 -14.154   3.560  1.00  0.00     0.012 A 
BRANCH  19  22
HETATM   22  N   UNL     1      42.938 -17.547   5.022  1.00  0.00    -0.328 N 
HETATM   23  C   UNL     1      43.415 -18.196   6.146  1.00  0.00     0.218 C 
HETATM   24  C   UNL     1      43.658 -19.665   5.898  1.00  0.00     0.117 C 
HETATM   25  O   UNL     1      43.616 -17.709   7.253  1.00  0.00    -0.274 OA
HETATM   26  H   UNL     1      42.770 -18.121   4.204  1.00  0.00     0.169 HD
ENDBRANCH  19  22
ENDBRANCH   6  16
BRANCH  14  27
HETATM   27  C   UNL     1      40.857 -11.673   2.240  1.00  0.00     0.256 C 
HETATM   28  N   UNL     1      40.010 -12.699   1.888  1.00  0.00    -0.323 N 
HETATM   29  H   UNL     1      39.613 -13.247   2.640  1.00  0.00     0.169 HD
HETATM   30  O   UNL     1      41.542 -10.992   1.485  1.00  0.00    -0.267 OA
BRANCH  28  31
HETATM   31  C   UNL     1      39.559 -13.018   0.588  1.00  0.00     0.035 A 
HETATM   32  C   UNL     1      39.971 -14.146  -0.127  1.00  0.00     0.029 A 
HETATM   33  C   UNL     1      39.522 -14.363  -1.434  1.00  0.00     0.002 A 
HETATM   34  C   UNL     1      38.662 -13.452  -2.040  1.00  0.00     0.000 A 
HETATM   35  C   UNL     1      38.242 -12.327  -1.336  1.00  0.00     0.002 A 
HETATM   36  C   UNL     1      38.684 -12.114  -0.028  1.00  0.00     0.029 A 
ENDBRANCH  28  31
ENDBRANCH  14  27
TORSDOF 4
ENDMDL
MODEL 4
REMARK VINA RESULT:      -8.8      3.209      8.999
REMARK  4 active torsions:
REMARK  status: ('A' for Active; 'I' for Inactive)
REMARK    1  A    between atoms: C_6  and  C_7 
REMARK    2  A    between atoms: C_10  and  N_11 
REMARK       I    between atoms: N_11  and  C_12 
REMARK    3  A    between atoms: C_24  and  C_25 
REMARK       I    between atoms: C_25  and  N_26 
REMARK    4  A    between atoms: N_26  and  C_27 
ROOT
HETATM    1  C   UNL     1      42.930 -15.403   7.970  1.00  0.00     0.070 C 
HETATM    2  C   UNL     1      42.310 -14.764   6.753  1.00  0.00     0.037 C 
HETATM    3  N   UNL     1      41.393 -15.557   6.070  1.00  0.00    -0.193 N 
HETATM    4  C   UNL     1      41.045 -15.339   4.786  1.00  0.00     0.709 A 
HETATM    5  N   UNL     1      41.390 -14.150   4.197  1.00  0.00    -0.165 N 
HETATM    6  C   UNL     1      42.061 -13.065   4.926  1.00  0.00     0.182 C 
HETATM    7  N   UNL     1      40.444 -16.141   3.944  1.00  0.00    -0.062 NA
HETATM    8  C   UNL     1      40.454 -15.466   2.744  1.00  0.00     0.103 A 
HETATM    9  C   UNL     1      41.054 -14.212   2.869  1.00  0.00     0.082 A 
HETATM   10  C   UNL     1      39.977 -15.873   1.489  1.00  0.00     0.034 A 
HETATM   11  C   UNL     1      40.126 -15.010   0.397  1.00  0.00     0.002 A 
HETATM   12  C   UNL     1      40.731 -13.761   0.550  1.00  0.00     0.002 A 
HETATM   13  C   UNL     1      41.208 -13.331   1.794  1.00  0.00     0.032 A 
HETATM   14  C   UNL     1      42.648 -13.552   6.246  1.00  0.00     0.061 C 
HETATM   15  H   UNL     1      41.238 -16.498   6.426  1.00  0.00     0.184 HD
ENDROOT
BRANCH   6  16
HETATM   16  C   UNL     1      41.102 -11.890   5.107  1.00  0.00    -0.030 A 
HETATM   17  C   UNL     1      39.960 -11.982   5.919  1.00  0.00     0.012 A 
HETATM   18  C   UNL     1      39.052 -10.921   6.014  1.00  0.00     0.030 A 
HETATM   19  C   UNL     1      39.269  -9.739   5.308  1.00  0.00     0.034 A 
HETATM   20  C   UNL     1      40.427  -9.623   4.530  1.00  0.00     0.030 A 
HETATM   21  C   UNL     1      41.337 -10.682   4.434  1.00  0.00     0.012 A 
BRANCH  19  22
HETATM   22  N   UNL     1      38.373  -8.650   5.300  1.00  0.00    -0.328 N 
HETATM   23  C   UNL     1      38.376  -7.551   6.141  1.00  0.00     0.218 C 
HETATM   24  C   UNL     1      37.200  -6.639   5.894  1.00  0.00     0.117 C 
HETATM   25  O   UNL     1      39.215  -7.272   6.991  1.00  0.00    -0.274 OA
HETATM   26  H   UNL     1      37.633  -8.690   4.611  1.00  0.00     0.169 HD
ENDBRANCH  19  22
ENDBRANCH   6  16
BRANCH  14  27
HETATM   27  C   UNL     1      43.723 -12.667   6.782  1.00  0.00     0.256 C 
HETATM   28  N   UNL     1      43.275 -11.640   7.582  1.00  0.00    -0.323 N 
HETATM   29  H   UNL     1      42.273 -11.516   7.654  1.00  0.00     0.169 HD
HETATM   30  O   UNL     1      44.883 -12.891   6.454  1.00  0.00    -0.267 OA
BRANCH  28  31
HETATM   31  C   UNL     1      44.061 -10.789   8.389  1.00  0.00     0.035 A 
HETATM   32  C   UNL     1      45.074  -9.962   7.898  1.00  0.00     0.029 A 
HETATM   33  C   UNL     1      45.847  -9.188   8.769  1.00  0.00     0.002 A 
HETATM   34  C   UNL     1      45.619  -9.240  10.142  1.00  0.00     0.000 A 
HETATM   35  C   UNL     1      44.610 -10.057  10.643  1.00  0.00     0.002 A 
HETATM   36  C   UNL     1      43.832 -10.823   9.771  1.00  0.00     0.029 A 
ENDBRANCH  28  31
ENDBRANCH  14  27
TORSDOF 4
ENDMDL
MODEL 5
REMARK VINA RESULT:      -8.7      3.180      7.987
REMARK  4 active torsions:
REMARK  status: ('A' for Active; 'I' for Inactive)
REMARK    1  A    between atoms: C_6  and  C_7 
REMARK    2  A    between atoms: C_10  and  N_11 
REMARK       I    between atoms: N_11  and  C_12 
REMARK    3  A    between atoms: C_24  and  C_25 
REMARK       I    between atoms: C_25  and  N_26 
REMARK    4  A    between atoms: N_26  and  C_27 
ROOT
HETATM    1  C   UNL     1      38.992 -15.164  -2.386  1.00  0.00     0.070 C 
HETATM    2  C   UNL     1      39.427 -13.806  -1.897  1.00  0.00     0.037 C 
HETATM    3  N   UNL     1      39.227 -12.761  -2.794  1.00  0.00    -0.193 N 
HETATM    4  C   UNL     1      39.889 -11.589  -2.718  1.00  0.00     0.709 A 
HETATM    5  N   UNL     1      40.589 -11.295  -1.575  1.00  0.00    -0.165 N 
HETATM    6  C   UNL     1      40.591 -12.170  -0.395  1.00  0.00     0.182 C 
HETATM    7  N   UNL     1      40.025 -10.655  -3.624  1.00  0.00    -0.062 NA
HETATM    8  C   UNL     1      40.898  -9.747  -3.067  1.00  0.00     0.103 A 
HETATM    9  C   UNL     1      41.280 -10.129  -1.781  1.00  0.00     0.082 A 
HETATM   10  C   UNL     1      41.426  -8.568  -3.616  1.00  0.00     0.034 A 
HETATM   11  C   UNL     1      42.329  -7.815  -2.856  1.00  0.00     0.002 A 
HETATM   12  C   UNL     1      42.695  -8.220  -1.570  1.00  0.00     0.002 A 
HETATM   13  C   UNL     1      42.174  -9.388  -1.000  1.00  0.00     0.032 A 
HETATM   14  C   UNL     1      40.065 -13.562  -0.724  1.00  0.00     0.061 C 
HETATM   15  H   UNL     1      38.835 -12.999  -3.703  1.00  0.00     0.184 HD
ENDROOT
BRANCH   6  16
HETATM   16  C   UNL     1      39.821 -11.505   0.745  1.00  0.00    -0.030 A 
HETATM   17  C   UNL     1      38.431 -11.320   0.694  1.00  0.00     0.012 A 
HETATM   18  C   UNL     1      37.753 -10.642   1.714  1.00  0.00     0.030 A 
HETATM   19  C   UNL     1      38.447 -10.142   2.814  1.00  0.00     0.034 A 
HETATM   20  C   UNL     1      39.827 -10.361   2.895  1.00  0.00     0.030 A 
HETATM   21  C   UNL     1      40.508 -11.039   1.876  1.00  0.00     0.012 A 
BRANCH  19  22
HETATM   22  N   UNL     1      37.849  -9.396   3.851  1.00  0.00    -0.328 N 
HETATM   23  C   UNL     1      37.754  -8.019   3.950  1.00  0.00     0.218 C 
HETATM   24  C   UNL     1      37.132  -7.582   5.253  1.00  0.00     0.117 C 
HETATM   25  O   UNL     1      38.090  -7.192   3.111  1.00  0.00    -0.274 OA
HETATM   26  H   UNL     1      37.462  -9.933   4.617  1.00  0.00     0.169 HD
ENDBRANCH  19  22
ENDBRANCH   6  16
BRANCH  14  27
HETATM   27  C   UNL     1      40.483 -14.604   0.257  1.00  0.00     0.256 C 
HETATM   28  N   UNL     1      41.797 -14.518   0.661  1.00  0.00    -0.323 N 
HETATM   29  H   UNL     1      42.378 -13.835   0.193  1.00  0.00     0.169 HD
HETATM   30  O   UNL     1      39.664 -15.452   0.594  1.00  0.00    -0.267 OA
BRANCH  28  31
HETATM   31  C   UNL     1      42.405 -15.221   1.725  1.00  0.00     0.035 A 
HETATM   32  C   UNL     1      42.921 -16.514   1.612  1.00  0.00     0.029 A 
HETATM   33  C   UNL     1      43.458 -17.166   2.727  1.00  0.00     0.002 A 
HETATM   34  C   UNL     1      43.478 -16.533   3.967  1.00  0.00     0.000 A 
HETATM   35  C   UNL     1      42.970 -15.242   4.090  1.00  0.00     0.002 A 
HETATM   36  C   UNL     1      42.441 -14.589   2.974  1.00  0.00     0.029 A 
ENDBRANCH  28  31
ENDBRANCH  14  27
TORSDOF 4
ENDMDL
MODEL 6
REMARK VINA RESULT:      -8.7      2.166      6.525
REMARK  4 active torsions:
REMARK  status: ('A' for Active; 'I' for Inactive)
REMARK    1  A    between atoms: C_6  and  C_7 
REMARK    2  A    between atoms: C_10  and  N_11 
REMARK       I    between atoms: N_11  and  C_12 
REMARK    3  A    between atoms: C_24  and  C_25 
REMARK       I    between atoms: C_25  and  N_26 
REMARK    4  A    between atoms: N_26  and  C_27 
ROOT
HETATM    1  C   UNL     1      44.916 -15.078   6.418  1.00  0.00     0.070 C 
HETATM    2  C   UNL     1      43.748 -14.268   5.915  1.00  0.00     0.037 C 
HETATM    3  N   UNL     1      43.783 -12.914   6.235  1.00  0.00    -0.193 N 
HETATM    4  C   UNL     1      42.688 -12.129   6.232  1.00  0.00     0.709 A 
HETATM    5  N   UNL     1      41.540 -12.592   5.640  1.00  0.00    -0.165 N 
HETATM    6  C   UNL     1      41.470 -13.882   4.942  1.00  0.00     0.182 C 
HETATM    7  N   UNL     1      42.512 -10.951   6.775  1.00  0.00    -0.062 NA
HETATM    8  C   UNL     1      41.179 -10.667   6.579  1.00  0.00     0.103 A 
HETATM    9  C   UNL     1      40.537 -11.687   5.877  1.00  0.00     0.082 A 
HETATM   10  C   UNL     1      40.437  -9.550   6.993  1.00  0.00     0.034 A 
HETATM   11  C   UNL     1      39.070  -9.499   6.695  1.00  0.00     0.002 A 
HETATM   12  C   UNL     1      38.452 -10.535   5.990  1.00  0.00     0.002 A 
HETATM   13  C   UNL     1      39.175 -11.655   5.561  1.00  0.00     0.032 A 
HETATM   14  C   UNL     1      42.660 -14.772   5.278  1.00  0.00     0.061 C 
HETATM   15  H   UNL     1      44.568 -12.591   6.797  1.00  0.00     0.184 HD
ENDROOT
BRANCH   6  16
HETATM   16  C   UNL     1      41.314 -13.651   3.439  1.00  0.00    -0.030 A 
HETATM   17  C   UNL     1      40.311 -14.288   2.691  1.00  0.00     0.012 A 
HETATM   18  C   UNL     1      40.230 -14.124   1.303  1.00  0.00     0.030 A 
HETATM   19  C   UNL     1      41.143 -13.312   0.632  1.00  0.00     0.034 A 
HETATM   20  C   UNL     1      42.119 -12.639   1.376  1.00  0.00     0.030 A 
HETATM   21  C   UNL     1      42.202 -12.801   2.764  1.00  0.00     0.012 A 
BRANCH  19  22
HETATM   22  N   UNL     1      41.167 -13.144  -0.769  1.00  0.00    -0.328 N 
HETATM   23  C   UNL     1      40.603 -12.116  -1.504  1.00  0.00     0.218 C 
HETATM   24  C   UNL     1      40.751 -12.330  -2.990  1.00  0.00     0.117 C 
HETATM   25  O   UNL     1      40.056 -11.110  -1.069  1.00  0.00    -0.274 OA
HETATM   26  H   UNL     1      41.637 -13.872  -1.293  1.00  0.00     0.169 HD
ENDBRANCH  19  22
ENDBRANCH   6  16
BRANCH  14  27
HETATM   27  C   UNL     1      42.417 -16.219   5.011  1.00  0.00     0.256 C 
HETATM   28  N   UNL     1      43.313 -16.800   4.141  1.00  0.00    -0.323 N 
HETATM   29  H   UNL     1      43.981 -16.188   3.692  1.00  0.00     0.169 HD
HETATM   30  O   UNL     1      41.451 -16.757   5.540  1.00  0.00    -0.267 OA
BRANCH  28  31
HETATM   31  C   UNL     1      43.461 -18.179   3.872  1.00  0.00     0.035 A 
HETATM   32  C   UNL     1      43.883 -19.118   4.816  1.00  0.00     0.029 A 
HETATM   33  C   UNL     1      44.059 -20.458   4.457  1.00  0.00     0.002 A 
HETATM   34  C   UNL     1      43.821 -20.871   3.150  1.00  0.00     0.000 A 
HETATM   35  C   UNL     1      43.395 -19.945   2.201  1.00  0.00     0.002 A 
HETATM   36  C   UNL     1      43.212 -18.607   2.562  1.00  0.00     0.029 A 
ENDBRANCH  28  31
ENDBRANCH  14  27
TORSDOF 4
ENDMDL
MODEL 7
REMARK VINA RESULT:      -8.6      2.608      7.285
REMARK  4 active torsions:
REMARK  status: ('A' for Active; 'I' for Inactive)
REMARK    1  A    between atoms: C_6  and  C_7 
REMARK    2  A    between atoms: C_10  and  N_11 
REMARK       I    between atoms: N_11  and  C_12 
REMARK    3  A    between atoms: C_24  and  C_25 
REMARK       I    between atoms: C_25  and  N_26 
REMARK    4  A    between atoms: N_26  and  C_27 
ROOT
HETATM    1  C   UNL     1      39.856 -16.040   0.685  1.00  0.00     0.070 C 
HETATM    2  C   UNL     1      40.109 -14.568   0.894  1.00  0.00     0.037 C 
HETATM    3  N   UNL     1      39.203 -13.716   0.270  1.00  0.00    -0.193 N 
HETATM    4  C   UNL     1      39.473 -12.422   0.005  1.00  0.00     0.709 A 
HETATM    5  N   UNL     1      40.562 -11.836   0.598  1.00  0.00    -0.165 N 
HETATM    6  C   UNL     1      41.411 -12.535   1.572  1.00  0.00     0.182 C 
HETATM    7  N   UNL     1      38.863 -11.600  -0.810  1.00  0.00    -0.062 NA
HETATM    8  C   UNL     1      39.624 -10.453  -0.790  1.00  0.00     0.103 A 
HETATM    9  C   UNL     1      40.708 -10.575   0.080  1.00  0.00     0.082 A 
HETATM   10  C   UNL     1      39.456  -9.260  -1.509  1.00  0.00     0.034 A 
HETATM   11  C   UNL     1      40.389  -8.230  -1.337  1.00  0.00     0.002 A 
HETATM   12  C   UNL     1      41.465  -8.379  -0.460  1.00  0.00     0.002 A 
HETATM   13  C   UNL     1      41.648  -9.557   0.274  1.00  0.00     0.032 A 
HETATM   14  C   UNL     1      41.177 -14.040   1.545  1.00  0.00     0.061 C 
HETATM   15  H   UNL     1      38.471 -14.148  -0.290  1.00  0.00     0.184 HD
ENDROOT
BRANCH   6  16
HETATM   16  C   UNL     1      41.211 -11.933   2.962  1.00  0.00    -0.030 A 
HETATM   17  C   UNL     1      42.153 -11.065   3.537  1.00  0.00     0.012 A 
HETATM   18  C   UNL     1      41.991 -10.583   4.841  1.00  0.00     0.030 A 
HETATM   19  C   UNL     1      40.879 -10.949   5.598  1.00  0.00     0.034 A 
HETATM   20  C   UNL     1      39.913 -11.778   5.016  1.00  0.00     0.030 A 
HETATM   21  C   UNL     1      40.072 -12.261   3.712  1.00  0.00     0.012 A 
BRANCH  19  22
HETATM   22  N   UNL     1      40.673 -10.557   6.937  1.00  0.00    -0.328 N 
HETATM   23  C   UNL     1      39.713  -9.688   7.423  1.00  0.00     0.218 C 
HETATM   24  C   UNL     1      39.866  -9.436   8.902  1.00  0.00     0.117 C 
HETATM   25  O   UNL     1      38.800  -9.166   6.792  1.00  0.00    -0.274 OA
HETATM   26  H   UNL     1      41.317 -10.946   7.615  1.00  0.00     0.169 HD
ENDBRANCH  19  22
ENDBRANCH   6  16
BRANCH  14  27
HETATM   27  C   UNL     1      42.304 -14.829   2.124  1.00  0.00     0.256 C 
HETATM   28  N   UNL     1      41.919 -15.826   2.992  1.00  0.00    -0.323 N 
HETATM   29  H   UNL     1      40.938 -15.873   3.234  1.00  0.00     0.169 HD
HETATM   30  O   UNL     1      43.451 -14.518   1.822  1.00  0.00    -0.267 OA
BRANCH  28  31
HETATM   31  C   UNL     1      42.734 -16.854   3.516  1.00  0.00     0.035 A 
HETATM   32  C   UNL     1      43.240 -16.863   4.818  1.00  0.00     0.029 A 
HETATM   33  C   UNL     1      44.087 -17.890   5.246  1.00  0.00     0.002 A 
HETATM   34  C   UNL     1      44.441 -18.916   4.374  1.00  0.00     0.000 A 
HETATM   35  C   UNL     1      43.938 -18.921   3.075  1.00  0.00     0.002 A 
HETATM   36  C   UNL     1      43.086 -17.898   2.651  1.00  0.00     0.029 A 
ENDBRANCH  28  31
ENDBRANCH  14  27
TORSDOF 4
ENDMDL
MODEL 8
REMARK VINA RESULT:      -8.3      2.639      8.705
REMARK  4 active torsions:
REMARK  status: ('A' for Active; 'I' for Inactive)
REMARK    1  A    between atoms: C_6  and  C_7 
REMARK    2  A    between atoms: C_10  and  N_11 
REMARK       I    between atoms: N_11  and  C_12 
REMARK    3  A    between atoms: C_24  and  C_25 
REMARK       I    between atoms: C_25  and  N_26 
REMARK    4  A    between atoms: N_26  and  C_27 
ROOT
HETATM    1  C   UNL     1      43.133 -14.806   5.217  1.00  0.00     0.070 C 
HETATM    2  C   UNL     1      42.376 -14.061   4.147  1.00  0.00     0.037 C 
HETATM    3  N   UNL     1      41.538 -14.845   3.359  1.00  0.00    -0.193 N 
HETATM    4  C   UNL     1      41.102 -14.463   2.142  1.00  0.00     0.709 A 
HETATM    5  N   UNL     1      41.260 -13.155   1.761  1.00  0.00    -0.165 N 
HETATM    6  C   UNL     1      41.817 -12.128   2.651  1.00  0.00     0.182 C 
HETATM    7  N   UNL     1      40.570 -15.185   1.189  1.00  0.00    -0.062 NA
HETATM    8  C   UNL     1      40.433 -14.321   0.126  1.00  0.00     0.103 A 
HETATM    9  C   UNL     1      40.870 -13.037   0.452  1.00  0.00     0.082 A 
HETATM   10  C   UNL     1      39.953 -14.572  -1.169  1.00  0.00     0.034 A 
HETATM   11  C   UNL     1      39.935 -13.524  -2.097  1.00  0.00     0.002 A 
HETATM   12  C   UNL     1      40.378 -12.248  -1.744  1.00  0.00     0.002 A 
HETATM   13  C   UNL     1      40.854 -11.973  -0.457  1.00  0.00     0.032 A 
HETATM   14  C   UNL     1      42.527 -12.746   3.850  1.00  0.00     0.061 C 
HETATM   15  H   UNL     1      41.524 -15.845   3.550  1.00  0.00     0.184 HD
ENDROOT
BRANCH   6  16
HETATM   16  C   UNL     1      40.723 -11.144   3.059  1.00  0.00    -0.030 A 
HETATM   17  C   UNL     1      39.723 -11.486   3.983  1.00  0.00     0.012 A 
HETATM   18  C   UNL     1      38.685 -10.598   4.288  1.00  0.00     0.030 A 
HETATM   19  C   UNL     1      38.627  -9.343   3.685  1.00  0.00     0.034 A 
HETATM   20  C   UNL     1      39.644  -8.977   2.795  1.00  0.00     0.030 A 
HETATM   21  C   UNL     1      40.684  -9.862   2.489  1.00  0.00     0.012 A 
BRANCH  19  22
HETATM   22  N   UNL     1      37.583  -8.417   3.890  1.00  0.00    -0.328 N 
HETATM   23  C   UNL     1      37.268  -7.749   5.061  1.00  0.00     0.218 C 
HETATM   24  C   UNL     1      36.020  -6.912   4.922  1.00  0.00     0.117 C 
HETATM   25  O   UNL     1      37.894  -7.767   6.114  1.00  0.00    -0.274 OA
HETATM   26  H   UNL     1      36.987  -8.237   3.092  1.00  0.00     0.169 HD
ENDBRANCH  19  22
ENDBRANCH   6  16
BRANCH  14  27
HETATM   27  C   UNL     1      43.502 -11.826   4.505  1.00  0.00     0.256 C 
HETATM   28  N   UNL     1      43.198 -11.502   5.808  1.00  0.00    -0.323 N 
HETATM   29  H   UNL     1      42.311 -11.827   6.168  1.00  0.00     0.169 HD
HETATM   30  O   UNL     1      44.449 -11.413   3.845  1.00  0.00    -0.267 OA
BRANCH  28  31
HETATM   31  C   UNL     1      44.034 -10.837   6.733  1.00  0.00     0.035 A 
HETATM   32  C   UNL     1      43.622  -9.765   7.528  1.00  0.00     0.029 A 
HETATM   33  C   UNL     1      44.525  -9.123   8.381  1.00  0.00     0.002 A 
HETATM   34  C   UNL     1      45.851  -9.542   8.442  1.00  0.00     0.000 A 
HETATM   35  C   UNL     1      46.272 -10.613   7.658  1.00  0.00     0.002 A 
HETATM   36  C   UNL     1      45.367 -11.260   6.812  1.00  0.00     0.029 A 
ENDBRANCH  28  31
ENDBRANCH  14  27
TORSDOF 4
ENDMDL
MODEL 9
REMARK VINA RESULT:      -8.1     16.545     19.458
REMARK  4 active torsions:
REMARK  status: ('A' for Active; 'I' for Inactive)
REMARK    1  A    between atoms: C_6  and  C_7 
REMARK    2  A    between atoms: C_10  and  N_11 
REMARK       I    between atoms: N_11  and  C_12 
REMARK    3  A    between atoms: C_24  and  C_25 
REMARK       I    between atoms: C_25  and  N_26 
REMARK    4  A    between atoms: N_26  and  C_27 
ROOT
HETATM    1  C   UNL     1      47.576 -28.251   0.919  1.00  0.00     0.070 C 
HETATM    2  C   UNL     1      46.398 -29.122   0.563  1.00  0.00     0.037 C 
HETATM    3  N   UNL     1      45.160 -28.644   0.983  1.00  0.00    -0.193 N 
HETATM    4  C   UNL     1      44.075 -29.432   1.118  1.00  0.00     0.709 A 
HETATM    5  N   UNL     1      44.097 -30.692   0.576  1.00  0.00    -0.165 N 
HETATM    6  C   UNL     1      45.227 -31.199  -0.213  1.00  0.00     0.182 C 
HETATM    7  N   UNL     1      42.959 -29.201   1.762  1.00  0.00    -0.062 NA
HETATM    8  C   UNL     1      42.255 -30.381   1.684  1.00  0.00     0.103 A 
HETATM    9  C   UNL     1      42.951 -31.344   0.953  1.00  0.00     0.082 A 
HETATM   10  C   UNL     1      41.007 -30.712   2.234  1.00  0.00     0.034 A 
HETATM   11  C   UNL     1      40.502 -32.003   2.039  1.00  0.00     0.002 A 
HETATM   12  C   UNL     1      41.221 -32.947   1.303  1.00  0.00     0.002 A 
HETATM   13  C   UNL     1      42.464 -32.638   0.738  1.00  0.00     0.032 A 
HETATM   14  C   UNL     1      46.473 -30.339  -0.031  1.00  0.00     0.061 C 
HETATM   15  H   UNL     1      45.154 -27.774   1.511  1.00  0.00     0.184 HD
ENDROOT
BRANCH   6  16
HETATM   16  C   UNL     1      44.817 -31.338  -1.678  1.00  0.00    -0.030 A 
HETATM   17  C   UNL     1      44.645 -32.592  -2.284  1.00  0.00     0.012 A 
HETATM   18  C   UNL     1      44.343 -32.702  -3.647  1.00  0.00     0.030 A 
HETATM   19  C   UNL     1      44.196 -31.560  -4.433  1.00  0.00     0.034 A 
HETATM   20  C   UNL     1      44.322 -30.305  -3.827  1.00  0.00     0.030 A 
HETATM   21  C   UNL     1      44.624 -30.193  -2.464  1.00  0.00     0.012 A 
BRANCH  19  22
HETATM   22  N   UNL     1      43.954 -31.586  -5.822  1.00  0.00    -0.328 N 
HETATM   23  C   UNL     1      44.885 -31.489  -6.841  1.00  0.00     0.218 C 
HETATM   24  C   UNL     1      44.239 -31.455  -8.204  1.00  0.00     0.117 C 
HETATM   25  O   UNL     1      46.105 -31.456  -6.728  1.00  0.00    -0.274 OA
HETATM   26  H   UNL     1      42.984 -31.666  -6.102  1.00  0.00     0.169 HD
ENDBRANCH  19  22
ENDBRANCH   6  16
BRANCH  14  27
HETATM   27  C   UNL     1      47.739 -31.041  -0.391  1.00  0.00     0.256 C 
HETATM   28  N   UNL     1      48.189 -30.794  -1.669  1.00  0.00    -0.323 N 
HETATM   29  H   UNL     1      47.584 -30.252  -2.272  1.00  0.00     0.169 HD
HETATM   30  O   UNL     1      48.249 -31.788   0.437  1.00  0.00    -0.267 OA
BRANCH  28  31
HETATM   31  C   UNL     1      49.448 -31.141  -2.206  1.00  0.00     0.035 A 
HETATM   32  C   UNL     1      49.660 -32.221  -3.067  1.00  0.00     0.029 A 
HETATM   33  C   UNL     1      50.948 -32.533  -3.513  1.00  0.00     0.002 A 
HETATM   34  C   UNL     1      52.038 -31.773  -3.098  1.00  0.00     0.000 A 
HETATM   35  C   UNL     1      51.838 -30.691  -2.244  1.00  0.00     0.002 A 
HETATM   36  C   UNL     1      50.549 -30.374  -1.805  1.00  0.00     0.029 A 
ENDBRANCH  28  31
ENDBRANCH  14  27
TORSDOF 4
ENDMDL
MODEL 10
REMARK VINA RESULT:      -8.1     16.350     20.304
REMARK  4 active torsions:
REMARK  status: ('A' for Active; 'I' for Inactive)
REMARK    1  A    between atoms: C_6  and  C_7 
REMARK    2  A    between atoms: C_10  and  N_11 
REMARK       I    between atoms: N_11  and  C_12 
REMARK    3  A    between atoms: C_24  and  C_25 
REMARK       I    between atoms: C_25  and  N_26 
REMARK    4  A    between atoms: N_26  and  C_27 
ROOT
HETATM    1  C   UNL     1      47.708 -28.080   2.269  1.00  0.00     0.070 C 
HETATM    2  C   UNL     1      47.650 -28.779   0.934  1.00  0.00     0.037 C 
HETATM    3  N   UNL     1      47.091 -28.035  -0.101  1.00  0.00    -0.193 N 
HETATM    4  C   UNL     1      46.595 -28.593  -1.223  1.00  0.00     0.709 A 
HETATM    5  N   UNL     1      46.881 -29.907  -1.494  1.00  0.00    -0.165 N 
HETATM    6  C   UNL     1      47.767 -30.719  -0.650  1.00  0.00     0.182 C 
HETATM    7  N   UNL     1      45.800 -28.074  -2.123  1.00  0.00    -0.062 NA
HETATM    8  C   UNL     1      45.509 -29.113  -2.979  1.00  0.00     0.103 A 
HETATM    9  C   UNL     1      46.167 -30.284  -2.602  1.00  0.00     0.082 A 
HETATM   10  C   UNL     1      44.670 -29.132  -4.103  1.00  0.00     0.034 A 
HETATM   11  C   UNL     1      44.511 -30.331  -4.808  1.00  0.00     0.002 A 
HETATM   12  C   UNL     1      45.181 -31.489  -4.408  1.00  0.00     0.002 A 
HETATM   13  C   UNL     1      46.030 -31.491  -3.295  1.00  0.00     0.032 A 
HETATM   14  C   UNL     1      48.004 -30.070   0.708  1.00  0.00     0.061 C 
HETATM   15  H   UNL     1      46.748 -27.105   0.130  1.00  0.00     0.184 HD
ENDROOT
BRANCH   6  16
HETATM   16  C   UNL     1      49.068 -31.014  -1.396  1.00  0.00    -0.030 A 
HETATM   17  C   UNL     1      50.105 -30.071  -1.479  1.00  0.00     0.012 A 
HETATM   18  C   UNL     1      51.259 -30.330  -2.229  1.00  0.00     0.030 A 
HETATM   19  C   UNL     1      51.407 -31.540  -2.905  1.00  0.00     0.034 A 
HETATM   20  C   UNL     1      50.397 -32.502  -2.791  1.00  0.00     0.030 A 
HETATM   21  C   UNL     1      49.243 -32.247  -2.041  1.00  0.00     0.012 A 
BRANCH  19  22
HETATM   22  N   UNL     1      52.507 -31.852  -3.730  1.00  0.00    -0.328 N 
HETATM   23  C   UNL     1      53.662 -32.527  -3.375  1.00  0.00     0.218 C 
HETATM   24  C   UNL     1      54.660 -32.586  -4.505  1.00  0.00     0.117 C 
HETATM   25  O   UNL     1      53.905 -33.062  -2.300  1.00  0.00    -0.274 OA
HETATM   26  H   UNL     1      52.449 -31.526  -4.687  1.00  0.00     0.169 HD
ENDBRANCH  19  22
ENDBRANCH   6  16
BRANCH  14  27
HETATM   27  C   UNL     1      48.467 -31.027   1.754  1.00  0.00     0.256 C 
HETATM   28  N   UNL     1      49.797 -30.908   2.093  1.00  0.00    -0.323 N 
HETATM   29  H   UNL     1      50.355 -30.265   1.546  1.00  0.00     0.169 HD
HETATM   30  O   UNL     1      47.667 -31.845   2.194  1.00  0.00    -0.267 OA
BRANCH  28  31
HETATM   31  C   UNL     1      50.452 -31.520   3.183  1.00  0.00     0.035 A 
HETATM   32  C   UNL     1      50.698 -32.892   3.277  1.00  0.00     0.029 A 
HETATM   33  C   UNL     1      51.304 -33.431   4.416  1.00  0.00     0.002 A 
HETATM   34  C   UNL     1      51.664 -32.604   5.477  1.00  0.00     0.000 A 
HETATM   35  C   UNL     1      51.428 -31.234   5.393  1.00  0.00     0.002 A 
HETATM   36  C   UNL     1      50.829 -30.695   4.250  1.00  0.00     0.029 A 
ENDBRANCH  28  31
ENDBRANCH  14  27
TORSDOF 4
ENDMDL
