MODEL 1
REMARK VINA RESULT:      -8.8      0.000      0.000
REMARK  6 active torsions:
REMARK  status: ('A' for Active; 'I' for Inactive)
REMARK    1  A    between atoms: C_2  and  C_3 
REMARK    2  A    between atoms: C_4  and  O_5 
REMARK    3  A    between atoms: O_5  and  C_6 
REMARK    4  A    between atoms: C_6  and  C_7 
REMARK       I    between atoms: C_7  and  N_8 
REMARK    5  A    between atoms: N_8  and  N_9 
REMARK    6  A    between atoms: C_10  and  C_11 
ROOT
HETATM    1  C   UNL     1      42.759 -16.348   6.885  1.00  0.00     0.261 C 
HETATM    2  N   UNL     1      43.633 -15.271   6.800  1.00  0.00    -0.246 N 
HETATM    3  O   UNL     1      41.589 -16.318   7.257  1.00  0.00    -0.269 OA
HETATM    4  H   UNL     1      44.576 -15.458   6.464  1.00  0.00     0.192 HD
ENDROOT
BRANCH   2   5
HETATM    5  N   UNL     1      43.423 -13.964   7.149  1.00  0.00    -0.184 NA
HETATM    6  C   UNL     1      43.377 -13.036   6.249  1.00  0.00     0.152 C 
BRANCH   6   7
HETATM    7  C   UNL     1      43.141 -11.666   6.672  1.00  0.00     0.011 A 
HETATM    8  C   UNL     1      44.067 -10.793   7.332  1.00  0.00     0.004 A 
HETATM    9  C   UNL     1      43.409  -9.583   7.564  1.00  0.00     0.043 A 
HETATM   10  C   UNL     1      45.405 -10.921   7.766  1.00  0.00     0.014 A 
HETATM   11  C   UNL     1      44.016  -8.499   8.209  1.00  0.00     0.030 A 
HETATM   12  N   UNL     1      42.138  -9.709   7.054  1.00  0.00    -0.364 N 
HETATM   13  C   UNL     1      45.340  -8.655   8.631  1.00  0.00     0.002 A 
HETATM   14  C   UNL     1      46.027  -9.847   8.412  1.00  0.00     0.001 A 
HETATM   15  H   UNL     1      41.434  -8.985   7.080  1.00  0.00     0.165 HD
HETATM   16  C   UNL     1      41.965 -10.956   6.518  1.00  0.00     0.102 A 
ENDBRANCH   6   7
ENDBRANCH   2   5
BRANCH   1  17
HETATM   17  C   UNL     1      43.445 -17.666   6.531  1.00  0.00     0.280 C 
BRANCH  17  18
HETATM   18  O   UNL     1      44.233 -17.547   5.348  1.00  0.00    -0.341 OA
BRANCH  18  19
HETATM   19  C   UNL     1      43.952 -18.467   4.370  1.00  0.00     0.076 A 
HETATM   20  C   UNL     1      43.354 -17.991   3.185  1.00  0.00    -0.021 A 
HETATM   21  C   UNL     1      43.095 -18.915   2.155  1.00  0.00     0.010 A 
HETATM   22  C   UNL     1      43.374 -20.273   2.319  1.00  0.00     0.001 A 
HETATM   23  C   UNL     1      43.909 -20.735   3.516  1.00  0.00     0.003 A 
HETATM   24  C   UNL     1      44.192 -19.835   4.544  1.00  0.00     0.037 A 
BRANCH  20  25
HETATM   25  C   UNL     1      43.045 -16.509   3.015  1.00  0.00     0.013 C 
HETATM   26  C   UNL     1      41.607 -16.120   3.379  1.00  0.00     0.015 C 
HETATM   27  C   UNL     1      43.372 -16.058   1.589  1.00  0.00     0.015 C 
ENDBRANCH  20  25
ENDBRANCH  18  19
ENDBRANCH  17  18
ENDBRANCH   1  17
TORSDOF 6
ENDMDL
MODEL 2
REMARK VINA RESULT:      -8.1      1.623      2.637
REMARK  6 active torsions:
REMARK  status: ('A' for Active; 'I' for Inactive)
REMARK    1  A    between atoms: C_2  and  C_3 
REMARK    2  A    between atoms: C_4  and  O_5 
REMARK    3  A    between atoms: O_5  and  C_6 
REMARK    4  A    between atoms: C_6  and  C_7 
REMARK       I    between atoms: C_7  and  N_8 
REMARK    5  A    between atoms: N_8  and  N_9 
REMARK    6  A    between atoms: C_10  and  C_11 
ROOT
HETATM    1  C   UNL     1      41.545 -15.479   3.092  1.00  0.00     0.261 C 
HETATM    2  N   UNL     1      42.556 -14.587   3.428  1.00  0.00    -0.246 N 
HETATM    3  O   UNL     1      40.352 -15.376   3.365  1.00  0.00    -0.269 OA
HETATM    4  H   UNL     1      43.500 -14.812   3.122  1.00  0.00     0.192 HD
ENDROOT
BRANCH   2   5
HETATM    5  N   UNL     1      42.476 -13.437   4.168  1.00  0.00    -0.184 NA
HETATM    6  C   UNL     1      42.893 -13.406   5.391  1.00  0.00     0.152 C 
BRANCH   6   7
HETATM    7  C   UNL     1      42.795 -12.158   6.129  1.00  0.00     0.011 A 
HETATM    8  C   UNL     1      43.863 -11.439   6.761  1.00  0.00     0.004 A 
HETATM    9  C   UNL     1      43.306 -10.310   7.366  1.00  0.00     0.043 A 
HETATM   10  C   UNL     1      45.253 -11.647   6.884  1.00  0.00     0.014 A 
HETATM   11  C   UNL     1      44.067  -9.383   8.089  1.00  0.00     0.030 A 
HETATM   12  N   UNL     1      41.956 -10.333   7.103  1.00  0.00    -0.364 N 
HETATM   13  C   UNL     1      45.441  -9.617   8.199  1.00  0.00     0.002 A 
HETATM   14  C   UNL     1      46.028 -10.731   7.604  1.00  0.00     0.001 A 
HETATM   15  H   UNL     1      41.298  -9.634   7.419  1.00  0.00     0.165 HD
HETATM   16  C   UNL     1      41.637 -11.438   6.363  1.00  0.00     0.102 A 
ENDBRANCH   6   7
ENDBRANCH   2   5
BRANCH   1  17
HETATM   17  C   UNL     1      42.091 -16.715   2.380  1.00  0.00     0.280 C 
BRANCH  17  18
HETATM   18  O   UNL     1      43.430 -17.001   2.778  1.00  0.00    -0.341 OA
BRANCH  18  19
HETATM   19  C   UNL     1      43.613 -18.232   3.356  1.00  0.00     0.076 A 
HETATM   20  C   UNL     1      43.778 -18.273   4.755  1.00  0.00    -0.021 A 
HETATM   21  C   UNL     1      43.926 -19.531   5.369  1.00  0.00     0.010 A 
HETATM   22  C   UNL     1      43.961 -20.703   4.611  1.00  0.00     0.001 A 
HETATM   23  C   UNL     1      43.854 -20.640   3.226  1.00  0.00     0.003 A 
HETATM   24  C   UNL     1      43.687 -19.406   2.597  1.00  0.00     0.037 A 
BRANCH  20  25
HETATM   25  C   UNL     1      43.748 -16.990   5.576  1.00  0.00     0.013 C 
HETATM   26  C   UNL     1      45.114 -16.566   6.132  1.00  0.00     0.015 C 
HETATM   27  C   UNL     1      42.728 -17.109   6.711  1.00  0.00     0.015 C 
ENDBRANCH  20  25
ENDBRANCH  18  19
ENDBRANCH  17  18
ENDBRANCH   1  17
TORSDOF 6
ENDMDL
MODEL 3
REMARK VINA RESULT:      -8.0      1.380      2.059
REMARK  6 active torsions:
REMARK  status: ('A' for Active; 'I' for Inactive)
REMARK    1  A    between atoms: C_2  and  C_3 
REMARK    2  A    between atoms: C_4  and  O_5 
REMARK    3  A    between atoms: O_5  and  C_6 
REMARK    4  A    between atoms: C_6  and  C_7 
REMARK       I    between atoms: C_7  and  N_8 
REMARK    5  A    between atoms: N_8  and  N_9 
REMARK    6  A    between atoms: C_10  and  C_11 
ROOT
HETATM    1  C   UNL     1      42.403 -14.748   6.360  1.00  0.00     0.261 C 
HETATM    2  N   UNL     1      43.645 -14.252   6.736  1.00  0.00    -0.246 N 
HETATM    3  O   UNL     1      41.324 -14.167   6.443  1.00  0.00    -0.269 OA
HETATM    4  H   UNL     1      44.452 -14.858   6.599  1.00  0.00     0.192 HD
ENDROOT
BRANCH   2   5
HETATM    5  N   UNL     1      43.951 -13.052   7.320  1.00  0.00    -0.184 NA
HETATM    6  C   UNL     1      44.713 -12.197   6.719  1.00  0.00     0.152 C 
BRANCH   6   7
HETATM    7  C   UNL     1      44.999 -10.935   7.378  1.00  0.00     0.011 A 
HETATM    8  C   UNL     1      44.054  -9.934   7.779  1.00  0.00     0.004 A 
HETATM    9  C   UNL     1      44.775  -8.885   8.354  1.00  0.00     0.043 A 
HETATM   10  C   UNL     1      42.650  -9.815   7.697  1.00  0.00     0.014 A 
HETATM   11  C   UNL     1      44.165  -7.725   8.847  1.00  0.00     0.030 A 
HETATM   12  N   UNL     1      46.104  -9.238   8.318  1.00  0.00    -0.364 N 
HETATM   13  C   UNL     1      42.773  -7.633   8.750  1.00  0.00     0.002 A 
HETATM   14  C   UNL     1      42.024  -8.662   8.185  1.00  0.00     0.001 A 
HETATM   15  H   UNL     1      46.859  -8.666   8.668  1.00  0.00     0.165 HD
HETATM   16  C   UNL     1      46.251 -10.466   7.732  1.00  0.00     0.102 A 
ENDBRANCH   6   7
ENDBRANCH   2   5
BRANCH   1  17
HETATM   17  C   UNL     1      42.489 -16.196   5.882  1.00  0.00     0.280 C 
BRANCH  17  18
HETATM   18  O   UNL     1      43.671 -16.427   5.117  1.00  0.00    -0.341 OA
BRANCH  18  19
HETATM   19  C   UNL     1      43.654 -17.567   4.354  1.00  0.00     0.076 A 
HETATM   20  C   UNL     1      43.110 -17.471   3.058  1.00  0.00    -0.021 A 
HETATM   21  C   UNL     1      43.121 -18.621   2.247  1.00  0.00     0.010 A 
HETATM   22  C   UNL     1      43.608 -19.837   2.729  1.00  0.00     0.001 A 
HETATM   23  C   UNL     1      44.087 -19.929   4.031  1.00  0.00     0.003 A 
HETATM   24  C   UNL     1      44.105 -18.798   4.846  1.00  0.00     0.037 A 
BRANCH  20  25
HETATM   25  C   UNL     1      42.572 -16.143   2.540  1.00  0.00     0.013 C 
HETATM   26  C   UNL     1      41.115 -16.196   2.063  1.00  0.00     0.015 C 
HETATM   27  C   UNL     1      43.474 -15.600   1.430  1.00  0.00     0.015 C 
ENDBRANCH  20  25
ENDBRANCH  18  19
ENDBRANCH  17  18
ENDBRANCH   1  17
TORSDOF 6
ENDMDL
MODEL 4
REMARK VINA RESULT:      -7.9      2.019      3.301
REMARK  6 active torsions:
REMARK  status: ('A' for Active; 'I' for Inactive)
REMARK    1  A    between atoms: C_2  and  C_3 
REMARK    2  A    between atoms: C_4  and  O_5 
REMARK    3  A    between atoms: O_5  and  C_6 
REMARK    4  A    between atoms: C_6  and  C_7 
REMARK       I    between atoms: C_7  and  N_8 
REMARK    5  A    between atoms: N_8  and  N_9 
REMARK    6  A    between atoms: C_10  and  C_11 
ROOT
HETATM    1  C   UNL     1      42.742 -13.801   3.160  1.00  0.00     0.261 C 
HETATM    2  N   UNL     1      42.626 -13.276   4.441  1.00  0.00    -0.246 N 
HETATM    3  O   UNL     1      43.596 -13.518   2.324  1.00  0.00    -0.269 OA
HETATM    4  H   UNL     1      41.862 -13.619   5.020  1.00  0.00     0.192 HD
ENDROOT
BRANCH   2   5
HETATM    5  N   UNL     1      43.382 -12.308   5.045  1.00  0.00    -0.184 NA
HETATM    6  C   UNL     1      43.891 -12.499   6.218  1.00  0.00     0.152 C 
BRANCH   6   7
HETATM    7  C   UNL     1      44.694 -11.443   6.811  1.00  0.00     0.011 A 
HETATM    8  C   UNL     1      44.228 -10.341   7.602  1.00  0.00     0.004 A 
HETATM    9  C   UNL     1      45.341  -9.569   7.940  1.00  0.00     0.043 A 
HETATM   10  C   UNL     1      42.958  -9.920   8.054  1.00  0.00     0.014 A 
HETATM   11  C   UNL     1      45.250  -8.399   8.704  1.00  0.00     0.030 A 
HETATM   12  N   UNL     1      46.442 -10.182   7.390  1.00  0.00    -0.364 N 
HETATM   13  C   UNL     1      43.980  -8.004   9.135  1.00  0.00     0.002 A 
HETATM   14  C   UNL     1      42.850  -8.753   8.818  1.00  0.00     0.001 A 
HETATM   15  H   UNL     1      47.390  -9.843   7.474  1.00  0.00     0.165 HD
HETATM   16  C   UNL     1      46.066 -11.307   6.708  1.00  0.00     0.102 A 
ENDBRANCH   6   7
ENDBRANCH   2   5
BRANCH   1  17
HETATM   17  C   UNL     1      41.598 -14.759   2.832  1.00  0.00     0.280 C 
BRANCH  17  18
HETATM   18  O   UNL     1      41.504 -15.812   3.789  1.00  0.00    -0.341 OA
BRANCH  18  19
HETATM   19  C   UNL     1      42.352 -16.869   3.573  1.00  0.00     0.076 A 
HETATM   20  C   UNL     1      43.322 -17.133   4.561  1.00  0.00    -0.021 A 
HETATM   21  C   UNL     1      44.174 -18.238   4.375  1.00  0.00     0.010 A 
HETATM   22  C   UNL     1      44.098 -19.020   3.221  1.00  0.00     0.001 A 
HETATM   23  C   UNL     1      43.174 -18.710   2.229  1.00  0.00     0.003 A 
HETATM   24  C   UNL     1      42.306 -17.632   2.400  1.00  0.00     0.037 A 
BRANCH  20  25
HETATM   25  C   UNL     1      43.406 -16.272   5.815  1.00  0.00     0.013 C 
HETATM   26  C   UNL     1      44.798 -16.230   6.458  1.00  0.00     0.015 C 
HETATM   27  C   UNL     1      42.360 -16.719   6.839  1.00  0.00     0.015 C 
ENDBRANCH  20  25
ENDBRANCH  18  19
ENDBRANCH  17  18
ENDBRANCH   1  17
TORSDOF 6
ENDMDL
MODEL 5
REMARK VINA RESULT:      -7.9      4.831      8.754
REMARK  6 active torsions:
REMARK  status: ('A' for Active; 'I' for Inactive)
REMARK    1  A    between atoms: C_2  and  C_3 
REMARK    2  A    between atoms: C_4  and  O_5 
REMARK    3  A    between atoms: O_5  and  C_6 
REMARK    4  A    between atoms: C_6  and  C_7 
REMARK       I    between atoms: C_7  and  N_8 
REMARK    5  A    between atoms: N_8  and  N_9 
REMARK    6  A    between atoms: C_10  and  C_11 
ROOT
HETATM    1  C   UNL     1      40.289 -13.151   2.704  1.00  0.00     0.261 C 
HETATM    2  N   UNL     1      40.680 -14.420   2.297  1.00  0.00    -0.246 N 
HETATM    3  O   UNL     1      40.476 -12.640   3.804  1.00  0.00    -0.269 OA
HETATM    4  H   UNL     1      40.455 -14.697   1.344  1.00  0.00     0.192 HD
ENDROOT
BRANCH   2   5
HETATM    5  N   UNL     1      41.306 -15.399   3.022  1.00  0.00    -0.184 NA
HETATM    6  C   UNL     1      42.566 -15.640   2.861  1.00  0.00     0.152 C 
BRANCH   6   7
HETATM    7  C   UNL     1      43.184 -16.684   3.662  1.00  0.00     0.011 A 
HETATM    8  C   UNL     1      43.334 -18.067   3.314  1.00  0.00     0.004 A 
HETATM    9  C   UNL     1      43.965 -18.701   4.387  1.00  0.00     0.043 A 
HETATM   10  C   UNL     1      42.982 -18.844   2.190  1.00  0.00     0.014 A 
HETATM   11  C   UNL     1      44.258 -20.070   4.394  1.00  0.00     0.030 A 
HETATM   12  N   UNL     1      44.202 -17.741   5.343  1.00  0.00    -0.364 N 
HETATM   13  C   UNL     1      43.895 -20.817   3.269  1.00  0.00     0.002 A 
HETATM   14  C   UNL     1      43.267 -20.215   2.181  1.00  0.00     0.001 A 
HETATM   15  H   UNL     1      44.651 -17.915   6.232  1.00  0.00     0.165 HD
HETATM   16  C   UNL     1      43.736 -16.527   4.919  1.00  0.00     0.102 A 
ENDBRANCH   6   7
ENDBRANCH   2   5
BRANCH   1  17
HETATM   17  C   UNL     1      39.484 -12.431   1.623  1.00  0.00     0.280 C 
BRANCH  17  18
HETATM   18  O   UNL     1      39.504 -13.147   0.389  1.00  0.00    -0.341 OA
BRANCH  18  19
HETATM   19  C   UNL     1      39.961 -12.431  -0.689  1.00  0.00     0.076 A 
HETATM   20  C   UNL     1      39.395 -12.722  -1.946  1.00  0.00    -0.021 A 
HETATM   21  C   UNL     1      39.823 -11.971  -3.056  1.00  0.00     0.010 A 
HETATM   22  C   UNL     1      40.818 -11.000  -2.928  1.00  0.00     0.001 A 
HETATM   23  C   UNL     1      41.408 -10.766  -1.691  1.00  0.00     0.003 A 
HETATM   24  C   UNL     1      40.986 -11.484  -0.573  1.00  0.00     0.037 A 
BRANCH  20  25
HETATM   25  C   UNL     1      38.316 -13.789  -2.082  1.00  0.00     0.013 C 
HETATM   26  C   UNL     1      38.765 -15.049  -2.832  1.00  0.00     0.015 C 
HETATM   27  C   UNL     1      37.065 -13.199  -2.737  1.00  0.00     0.015 C 
ENDBRANCH  20  25
ENDBRANCH  18  19
ENDBRANCH  17  18
ENDBRANCH   1  17
TORSDOF 6
ENDMDL
MODEL 6
REMARK VINA RESULT:      -7.8      5.240      8.818
REMARK  6 active torsions:
REMARK  status: ('A' for Active; 'I' for Inactive)
REMARK    1  A    between atoms: C_2  and  C_3 
REMARK    2  A    between atoms: C_4  and  O_5 
REMARK    3  A    between atoms: O_5  and  C_6 
REMARK    4  A    between atoms: C_6  and  C_7 
REMARK       I    between atoms: C_7  and  N_8 
REMARK    5  A    between atoms: N_8  and  N_9 
REMARK    6  A    between atoms: C_10  and  C_11 
ROOT
HETATM    1  C   UNL     1      41.743 -12.762   1.414  1.00  0.00     0.261 C 
HETATM    2  N   UNL     1      42.259 -14.027   1.159  1.00  0.00    -0.246 N 
HETATM    3  O   UNL     1      41.803 -12.143   2.473  1.00  0.00    -0.269 OA
HETATM    4  H   UNL     1      42.132 -14.404   0.222  1.00  0.00     0.192 HD
ENDROOT
BRANCH   2   5
HETATM    5  N   UNL     1      42.895 -14.884   2.016  1.00  0.00    -0.184 NA
HETATM    6  C   UNL     1      42.263 -15.877   2.551  1.00  0.00     0.152 C 
BRANCH   6   7
HETATM    7  C   UNL     1      42.987 -16.763   3.447  1.00  0.00     0.011 A 
HETATM    8  C   UNL     1      43.270 -18.154   3.247  1.00  0.00     0.004 A 
HETATM    9  C   UNL     1      43.969 -18.604   4.370  1.00  0.00     0.043 A 
HETATM   10  C   UNL     1      42.987 -19.079   2.219  1.00  0.00     0.014 A 
HETATM   11  C   UNL     1      44.396 -19.929   4.517  1.00  0.00     0.030 A 
HETATM   12  N   UNL     1      44.118 -17.528   5.213  1.00  0.00    -0.364 N 
HETATM   13  C   UNL     1      44.099 -20.825   3.486  1.00  0.00     0.002 A 
HETATM   14  C   UNL     1      43.407 -20.408   2.351  1.00  0.00     0.001 A 
HETATM   15  H   UNL     1      44.589 -17.560   6.106  1.00  0.00     0.165 HD
HETATM   16  C   UNL     1      43.530 -16.418   4.671  1.00  0.00     0.102 A 
ENDBRANCH   6   7
ENDBRANCH   2   5
BRANCH   1  17
HETATM   17  C   UNL     1      40.977 -12.208   0.214  1.00  0.00     0.280 C 
BRANCH  17  18
HETATM   18  O   UNL     1      39.605 -12.595   0.243  1.00  0.00    -0.341 OA
BRANCH  18  19
HETATM   19  C   UNL     1      39.148 -13.193  -0.905  1.00  0.00     0.076 A 
HETATM   20  C   UNL     1      38.355 -12.412  -1.770  1.00  0.00    -0.021 A 
HETATM   21  C   UNL     1      37.911 -12.997  -2.971  1.00  0.00     0.010 A 
HETATM   22  C   UNL     1      38.201 -14.328  -3.274  1.00  0.00     0.001 A 
HETATM   23  C   UNL     1      38.934 -15.102  -2.381  1.00  0.00     0.003 A 
HETATM   24  C   UNL     1      39.402 -14.539  -1.195  1.00  0.00     0.037 A 
BRANCH  20  25
HETATM   25  C   UNL     1      38.035 -10.962  -1.430  1.00  0.00     0.013 C 
HETATM   26  C   UNL     1      36.577 -10.562  -1.689  1.00  0.00     0.015 C 
HETATM   27  C   UNL     1      38.984 -10.020  -2.174  1.00  0.00     0.015 C 
ENDBRANCH  20  25
ENDBRANCH  18  19
ENDBRANCH  17  18
ENDBRANCH   1  17
TORSDOF 6
ENDMDL
MODEL 7
REMARK VINA RESULT:      -7.7      2.875      4.187
REMARK  6 active torsions:
REMARK  status: ('A' for Active; 'I' for Inactive)
REMARK    1  A    between atoms: C_2  and  C_3 
REMARK    2  A    between atoms: C_4  and  O_5 
REMARK    3  A    between atoms: O_5  and  C_6 
REMARK    4  A    between atoms: C_6  and  C_7 
REMARK       I    between atoms: C_7  and  N_8 
REMARK    5  A    between atoms: N_8  and  N_9 
REMARK    6  A    between atoms: C_10  and  C_11 
ROOT
HETATM    1  C   UNL     1      42.273 -16.050   6.439  1.00  0.00     0.261 C 
HETATM    2  N   UNL     1      42.625 -14.956   5.660  1.00  0.00    -0.246 N 
HETATM    3  O   UNL     1      41.295 -16.145   7.176  1.00  0.00    -0.269 OA
HETATM    4  H   UNL     1      43.469 -15.035   5.095  1.00  0.00     0.192 HD
ENDROOT
BRANCH   2   5
HETATM    5  N   UNL     1      42.014 -13.734   5.567  1.00  0.00    -0.184 NA
HETATM    6  C   UNL     1      40.884 -13.603   4.951  1.00  0.00     0.152 C 
BRANCH   6   7
HETATM    7  C   UNL     1      40.272 -12.287   4.889  1.00  0.00     0.011 A 
HETATM    8  C   UNL     1      39.493 -11.744   3.815  1.00  0.00     0.004 A 
HETATM    9  C   UNL     1      39.127 -10.446   4.179  1.00  0.00     0.043 A 
HETATM   10  C   UNL     1      39.071 -12.232   2.560  1.00  0.00     0.014 A 
HETATM   11  C   UNL     1      38.365  -9.612   3.351  1.00  0.00     0.030 A 
HETATM   12  N   UNL     1      39.651 -10.212   5.429  1.00  0.00    -0.364 N 
HETATM   13  C   UNL     1      37.964 -10.119   2.112  1.00  0.00     0.002 A 
HETATM   14  C   UNL     1      38.309 -11.411   1.720  1.00  0.00     0.001 A 
HETATM   15  H   UNL     1      39.543  -9.350   5.944  1.00  0.00     0.165 HD
HETATM   16  C   UNL     1      40.342 -11.309   5.865  1.00  0.00     0.102 A 
ENDBRANCH   6   7
ENDBRANCH   2   5
BRANCH   1  17
HETATM   17  C   UNL     1      43.315 -17.165   6.358  1.00  0.00     0.280 C 
BRANCH  17  18
HETATM   18  O   UNL     1      44.049 -17.109   5.137  1.00  0.00    -0.341 OA
BRANCH  18  19
HETATM   19  C   UNL     1      43.853 -18.174   4.294  1.00  0.00     0.076 A 
HETATM   20  C   UNL     1      43.198 -17.920   3.071  1.00  0.00    -0.021 A 
HETATM   21  C   UNL     1      43.024 -18.992   2.177  1.00  0.00     0.010 A 
HETATM   22  C   UNL     1      43.440 -20.283   2.510  1.00  0.00     0.001 A 
HETATM   23  C   UNL     1      44.031 -20.527   3.745  1.00  0.00     0.003 A 
HETATM   24  C   UNL     1      44.232 -19.476   4.639  1.00  0.00     0.037 A 
BRANCH  20  25
HETATM   25  C   UNL     1      42.739 -16.511   2.717  1.00  0.00     0.013 C 
HETATM   26  C   UNL     1      41.224 -16.374   2.516  1.00  0.00     0.015 C 
HETATM   27  C   UNL     1      43.486 -16.004   1.482  1.00  0.00     0.015 C 
ENDBRANCH  20  25
ENDBRANCH  18  19
ENDBRANCH  17  18
ENDBRANCH   1  17
TORSDOF 6
ENDMDL
MODEL 8
REMARK VINA RESULT:      -7.7      2.295      2.836
REMARK  6 active torsions:
REMARK  status: ('A' for Active; 'I' for Inactive)
REMARK    1  A    between atoms: C_2  and  C_3 
REMARK    2  A    between atoms: C_4  and  O_5 
REMARK    3  A    between atoms: O_5  and  C_6 
REMARK    4  A    between atoms: C_6  and  C_7 
REMARK       I    between atoms: C_7  and  N_8 
REMARK    5  A    between atoms: N_8  and  N_9 
REMARK    6  A    between atoms: C_10  and  C_11 
ROOT
HETATM    1  C   UNL     1      42.940 -13.744   6.271  1.00  0.00     0.261 C 
HETATM    2  N   UNL     1      43.831 -12.919   6.947  1.00  0.00    -0.246 N 
HETATM    3  O   UNL     1      41.750 -13.528   6.063  1.00  0.00    -0.269 OA
HETATM    4  H   UNL     1      44.793 -13.240   7.032  1.00  0.00     0.192 HD
ENDROOT
BRANCH   2   5
HETATM    5  N   UNL     1      43.591 -11.724   7.570  1.00  0.00    -0.184 NA
HETATM    6  C   UNL     1      44.505 -11.155   8.287  1.00  0.00     0.152 C 
BRANCH   6   7
HETATM    7  C   UNL     1      44.202  -9.882   8.920  1.00  0.00     0.011 A 
HETATM    8  C   UNL     1      43.736  -9.671  10.259  1.00  0.00     0.004 A 
HETATM    9  C   UNL     1      43.561  -8.295  10.428  1.00  0.00     0.043 A 
HETATM   10  C   UNL     1      43.434 -10.522  11.343  1.00  0.00     0.014 A 
HETATM   11  C   UNL     1      43.099  -7.730  11.622  1.00  0.00     0.030 A 
HETATM   12  N   UNL     1      43.920  -7.692   9.245  1.00  0.00    -0.364 N 
HETATM   13  C   UNL     1      42.804  -8.597  12.679  1.00  0.00     0.002 A 
HETATM   14  C   UNL     1      42.970  -9.974  12.545  1.00  0.00     0.001 A 
HETATM   15  H   UNL     1      43.895  -6.696   9.078  1.00  0.00     0.165 HD
HETATM   16  C   UNL     1      44.305  -8.635   8.331  1.00  0.00     0.102 A 
ENDBRANCH   6   7
ENDBRANCH   2   5
BRANCH   1  17
HETATM   17  C   UNL     1      43.591 -15.062   5.855  1.00  0.00     0.280 C 
BRANCH  17  18
HETATM   18  O   UNL     1      42.616 -16.031   5.473  1.00  0.00    -0.341 OA
BRANCH  18  19
HETATM   19  C   UNL     1      43.117 -17.132   4.824  1.00  0.00     0.076 A 
HETATM   20  C   UNL     1      43.039 -17.146   3.417  1.00  0.00    -0.021 A 
HETATM   21  C   UNL     1      43.583 -18.249   2.734  1.00  0.00     0.010 A 
HETATM   22  C   UNL     1      44.139 -19.325   3.429  1.00  0.00     0.001 A 
HETATM   23  C   UNL     1      44.156 -19.321   4.820  1.00  0.00     0.003 A 
HETATM   24  C   UNL     1      43.640 -18.230   5.518  1.00  0.00     0.037 A 
BRANCH  20  25
HETATM   25  C   UNL     1      42.424 -15.974   2.664  1.00  0.00     0.013 C 
HETATM   26  C   UNL     1      41.051 -16.271   2.047  1.00  0.00     0.015 C 
HETATM   27  C   UNL     1      43.389 -15.467   1.589  1.00  0.00     0.015 C 
ENDBRANCH  20  25
ENDBRANCH  18  19
ENDBRANCH  17  18
ENDBRANCH   1  17
TORSDOF 6
ENDMDL
MODEL 9
REMARK VINA RESULT:      -7.6      5.217      7.506
REMARK  6 active torsions:
REMARK  status: ('A' for Active; 'I' for Inactive)
REMARK    1  A    between atoms: C_2  and  C_3 
REMARK    2  A    between atoms: C_4  and  O_5 
REMARK    3  A    between atoms: O_5  and  C_6 
REMARK    4  A    between atoms: C_6  and  C_7 
REMARK       I    between atoms: C_7  and  N_8 
REMARK    5  A    between atoms: N_8  and  N_9 
REMARK    6  A    between atoms: C_10  and  C_11 
ROOT
HETATM    1  C   UNL     1      40.376 -14.816   3.049  1.00  0.00     0.261 C 
HETATM    2  N   UNL     1      40.120 -15.068   1.707  1.00  0.00    -0.246 N 
HETATM    3  O   UNL     1      40.213 -13.753   3.642  1.00  0.00    -0.269 OA
HETATM    4  H   UNL     1      40.302 -16.009   1.364  1.00  0.00     0.192 HD
ENDROOT
BRANCH   2   5
HETATM    5  N   UNL     1      39.685 -14.204   0.738  1.00  0.00    -0.184 NA
HETATM    6  C   UNL     1      39.844 -14.479  -0.516  1.00  0.00     0.152 C 
BRANCH   6   7
HETATM    7  C   UNL     1      39.357 -13.532  -1.504  1.00  0.00     0.011 A 
HETATM    8  C   UNL     1      39.937 -12.269  -1.853  1.00  0.00     0.004 A 
HETATM    9  C   UNL     1      39.126 -11.692  -2.832  1.00  0.00     0.043 A 
HETATM   10  C   UNL     1      41.074 -11.553  -1.418  1.00  0.00     0.014 A 
HETATM   11  C   UNL     1      39.392 -10.438  -3.396  1.00  0.00     0.030 A 
HETATM   12  N   UNL     1      38.101 -12.574  -3.081  1.00  0.00    -0.364 N 
HETATM   13  C   UNL     1      40.522  -9.750  -2.944  1.00  0.00     0.002 A 
HETATM   14  C   UNL     1      41.354 -10.298  -1.971  1.00  0.00     0.001 A 
HETATM   15  H   UNL     1      37.359 -12.418  -3.749  1.00  0.00     0.165 HD
HETATM   16  C   UNL     1      38.227 -13.682  -2.288  1.00  0.00     0.102 A 
ENDBRANCH   6   7
ENDBRANCH   2   5
BRANCH   1  17
HETATM   17  C   UNL     1      40.991 -16.026   3.747  1.00  0.00     0.280 C 
BRANCH  17  18
HETATM   18  O   UNL     1      42.400 -16.093   3.538  1.00  0.00    -0.341 OA
BRANCH  18  19
HETATM   19  C   UNL     1      42.911 -17.363   3.430  1.00  0.00     0.076 A 
HETATM   20  C   UNL     1      43.552 -17.902   4.563  1.00  0.00    -0.021 A 
HETATM   21  C   UNL     1      44.046 -19.217   4.483  1.00  0.00     0.010 A 
HETATM   22  C   UNL     1      43.951 -19.951   3.299  1.00  0.00     0.001 A 
HETATM   23  C   UNL     1      43.367 -19.383   2.172  1.00  0.00     0.003 A 
HETATM   24  C   UNL     1      42.853 -18.088   2.234  1.00  0.00     0.037 A 
BRANCH  20  25
HETATM   25  C   UNL     1      43.661 -17.093   5.850  1.00  0.00     0.013 C 
HETATM   26  C   UNL     1      45.018 -16.406   6.050  1.00  0.00     0.015 C 
HETATM   27  C   UNL     1      43.327 -17.970   7.059  1.00  0.00     0.015 C 
ENDBRANCH  20  25
ENDBRANCH  18  19
ENDBRANCH  17  18
ENDBRANCH   1  17
TORSDOF 6
ENDMDL
MODEL 10
REMARK VINA RESULT:      -7.5      2.429      8.698
REMARK  6 active torsions:
REMARK  status: ('A' for Active; 'I' for Inactive)
REMARK    1  A    between atoms: C_2  and  C_3 
REMARK    2  A    between atoms: C_4  and  O_5 
REMARK    3  A    between atoms: O_5  and  C_6 
REMARK    4  A    between atoms: C_6  and  C_7 
REMARK       I    between atoms: C_7  and  N_8 
REMARK    5  A    between atoms: N_8  and  N_9 
REMARK    6  A    between atoms: C_10  and  C_11 
ROOT
HETATM    1  C   UNL     1      41.479 -11.200   6.048  1.00  0.00     0.261 C 
HETATM    2  N   UNL     1      41.849 -12.381   6.680  1.00  0.00    -0.246 N 
HETATM    3  O   UNL     1      41.331 -11.027   4.841  1.00  0.00    -0.269 OA
HETATM    4  H   UNL     1      41.924 -12.364   7.695  1.00  0.00     0.192 HD
ENDROOT
BRANCH   2   5
HETATM    5  N   UNL     1      42.177 -13.587   6.123  1.00  0.00    -0.184 NA
HETATM    6  C   UNL     1      43.081 -14.341   6.658  1.00  0.00     0.152 C 
BRANCH   6   7
HETATM    7  C   UNL     1      43.385 -15.617   6.032  1.00  0.00     0.011 A 
HETATM    8  C   UNL     1      43.297 -15.940   4.638  1.00  0.00     0.004 A 
HETATM    9  C   UNL     1      43.664 -17.280   4.496  1.00  0.00     0.043 A 
HETATM   10  C   UNL     1      42.929 -15.220   3.481  1.00  0.00     0.014 A 
HETATM   11  C   UNL     1      43.679 -17.935   3.259  1.00  0.00     0.030 A 
HETATM   12  N   UNL     1      43.976 -17.751   5.750  1.00  0.00    -0.364 N 
HETATM   13  C   UNL     1      43.306 -17.200   2.130  1.00  0.00     0.002 A 
HETATM   14  C   UNL     1      42.938 -15.860   2.237  1.00  0.00     0.001 A 
HETATM   15  H   UNL     1      44.277 -18.694   5.950  1.00  0.00     0.165 HD
HETATM   16  C   UNL     1      43.809 -16.762   6.681  1.00  0.00     0.102 A 
ENDBRANCH   6   7
ENDBRANCH   2   5
BRANCH   1  17
HETATM   17  C   UNL     1      41.345 -10.044   7.037  1.00  0.00     0.280 C 
BRANCH  17  18
HETATM   18  O   UNL     1      42.598  -9.405   7.272  1.00  0.00    -0.341 OA
BRANCH  18  19
HETATM   19  C   UNL     1      43.034  -9.445   8.572  1.00  0.00     0.076 A 
HETATM   20  C   UNL     1      44.397  -9.731   8.790  1.00  0.00    -0.021 A 
HETATM   21  C   UNL     1      44.870  -9.737  10.115  1.00  0.00     0.010 A 
HETATM   22  C   UNL     1      44.005  -9.518  11.189  1.00  0.00     0.001 A 
HETATM   23  C   UNL     1      42.652  -9.295  10.960  1.00  0.00     0.003 A 
HETATM   24  C   UNL     1      42.164  -9.265   9.654  1.00  0.00     0.037 A 
BRANCH  20  25
HETATM   25  C   UNL     1      45.334  -9.977   7.615  1.00  0.00     0.013 C 
HETATM   26  C   UNL     1      45.418 -11.444   7.173  1.00  0.00     0.015 C 
HETATM   27  C   UNL     1      46.731  -9.436   7.926  1.00  0.00     0.015 C 
ENDBRANCH  20  25
ENDBRANCH  18  19
ENDBRANCH  17  18
ENDBRANCH   1  17
TORSDOF 6
ENDMDL
