MODEL 1
REMARK VINA RESULT:      -8.7      0.000      0.000
REMARK  6 active torsions:
REMARK  status: ('A' for Active; 'I' for Inactive)
REMARK    1  A    between atoms: O_2  and  C_3 
REMARK    2  A    between atoms: C_6  and  C_7 
REMARK    3  A    between atoms: C_11  and  C_12 
REMARK       I    between atoms: C_12  and  N_13 
REMARK    4  A    between atoms: N_13  and  N_14 
REMARK       I    between atoms: N_14  and  C_15 
REMARK    5  A    between atoms: C_15  and  C_16 
REMARK    6  A    between atoms: C_17  and  C_18 
ROOT
HETATM    1  C   UNL     1      42.991 -11.907   6.925  1.00  0.00     0.288 C 
HETATM    2  N   UNL     1      43.528 -11.662   8.169  1.00  0.00    -0.262 N 
HETATM    3  O   UNL     1      42.511 -11.013   6.231  1.00  0.00    -0.264 OA
HETATM    4  H   UNL     1      43.980 -12.369   8.743  1.00  0.00     0.190 HD
ENDROOT
BRANCH   1   5
HETATM    5  C   UNL     1      43.028 -13.281   6.504  1.00  0.00     0.121 A 
HETATM    6  N   UNL     1      43.081 -14.312   7.399  1.00  0.00    -0.272 N 
HETATM    7  N   UNL     1      43.115 -15.529   6.837  1.00  0.00    -0.174 NA
HETATM    8  H   UNL     1      43.097 -14.239   8.412  1.00  0.00     0.189 HD
HETATM    9  C   UNL     1      43.110 -15.294   5.515  1.00  0.00     0.089 A 
HETATM   10  C   UNL     1      43.041 -13.894   5.267  1.00  0.00     0.071 A 
BRANCH   9  11
HETATM   11  C   UNL     1      43.169 -16.384   4.533  1.00  0.00    -0.005 A 
HETATM   12  C   UNL     1      42.364 -16.353   3.384  1.00  0.00     0.016 A 
HETATM   13  C   UNL     1      42.418 -17.382   2.435  1.00  0.00     0.037 A 
HETATM   14  C   UNL     1      43.279 -18.462   2.620  1.00  0.00     0.068 A 
HETATM   15  C   UNL     1      44.073 -18.507   3.767  1.00  0.00     0.037 A 
HETATM   16  C   UNL     1      44.023 -17.480   4.715  1.00  0.00     0.016 A 
BRANCH  14  17
HETATM   17  O   UNL     1      43.434 -19.526   1.776  1.00  0.00    -0.356 OA
HETATM   18  C   UNL     1      43.810 -20.764   2.365  1.00  0.00     0.210 C 
ENDBRANCH  14  17
ENDBRANCH   9  11
ENDBRANCH   1   5
BRANCH   2  19
HETATM   19  N   UNL     1      43.501 -10.365   8.692  1.00  0.00    -0.267 N 
HETATM   20  C   UNL     1      43.767 -10.208  10.033  1.00  0.00     0.240 C 
HETATM   21  O   UNL     1      43.998 -11.157  10.778  1.00  0.00    -0.271 OA
HETATM   22  H   UNL     1      43.459  -9.599   8.026  1.00  0.00     0.190 HD
BRANCH  20  23
HETATM   23  C   UNL     1      43.754  -8.829  10.585  1.00  0.00     0.089 A 
HETATM   24  C   UNL     1      42.560  -8.256  11.327  1.00  0.00     0.036 A 
HETATM   25  C   UNL     1      43.871  -8.491  12.045  1.00  0.00     0.025 A 
BRANCH  24  26
HETATM   26  C   UNL     1      41.343  -9.087  11.669  1.00  0.00    -0.015 A 
HETATM   27  C   UNL     1      40.368  -9.408  10.710  1.00  0.00     0.123 A 
HETATM   28  F   UNL     1      40.500  -8.952   9.455  1.00  0.00    -0.206 F 
HETATM   29  C   UNL     1      39.256 -10.191  11.013  1.00  0.00     0.043 A 
HETATM   30  C   UNL     1      39.093 -10.687  12.302  1.00  0.00     0.003 A 
HETATM   31  C   UNL     1      40.048 -10.401  13.274  1.00  0.00     0.001 A 
HETATM   32  C   UNL     1      41.162  -9.615  12.958  1.00  0.00     0.011 A 
ENDBRANCH  24  26
ENDBRANCH  20  23
ENDBRANCH   2  19
TORSDOF 6
ENDMDL
MODEL 2
REMARK VINA RESULT:      -8.6      2.576      3.571
REMARK  6 active torsions:
REMARK  status: ('A' for Active; 'I' for Inactive)
REMARK    1  A    between atoms: O_2  and  C_3 
REMARK    2  A    between atoms: C_6  and  C_7 
REMARK    3  A    between atoms: C_11  and  C_12 
REMARK       I    between atoms: C_12  and  N_13 
REMARK    4  A    between atoms: N_13  and  N_14 
REMARK       I    between atoms: N_14  and  C_15 
REMARK    5  A    between atoms: C_15  and  C_16 
REMARK    6  A    between atoms: C_17  and  C_18 
ROOT
HETATM    1  C   UNL     1      39.924 -12.244   6.093  1.00  0.00     0.288 C 
HETATM    2  N   UNL     1      40.944 -11.475   6.607  1.00  0.00    -0.262 N 
HETATM    3  O   UNL     1      38.743 -12.029   6.358  1.00  0.00    -0.264 OA
HETATM    4  H   UNL     1      41.924 -11.594   6.364  1.00  0.00     0.190 HD
ENDROOT
BRANCH   1   5
HETATM    5  C   UNL     1      40.343 -13.318   5.234  1.00  0.00     0.121 A 
HETATM    6  N   UNL     1      39.704 -13.600   4.060  1.00  0.00    -0.272 N 
HETATM    7  N   UNL     1      40.222 -14.636   3.385  1.00  0.00    -0.174 NA
HETATM    8  H   UNL     1      38.902 -13.112   3.671  1.00  0.00     0.189 HD
HETATM    9  C   UNL     1      41.230 -15.076   4.155  1.00  0.00     0.089 A 
HETATM   10  C   UNL     1      41.347 -14.264   5.319  1.00  0.00     0.071 A 
BRANCH   9  11
HETATM   11  C   UNL     1      42.046 -16.236   3.777  1.00  0.00    -0.005 A 
HETATM   12  C   UNL     1      42.966 -16.786   4.682  1.00  0.00     0.016 A 
HETATM   13  C   UNL     1      43.743 -17.900   4.337  1.00  0.00     0.037 A 
HETATM   14  C   UNL     1      43.615 -18.480   3.076  1.00  0.00     0.068 A 
HETATM   15  C   UNL     1      42.712 -17.930   2.165  1.00  0.00     0.037 A 
HETATM   16  C   UNL     1      41.933 -16.821   2.509  1.00  0.00     0.016 A 
BRANCH  14  17
HETATM   17  O   UNL     1      44.305 -19.565   2.613  1.00  0.00    -0.356 OA
HETATM   18  C   UNL     1      43.575 -20.508   1.840  1.00  0.00     0.210 C 
ENDBRANCH  14  17
ENDBRANCH   9  11
ENDBRANCH   1   5
BRANCH   2  19
HETATM   19  N   UNL     1      40.648 -10.433   7.490  1.00  0.00    -0.267 N 
HETATM   20  C   UNL     1      41.186  -9.194   7.226  1.00  0.00     0.240 C 
HETATM   21  O   UNL     1      41.927  -8.984   6.269  1.00  0.00    -0.271 OA
HETATM   22  H   UNL     1      39.917 -10.601   8.177  1.00  0.00     0.190 HD
BRANCH  20  23
HETATM   23  C   UNL     1      40.858  -8.082   8.155  1.00  0.00     0.089 A 
HETATM   24  C   UNL     1      41.646  -7.819   9.426  1.00  0.00     0.036 A 
HETATM   25  C   UNL     1      41.658  -6.818   8.292  1.00  0.00     0.025 A 
BRANCH  24  26
HETATM   26  C   UNL     1      42.899  -8.589   9.777  1.00  0.00    -0.015 A 
HETATM   27  C   UNL     1      42.878  -9.687  10.654  1.00  0.00     0.123 A 
HETATM   28  F   UNL     1      41.718 -10.058  11.218  1.00  0.00    -0.206 F 
HETATM   29  C   UNL     1      44.024 -10.414  10.965  1.00  0.00     0.043 A 
HETATM   30  C   UNL     1      45.241 -10.061  10.390  1.00  0.00     0.003 A 
HETATM   31  C   UNL     1      45.297  -8.989   9.504  1.00  0.00     0.001 A 
HETATM   32  C   UNL     1      44.138  -8.267   9.198  1.00  0.00     0.011 A 
ENDBRANCH  24  26
ENDBRANCH  20  23
ENDBRANCH   2  19
TORSDOF 6
ENDMDL
MODEL 3
REMARK VINA RESULT:      -8.4      2.328      3.446
REMARK  6 active torsions:
REMARK  status: ('A' for Active; 'I' for Inactive)
REMARK    1  A    between atoms: O_2  and  C_3 
REMARK    2  A    between atoms: C_6  and  C_7 
REMARK    3  A    between atoms: C_11  and  C_12 
REMARK       I    between atoms: C_12  and  N_13 
REMARK    4  A    between atoms: N_13  and  N_14 
REMARK       I    between atoms: N_14  and  C_15 
REMARK    5  A    between atoms: C_15  and  C_16 
REMARK    6  A    between atoms: C_17  and  C_18 
ROOT
HETATM    1  C   UNL     1      42.676 -11.975   6.534  1.00  0.00     0.288 C 
HETATM    2  N   UNL     1      41.434 -11.380   6.578  1.00  0.00    -0.262 N 
HETATM    3  O   UNL     1      43.613 -11.586   7.228  1.00  0.00    -0.264 OA
HETATM    4  H   UNL     1      40.626 -11.712   6.058  1.00  0.00     0.190 HD
ENDROOT
BRANCH   1   5
HETATM    5  C   UNL     1      42.794 -13.073   5.615  1.00  0.00     0.121 A 
HETATM    6  N   UNL     1      42.488 -12.946   4.289  1.00  0.00    -0.272 N 
HETATM    7  N   UNL     1      42.650 -14.069   3.576  1.00  0.00    -0.174 NA
HETATM    8  H   UNL     1      42.162 -12.107   3.817  1.00  0.00     0.189 HD
HETATM    9  C   UNL     1      43.054 -14.987   4.469  1.00  0.00     0.089 A 
HETATM   10  C   UNL     1      43.171 -14.394   5.759  1.00  0.00     0.071 A 
BRANCH   9  11
HETATM   11  C   UNL     1      43.318 -16.379   4.087  1.00  0.00    -0.005 A 
HETATM   12  C   UNL     1      43.959 -17.254   4.977  1.00  0.00     0.016 A 
HETATM   13  C   UNL     1      44.207 -18.588   4.628  1.00  0.00     0.037 A 
HETATM   14  C   UNL     1      43.819 -19.069   3.379  1.00  0.00     0.068 A 
HETATM   15  C   UNL     1      43.192 -18.202   2.483  1.00  0.00     0.037 A 
HETATM   16  C   UNL     1      42.941 -16.870   2.830  1.00  0.00     0.016 A 
BRANCH  14  17
HETATM   17  O   UNL     1      43.995 -20.342   2.914  1.00  0.00    -0.356 OA
HETATM   18  C   UNL     1      43.595 -20.597   1.574  1.00  0.00     0.210 C 
ENDBRANCH  14  17
ENDBRANCH   9  11
ENDBRANCH   1   5
BRANCH   2  19
HETATM   19  N   UNL     1      41.225 -10.274   7.407  1.00  0.00    -0.267 N 
HETATM   20  C   UNL     1      41.432  -9.022   6.872  1.00  0.00     0.240 C 
HETATM   21  O   UNL     1      41.811  -8.851   5.716  1.00  0.00    -0.271 OA
HETATM   22  H   UNL     1      40.769 -10.443   8.299  1.00  0.00     0.190 HD
BRANCH  20  23
HETATM   23  C   UNL     1      41.194  -7.846   7.747  1.00  0.00     0.089 A 
HETATM   24  C   UNL     1      42.017  -7.575   8.993  1.00  0.00     0.036 A 
HETATM   25  C   UNL     1      42.080  -6.634   7.810  1.00  0.00     0.025 A 
BRANCH  24  26
HETATM   26  C   UNL     1      43.221  -8.410   9.368  1.00  0.00    -0.015 A 
HETATM   27  C   UNL     1      43.139  -9.455  10.305  1.00  0.00     0.123 A 
HETATM   28  F   UNL     1      41.967  -9.712  10.906  1.00  0.00    -0.206 F 
HETATM   29  C   UNL     1      44.238 -10.242  10.639  1.00  0.00     0.043 A 
HETATM   30  C   UNL     1      45.466 -10.007  10.027  1.00  0.00     0.003 A 
HETATM   31  C   UNL     1      45.580  -8.991   9.082  1.00  0.00     0.001 A 
HETATM   32  C   UNL     1      44.468  -8.207   8.754  1.00  0.00     0.011 A 
ENDBRANCH  24  26
ENDBRANCH  20  23
ENDBRANCH   2  19
TORSDOF 6
ENDMDL
MODEL 4
REMARK VINA RESULT:      -8.3      1.538      1.739
REMARK  6 active torsions:
REMARK  status: ('A' for Active; 'I' for Inactive)
REMARK    1  A    between atoms: O_2  and  C_3 
REMARK    2  A    between atoms: C_6  and  C_7 
REMARK    3  A    between atoms: C_11  and  C_12 
REMARK       I    between atoms: C_12  and  N_13 
REMARK    4  A    between atoms: N_13  and  N_14 
REMARK       I    between atoms: N_14  and  C_15 
REMARK    5  A    between atoms: C_15  and  C_16 
REMARK    6  A    between atoms: C_17  and  C_18 
ROOT
HETATM    1  C   UNL     1      42.726 -11.314   6.336  1.00  0.00     0.288 C 
HETATM    2  N   UNL     1      43.934 -11.015   6.927  1.00  0.00    -0.262 N 
HETATM    3  O   UNL     1      41.723 -10.626   6.512  1.00  0.00    -0.264 OA
HETATM    4  H   UNL     1      44.793 -11.533   6.758  1.00  0.00     0.190 HD
ENDROOT
BRANCH   1   5
HETATM    5  C   UNL     1      42.725 -12.490   5.509  1.00  0.00     0.121 A 
HETATM    6  N   UNL     1      42.100 -12.523   4.295  1.00  0.00    -0.272 N 
HETATM    7  N   UNL     1      42.194 -13.699   3.659  1.00  0.00    -0.174 NA
HETATM    8  H   UNL     1      41.592 -11.763   3.851  1.00  0.00     0.189 HD
HETATM    9  C   UNL     1      42.886 -14.487   4.497  1.00  0.00     0.089 A 
HETATM   10  C   UNL     1      43.251 -13.757   5.664  1.00  0.00     0.071 A 
BRANCH   9  11
HETATM   11  C   UNL     1      43.183 -15.888   4.177  1.00  0.00    -0.005 A 
HETATM   12  C   UNL     1      43.017 -16.373   2.871  1.00  0.00     0.016 A 
HETATM   13  C   UNL     1      43.308 -17.706   2.551  1.00  0.00     0.037 A 
HETATM   14  C   UNL     1      43.768 -18.579   3.536  1.00  0.00     0.068 A 
HETATM   15  C   UNL     1      43.922 -18.108   4.841  1.00  0.00     0.037 A 
HETATM   16  C   UNL     1      43.636 -16.776   5.161  1.00  0.00     0.016 A 
BRANCH  14  17
HETATM   17  O   UNL     1      44.090 -19.895   3.361  1.00  0.00    -0.356 OA
HETATM   18  C   UNL     1      44.056 -20.723   4.516  1.00  0.00     0.210 C 
ENDBRANCH  14  17
ENDBRANCH   9  11
ENDBRANCH   1   5
BRANCH   2  19
HETATM   19  N   UNL     1      44.032  -9.917   7.787  1.00  0.00    -0.267 N 
HETATM   20  C   UNL     1      44.148 -10.166   9.135  1.00  0.00     0.240 C 
HETATM   21  O   UNL     1      44.145 -11.302   9.602  1.00  0.00    -0.271 OA
HETATM   22  H   UNL     1      44.184  -9.008   7.361  1.00  0.00     0.190 HD
BRANCH  20  23
HETATM   23  C   UNL     1      44.269  -9.000  10.048  1.00  0.00     0.089 A 
HETATM   24  C   UNL     1      43.061  -8.245  10.572  1.00  0.00     0.036 A 
HETATM   25  C   UNL     1      43.948  -9.026  11.516  1.00  0.00     0.025 A 
BRANCH  24  26
HETATM   26  C   UNL     1      41.643  -8.698  10.308  1.00  0.00    -0.015 A 
HETATM   27  C   UNL     1      40.968  -8.376   9.118  1.00  0.00     0.123 A 
HETATM   28  F   UNL     1      41.584  -7.625   8.192  1.00  0.00    -0.206 F 
HETATM   29  C   UNL     1      39.669  -8.808   8.858  1.00  0.00     0.043 A 
HETATM   30  C   UNL     1      39.006  -9.595   9.794  1.00  0.00     0.003 A 
HETATM   31  C   UNL     1      39.649  -9.948  10.977  1.00  0.00     0.001 A 
HETATM   32  C   UNL     1      40.954  -9.508  11.226  1.00  0.00     0.011 A 
ENDBRANCH  24  26
ENDBRANCH  20  23
ENDBRANCH   2  19
TORSDOF 6
ENDMDL
MODEL 5
REMARK VINA RESULT:      -8.1      1.811      2.715
REMARK  6 active torsions:
REMARK  status: ('A' for Active; 'I' for Inactive)
REMARK    1  A    between atoms: O_2  and  C_3 
REMARK    2  A    between atoms: C_6  and  C_7 
REMARK    3  A    between atoms: C_11  and  C_12 
REMARK       I    between atoms: C_12  and  N_13 
REMARK    4  A    between atoms: N_13  and  N_14 
REMARK       I    between atoms: N_14  and  C_15 
REMARK    5  A    between atoms: C_15  and  C_16 
REMARK    6  A    between atoms: C_17  and  C_18 
ROOT
HETATM    1  C   UNL     1      42.219 -11.398   6.439  1.00  0.00     0.288 C 
HETATM    2  N   UNL     1      41.090 -10.936   7.078  1.00  0.00    -0.262 N 
HETATM    3  O   UNL     1      43.191 -10.677   6.222  1.00  0.00    -0.264 OA
HETATM    4  H   UNL     1      40.294 -11.521   7.319  1.00  0.00     0.190 HD
ENDROOT
BRANCH   1   5
HETATM    5  C   UNL     1      42.172 -12.778   6.038  1.00  0.00     0.121 A 
HETATM    6  N   UNL     1      41.189 -13.625   6.466  1.00  0.00    -0.272 N 
HETATM    7  N   UNL     1      41.299 -14.877   6.001  1.00  0.00    -0.174 NA
HETATM    8  H   UNL     1      40.413 -13.395   7.080  1.00  0.00     0.189 HD
HETATM    9  C   UNL     1      42.416 -14.869   5.257  1.00  0.00     0.089 A 
HETATM   10  C   UNL     1      42.985 -13.563   5.243  1.00  0.00     0.071 A 
BRANCH   9  11
HETATM   11  C   UNL     1      42.910 -16.076   4.584  1.00  0.00    -0.005 A 
HETATM   12  C   UNL     1      43.855 -16.905   5.208  1.00  0.00     0.016 A 
HETATM   13  C   UNL     1      44.326 -18.066   4.580  1.00  0.00     0.037 A 
HETATM   14  C   UNL     1      43.861 -18.416   3.314  1.00  0.00     0.068 A 
HETATM   15  C   UNL     1      42.932 -17.589   2.680  1.00  0.00     0.037 A 
HETATM   16  C   UNL     1      42.458 -16.431   3.306  1.00  0.00     0.016 A 
BRANCH  14  17
HETATM   17  O   UNL     1      44.232 -19.516   2.593  1.00  0.00    -0.356 OA
HETATM   18  C   UNL     1      43.189 -20.270   1.989  1.00  0.00     0.210 C 
ENDBRANCH  14  17
ENDBRANCH   9  11
ENDBRANCH   1   5
BRANCH   2  19
HETATM   19  N   UNL     1      41.014  -9.597   7.468  1.00  0.00    -0.267 N 
HETATM   20  C   UNL     1      39.913  -9.199   8.191  1.00  0.00     0.240 C 
HETATM   21  O   UNL     1      38.997  -9.966   8.478  1.00  0.00    -0.271 OA
HETATM   22  H   UNL     1      41.850  -9.031   7.349  1.00  0.00     0.190 HD
BRANCH  20  23
HETATM   23  C   UNL     1      39.840  -7.779   8.620  1.00  0.00     0.089 A 
HETATM   24  C   UNL     1      40.444  -7.286   9.923  1.00  0.00     0.036 A 
HETATM   25  C   UNL     1      40.995  -6.818   8.595  1.00  0.00     0.025 A 
BRANCH  24  26
HETATM   26  C   UNL     1      41.272  -8.178  10.821  1.00  0.00    -0.015 A 
HETATM   27  C   UNL     1      40.683  -9.111  11.691  1.00  0.00     0.123 A 
HETATM   28  F   UNL     1      39.346  -9.208  11.749  1.00  0.00    -0.206 F 
HETATM   29  C   UNL     1      41.440  -9.951  12.505  1.00  0.00     0.043 A 
HETATM   30  C   UNL     1      42.830  -9.882  12.462  1.00  0.00     0.003 A 
HETATM   31  C   UNL     1      43.447  -8.979  11.601  1.00  0.00     0.001 A 
HETATM   32  C   UNL     1      42.676  -8.142  10.787  1.00  0.00     0.011 A 
ENDBRANCH  24  26
ENDBRANCH  20  23
ENDBRANCH   2  19
TORSDOF 6
ENDMDL
MODEL 6
REMARK VINA RESULT:      -7.8      7.379      9.230
REMARK  6 active torsions:
REMARK  status: ('A' for Active; 'I' for Inactive)
REMARK    1  A    between atoms: O_2  and  C_3 
REMARK    2  A    between atoms: C_6  and  C_7 
REMARK    3  A    between atoms: C_11  and  C_12 
REMARK       I    between atoms: C_12  and  N_13 
REMARK    4  A    between atoms: N_13  and  N_14 
REMARK       I    between atoms: N_14  and  C_15 
REMARK    5  A    between atoms: C_15  and  C_16 
REMARK    6  A    between atoms: C_17  and  C_18 
ROOT
HETATM    1  C   UNL     1      39.829 -13.587   0.921  1.00  0.00     0.288 C 
HETATM    2  N   UNL     1      39.378 -13.887  -0.345  1.00  0.00    -0.262 N 
HETATM    3  O   UNL     1      39.327 -12.695   1.602  1.00  0.00    -0.264 OA
HETATM    4  H   UNL     1      39.737 -14.652  -0.910  1.00  0.00     0.190 HD
ENDROOT
BRANCH   1   5
HETATM    5  C   UNL     1      40.932 -14.387   1.382  1.00  0.00     0.121 A 
HETATM    6  N   UNL     1      42.217 -14.149   0.984  1.00  0.00    -0.272 N 
HETATM    7  N   UNL     1      43.120 -14.991   1.504  1.00  0.00    -0.174 NA
HETATM    8  H   UNL     1      42.533 -13.418   0.353  1.00  0.00     0.189 HD
HETATM    9  C   UNL     1      42.402 -15.839   2.258  1.00  0.00     0.089 A 
HETATM   10  C   UNL     1      41.024 -15.482   2.218  1.00  0.00     0.071 A 
BRANCH   9  11
HETATM   11  C   UNL     1      43.027 -16.949   2.987  1.00  0.00    -0.005 A 
HETATM   12  C   UNL     1      43.550 -16.752   4.274  1.00  0.00     0.016 A 
HETATM   13  C   UNL     1      44.140 -17.806   4.985  1.00  0.00     0.037 A 
HETATM   14  C   UNL     1      44.218 -19.077   4.418  1.00  0.00     0.068 A 
HETATM   15  C   UNL     1      43.711 -19.278   3.133  1.00  0.00     0.037 A 
HETATM   16  C   UNL     1      43.120 -18.228   2.422  1.00  0.00     0.016 A 
BRANCH  14  17
HETATM   17  O   UNL     1      44.760 -20.188   4.999  1.00  0.00    -0.356 OA
HETATM   18  C   UNL     1      43.899 -21.306   5.175  1.00  0.00     0.210 C 
ENDBRANCH  14  17
ENDBRANCH   9  11
ENDBRANCH   1   5
BRANCH   2  19
HETATM   19  N   UNL     1      38.340 -13.138  -0.905  1.00  0.00    -0.267 N 
HETATM   20  C   UNL     1      38.666 -12.196  -1.854  1.00  0.00     0.240 C 
HETATM   21  O   UNL     1      39.825 -11.978  -2.200  1.00  0.00    -0.271 OA
HETATM   22  H   UNL     1      37.390 -13.445  -0.712  1.00  0.00     0.190 HD
BRANCH  20  23
HETATM   23  C   UNL     1      37.561 -11.411  -2.461  1.00  0.00     0.089 A 
HETATM   24  C   UNL     1      37.003 -10.153  -1.821  1.00  0.00     0.036 A 
HETATM   25  C   UNL     1      37.729 -10.084  -3.146  1.00  0.00     0.025 A 
BRANCH  24  26
HETATM   26  C   UNL     1      37.614  -9.534  -0.584  1.00  0.00    -0.015 A 
HETATM   27  C   UNL     1      37.242  -9.935   0.711  1.00  0.00     0.123 A 
HETATM   28  F   UNL     1      36.303 -10.882   0.864  1.00  0.00    -0.206 F 
HETATM   29  C   UNL     1      37.816  -9.385   1.854  1.00  0.00     0.043 A 
HETATM   30  C   UNL     1      38.799  -8.408   1.730  1.00  0.00     0.003 A 
HETATM   31  C   UNL     1      39.203  -7.997   0.463  1.00  0.00     0.001 A 
HETATM   32  C   UNL     1      38.621  -8.558  -0.679  1.00  0.00     0.011 A 
ENDBRANCH  24  26
ENDBRANCH  20  23
ENDBRANCH   2  19
TORSDOF 6
ENDMDL
MODEL 7
REMARK VINA RESULT:      -7.7      3.321     10.302
REMARK  6 active torsions:
REMARK  status: ('A' for Active; 'I' for Inactive)
REMARK    1  A    between atoms: O_2  and  C_3 
REMARK    2  A    between atoms: C_6  and  C_7 
REMARK    3  A    between atoms: C_11  and  C_12 
REMARK       I    between atoms: C_12  and  N_13 
REMARK    4  A    between atoms: N_13  and  N_14 
REMARK       I    between atoms: N_14  and  C_15 
REMARK    5  A    between atoms: C_15  and  C_16 
REMARK    6  A    between atoms: C_17  and  C_18 
ROOT
HETATM    1  C   UNL     1      42.637  -9.844   7.684  1.00  0.00     0.288 C 
HETATM    2  N   UNL     1      42.680 -11.115   7.155  1.00  0.00    -0.262 N 
HETATM    3  O   UNL     1      42.495  -8.846   6.981  1.00  0.00    -0.264 OA
HETATM    4  H   UNL     1      42.742 -11.961   7.715  1.00  0.00     0.190 HD
ENDROOT
BRANCH   1   5
HETATM    5  C   UNL     1      42.777  -9.772   9.113  1.00  0.00     0.121 A 
HETATM    6  N   UNL     1      43.380 -10.764   9.833  1.00  0.00    -0.272 N 
HETATM    7  N   UNL     1      43.422 -10.539  11.154  1.00  0.00    -0.174 NA
HETATM    8  H   UNL     1      43.783 -11.623   9.469  1.00  0.00     0.189 HD
HETATM    9  C   UNL     1      42.798  -9.362  11.320  1.00  0.00     0.089 A 
HETATM   10  C   UNL     1      42.392  -8.842  10.058  1.00  0.00     0.071 A 
BRANCH   9  11
HETATM   11  C   UNL     1      42.606  -8.766  12.647  1.00  0.00    -0.005 A 
HETATM   12  C   UNL     1      43.364  -7.655  13.047  1.00  0.00     0.016 A 
HETATM   13  C   UNL     1      43.182  -7.070  14.308  1.00  0.00     0.037 A 
HETATM   14  C   UNL     1      42.238  -7.589  15.192  1.00  0.00     0.068 A 
HETATM   15  C   UNL     1      41.490  -8.703  14.807  1.00  0.00     0.037 A 
HETATM   16  C   UNL     1      41.668  -9.287  13.548  1.00  0.00     0.016 A 
BRANCH  14  17
HETATM   17  O   UNL     1      41.958  -7.117  16.443  1.00  0.00    -0.356 OA
HETATM   18  C   UNL     1      40.846  -7.695  17.113  1.00  0.00     0.210 C 
ENDBRANCH  14  17
ENDBRANCH   9  11
ENDBRANCH   1   5
BRANCH   2  19
HETATM   19  N   UNL     1      42.598 -11.292   5.771  1.00  0.00    -0.267 N 
HETATM   20  C   UNL     1      43.753 -11.617   5.096  1.00  0.00     0.240 C 
HETATM   21  O   UNL     1      44.839 -11.730   5.658  1.00  0.00    -0.271 OA
HETATM   22  H   UNL     1      41.668 -11.342   5.365  1.00  0.00     0.190 HD
BRANCH  20  23
HETATM   23  C   UNL     1      43.663 -11.821   3.627  1.00  0.00     0.089 A 
HETATM   24  C   UNL     1      43.158 -13.114   3.011  1.00  0.00     0.036 A 
HETATM   25  C   UNL     1      42.382 -11.827   2.842  1.00  0.00     0.025 A 
BRANCH  24  26
HETATM   26  C   UNL     1      42.592 -14.242   3.844  1.00  0.00    -0.015 A 
HETATM   27  C   UNL     1      41.209 -14.459   3.961  1.00  0.00     0.123 A 
HETATM   28  F   UNL     1      40.355 -13.633   3.335  1.00  0.00    -0.206 F 
HETATM   29  C   UNL     1      40.681 -15.509   4.708  1.00  0.00     0.043 A 
HETATM   30  C   UNL     1      41.538 -16.389   5.362  1.00  0.00     0.003 A 
HETATM   31  C   UNL     1      42.915 -16.213   5.255  1.00  0.00     0.001 A 
HETATM   32  C   UNL     1      43.434 -15.155   4.500  1.00  0.00     0.011 A 
ENDBRANCH  24  26
ENDBRANCH  20  23
ENDBRANCH   2  19
TORSDOF 6
ENDMDL
MODEL 8
REMARK VINA RESULT:      -7.7      2.712      3.692
REMARK  6 active torsions:
REMARK  status: ('A' for Active; 'I' for Inactive)
REMARK    1  A    between atoms: O_2  and  C_3 
REMARK    2  A    between atoms: C_6  and  C_7 
REMARK    3  A    between atoms: C_11  and  C_12 
REMARK       I    between atoms: C_12  and  N_13 
REMARK    4  A    between atoms: N_13  and  N_14 
REMARK       I    between atoms: N_14  and  C_15 
REMARK    5  A    between atoms: C_15  and  C_16 
REMARK    6  A    between atoms: C_17  and  C_18 
ROOT
HETATM    1  C   UNL     1      39.315 -10.865   6.340  1.00  0.00     0.288 C 
HETATM    2  N   UNL     1      40.102 -10.536   7.422  1.00  0.00    -0.262 N 
HETATM    3  O   UNL     1      38.280 -10.258   6.073  1.00  0.00    -0.264 OA
HETATM    4  H   UNL     1      40.990 -10.983   7.636  1.00  0.00     0.190 HD
ENDROOT
BRANCH   1   5
HETATM    5  C   UNL     1      39.790 -11.971   5.554  1.00  0.00     0.121 A 
HETATM    6  N   UNL     1      39.231 -12.301   4.352  1.00  0.00    -0.272 N 
HETATM    7  N   UNL     1      39.792 -13.362   3.755  1.00  0.00    -0.174 NA
HETATM    8  H   UNL     1      38.458 -11.830   3.891  1.00  0.00     0.189 HD
HETATM    9  C   UNL     1      40.745 -13.770   4.608  1.00  0.00     0.089 A 
HETATM   10  C   UNL     1      40.785 -12.911   5.744  1.00  0.00     0.071 A 
BRANCH   9  11
HETATM   11  C   UNL     1      41.584 -14.942   4.333  1.00  0.00    -0.005 A 
HETATM   12  C   UNL     1      42.727 -15.199   5.105  1.00  0.00     0.016 A 
HETATM   13  C   UNL     1      43.529 -16.321   4.858  1.00  0.00     0.037 A 
HETATM   14  C   UNL     1      43.203 -17.204   3.831  1.00  0.00     0.068 A 
HETATM   15  C   UNL     1      42.075 -16.948   3.049  1.00  0.00     0.037 A 
HETATM   16  C   UNL     1      41.271 -15.830   3.295  1.00  0.00     0.016 A 
BRANCH  14  17
HETATM   17  O   UNL     1      43.893 -18.332   3.486  1.00  0.00    -0.356 OA
HETATM   18  C   UNL     1      44.256 -19.211   4.543  1.00  0.00     0.210 C 
ENDBRANCH  14  17
ENDBRANCH   9  11
ENDBRANCH   1   5
BRANCH   2  19
HETATM   19  N   UNL     1      39.706  -9.504   8.277  1.00  0.00    -0.267 N 
HETATM   20  C   UNL     1      38.971  -9.839   9.391  1.00  0.00     0.240 C 
HETATM   21  O   UNL     1      38.637 -10.995   9.641  1.00  0.00    -0.271 OA
HETATM   22  H   UNL     1      40.124  -8.590   8.125  1.00  0.00     0.190 HD
BRANCH  20  23
HETATM   23  C   UNL     1      38.564  -8.744  10.309  1.00  0.00     0.089 A 
HETATM   24  C   UNL     1      39.493  -8.177  11.367  1.00  0.00     0.036 A 
HETATM   25  C   UNL     1      39.037  -7.322  10.206  1.00  0.00     0.025 A 
BRANCH  24  26
HETATM   26  C   UNL     1      40.941  -8.596  11.484  1.00  0.00    -0.015 A 
HETATM   27  C   UNL     1      41.327  -9.758  12.174  1.00  0.00     0.123 A 
HETATM   28  F   UNL     1      40.391 -10.515  12.767  1.00  0.00    -0.206 F 
HETATM   29  C   UNL     1      42.657 -10.162  12.267  1.00  0.00     0.043 A 
HETATM   30  C   UNL     1      43.651  -9.404  11.655  1.00  0.00     0.003 A 
HETATM   31  C   UNL     1      43.304  -8.255  10.950  1.00  0.00     0.001 A 
HETATM   32  C   UNL     1      41.964  -7.861  10.862  1.00  0.00     0.011 A 
ENDBRANCH  24  26
ENDBRANCH  20  23
ENDBRANCH   2  19
TORSDOF 6
ENDMDL
MODEL 9
REMARK VINA RESULT:      -7.6      6.614     10.101
REMARK  6 active torsions:
REMARK  status: ('A' for Active; 'I' for Inactive)
REMARK    1  A    between atoms: O_2  and  C_3 
REMARK    2  A    between atoms: C_6  and  C_7 
REMARK    3  A    between atoms: C_11  and  C_12 
REMARK       I    between atoms: C_12  and  N_13 
REMARK    4  A    between atoms: N_13  and  N_14 
REMARK       I    between atoms: N_14  and  C_15 
REMARK    5  A    between atoms: C_15  and  C_16 
REMARK    6  A    between atoms: C_17  and  C_18 
ROOT
HETATM    1  C   UNL     1      40.656  -7.556  15.265  1.00  0.00     0.288 C 
HETATM    2  N   UNL     1      40.934  -8.315  16.380  1.00  0.00    -0.262 N 
HETATM    3  O   UNL     1      39.970  -6.538  15.319  1.00  0.00    -0.264 OA
HETATM    4  H   UNL     1      41.542  -9.130  16.376  1.00  0.00     0.190 HD
ENDROOT
BRANCH   1   5
HETATM    5  C   UNL     1      41.219  -8.047  14.037  1.00  0.00     0.121 A 
HETATM    6  N   UNL     1      40.679  -9.105  13.363  1.00  0.00    -0.272 N 
HETATM    7  N   UNL     1      41.331  -9.435  12.239  1.00  0.00    -0.174 NA
HETATM    8  H   UNL     1      39.858  -9.642  13.630  1.00  0.00     0.189 HD
HETATM    9  C   UNL     1      42.363  -8.578  12.179  1.00  0.00     0.089 A 
HETATM   10  C   UNL     1      42.317  -7.680  13.284  1.00  0.00     0.071 A 
BRANCH   9  11
HETATM   11  C   UNL     1      43.350  -8.626  11.094  1.00  0.00    -0.005 A 
HETATM   12  C   UNL     1      43.347  -7.654  10.083  1.00  0.00     0.016 A 
HETATM   13  C   UNL     1      44.291  -7.683   9.048  1.00  0.00     0.037 A 
HETATM   14  C   UNL     1      45.254  -8.689   9.005  1.00  0.00     0.068 A 
HETATM   15  C   UNL     1      45.255  -9.668  10.001  1.00  0.00     0.037 A 
HETATM   16  C   UNL     1      44.316  -9.639  11.037  1.00  0.00     0.016 A 
BRANCH  14  17
HETATM   17  O   UNL     1      46.230  -8.834   8.060  1.00  0.00    -0.356 OA
HETATM   18  C   UNL     1      46.315 -10.096   7.412  1.00  0.00     0.210 C 
ENDBRANCH  14  17
ENDBRANCH   9  11
ENDBRANCH   1   5
BRANCH   2  19
HETATM   19  N   UNL     1      40.397  -7.950  17.618  1.00  0.00    -0.267 N 
HETATM   20  C   UNL     1      41.207  -7.263  18.493  1.00  0.00     0.240 C 
HETATM   21  O   UNL     1      42.376  -6.987  18.235  1.00  0.00    -0.271 OA
HETATM   22  H   UNL     1      39.393  -8.057  17.737  1.00  0.00     0.190 HD
BRANCH  20  23
HETATM   23  C   UNL     1      40.631  -6.860  19.801  1.00  0.00     0.089 A 
HETATM   24  C   UNL     1      40.833  -7.672  21.068  1.00  0.00     0.036 A 
HETATM   25  C   UNL     1      41.421  -6.284  20.943  1.00  0.00     0.025 A 
BRANCH  24  26
HETATM   26  C   UNL     1      41.739  -8.883  21.119  1.00  0.00    -0.015 A 
HETATM   27  C   UNL     1      41.306 -10.154  20.707  1.00  0.00     0.123 A 
HETATM   28  F   UNL     1      40.047 -10.314  20.272  1.00  0.00    -0.206 F 
HETATM   29  C   UNL     1      42.141 -11.269  20.731  1.00  0.00     0.043 A 
HETATM   30  C   UNL     1      43.456 -11.135  21.169  1.00  0.00     0.003 A 
HETATM   31  C   UNL     1      43.923  -9.887  21.570  1.00  0.00     0.001 A 
HETATM   32  C   UNL     1      43.075  -8.774  21.540  1.00  0.00     0.011 A 
ENDBRANCH  24  26
ENDBRANCH  20  23
ENDBRANCH   2  19
TORSDOF 6
ENDMDL
MODEL 10
REMARK VINA RESULT:      -7.6      3.398     10.107
REMARK  6 active torsions:
REMARK  status: ('A' for Active; 'I' for Inactive)
REMARK    1  A    between atoms: O_2  and  C_3 
REMARK    2  A    between atoms: C_6  and  C_7 
REMARK    3  A    between atoms: C_11  and  C_12 
REMARK       I    between atoms: C_12  and  N_13 
REMARK    4  A    between atoms: N_13  and  N_14 
REMARK       I    between atoms: N_14  and  C_15 
REMARK    5  A    between atoms: C_15  and  C_16 
REMARK    6  A    between atoms: C_17  and  C_18 
ROOT
HETATM    1  C   UNL     1      43.506 -10.790   7.037  1.00  0.00     0.288 C 
HETATM    2  N   UNL     1      42.222 -11.069   6.622  1.00  0.00    -0.262 N 
HETATM    3  O   UNL     1      44.465 -10.825   6.269  1.00  0.00    -0.264 OA
HETATM    4  H   UNL     1      41.403 -10.995   7.220  1.00  0.00     0.190 HD
ENDROOT
BRANCH   1   5
HETATM    5  C   UNL     1      43.639 -10.464   8.431  1.00  0.00     0.121 A 
HETATM    6  N   UNL     1      44.757 -10.787   9.147  1.00  0.00    -0.272 N 
HETATM    7  N   UNL     1      44.714 -10.415  10.434  1.00  0.00    -0.174 NA
HETATM    8  H   UNL     1      45.584 -11.266   8.802  1.00  0.00     0.189 HD
HETATM    9  C   UNL     1      43.507  -9.845  10.585  1.00  0.00     0.089 A 
HETATM   10  C   UNL     1      42.809  -9.844   9.343  1.00  0.00     0.071 A 
BRANCH   9  11
HETATM   11  C   UNL     1      43.052  -9.321  11.878  1.00  0.00    -0.005 A 
HETATM   12  C   UNL     1      43.604  -8.144  12.406  1.00  0.00     0.016 A 
HETATM   13  C   UNL     1      43.170  -7.628  13.634  1.00  0.00     0.037 A 
HETATM   14  C   UNL     1      42.176  -8.284  14.358  1.00  0.00     0.068 A 
HETATM   15  C   UNL     1      41.631  -9.463  13.846  1.00  0.00     0.037 A 
HETATM   16  C   UNL     1      42.061  -9.978  12.618  1.00  0.00     0.016 A 
BRANCH  14  17
HETATM   17  O   UNL     1      41.660  -7.891  15.561  1.00  0.00    -0.356 OA
HETATM   18  C   UNL     1      42.005  -6.588  16.012  1.00  0.00     0.210 C 
ENDBRANCH  14  17
ENDBRANCH   9  11
ENDBRANCH   1   5
BRANCH   2  19
HETATM   19  N   UNL     1      41.989 -11.441   5.296  1.00  0.00    -0.267 N 
HETATM   20  C   UNL     1      40.747 -11.944   4.978  1.00  0.00     0.240 C 
HETATM   21  O   UNL     1      39.861 -12.096   5.815  1.00  0.00    -0.271 OA
HETATM   22  H   UNL     1      42.682 -11.162   4.607  1.00  0.00     0.190 HD
BRANCH  20  23
HETATM   23  C   UNL     1      40.494 -12.324   3.565  1.00  0.00     0.089 A 
HETATM   24  C   UNL     1      40.899 -13.672   2.996  1.00  0.00     0.036 A 
HETATM   25  C   UNL     1      39.439 -13.296   3.117  1.00  0.00     0.025 A 
BRANCH  24  26
HETATM   26  C   UNL     1      41.476 -14.775   3.855  1.00  0.00    -0.015 A 
HETATM   27  C   UNL     1      42.820 -15.173   3.751  1.00  0.00     0.123 A 
HETATM   28  F   UNL     1      43.617 -14.578   2.850  1.00  0.00    -0.206 F 
HETATM   29  C   UNL     1      43.364 -16.173   4.554  1.00  0.00     0.043 A 
HETATM   30  C   UNL     1      42.566 -16.804   5.504  1.00  0.00     0.003 A 
HETATM   31  C   UNL     1      41.235 -16.424   5.646  1.00  0.00     0.001 A 
HETATM   32  C   UNL     1      40.700 -15.417   4.834  1.00  0.00     0.011 A 
ENDBRANCH  24  26
ENDBRANCH  20  23
ENDBRANCH   2  19
TORSDOF 6
ENDMDL
