MODEL 1
REMARK VINA RESULT:      -8.8      0.000      0.000
REMARK  4 active torsions:
REMARK  status: ('A' for Active; 'I' for Inactive)
REMARK    1  A    between atoms: C_3  and  C_4 
REMARK    2  A    between atoms: C_9  and  N_10 
REMARK       I    between atoms: N_10  and  C_11 
REMARK    3  A    between atoms: C_11  and  C_12 
REMARK    4  A    between atoms: C_16  and  C_17 
ROOT
HETATM    1  N   UNL     1      43.786 -12.816   5.050  1.00  0.00    -0.322 N 
HETATM    2  C   UNL     1      42.922 -12.949   3.981  1.00  0.00     0.276 C 
HETATM    3  O   UNL     1      42.132 -12.109   3.564  1.00  0.00    -0.266 OA
HETATM    4  H   UNL     1      44.343 -13.652   5.218  1.00  0.00     0.169 HD
ENDROOT
BRANCH   2   5
HETATM    5  C   UNL     1      43.006 -14.294   3.381  1.00  0.00     0.147 A 
HETATM    6  N   UNL     1      43.101 -14.479   2.049  1.00  0.00    -0.169 NA
HETATM    7  N   UNL     1      43.197 -15.814   1.917  1.00  0.00    -0.277 N 
HETATM    8  H   UNL     1      43.260 -16.192   0.979  1.00  0.00     0.189 HD
HETATM    9  C   UNL     1      43.224 -16.508   3.101  1.00  0.00     0.063 A 
HETATM   10  C   UNL     1      43.055 -15.532   4.066  1.00  0.00     0.071 A 
BRANCH   9  11
HETATM   11  C   UNL     1      43.411 -17.960   3.209  1.00  0.00    -0.008 A 
HETATM   12  C   UNL     1      43.088 -18.829   2.154  1.00  0.00     0.014 A 
HETATM   13  C   UNL     1      43.302 -20.207   2.266  1.00  0.00     0.001 A 
HETATM   14  C   UNL     1      43.845 -20.739   3.432  1.00  0.00     0.000 A 
HETATM   15  C   UNL     1      44.172 -19.894   4.488  1.00  0.00     0.001 A 
HETATM   16  C   UNL     1      43.955 -18.517   4.377  1.00  0.00     0.014 A 
ENDBRANCH   9  11
ENDBRANCH   2   5
BRANCH   1  17
HETATM   17  C   UNL     1      43.894 -11.752   5.957  1.00  0.00     0.035 A 
HETATM   18  C   UNL     1      42.803 -11.042   6.454  1.00  0.00     0.030 A 
HETATM   19  C   UNL     1      42.990 -10.024   7.394  1.00  0.00     0.018 A 
HETATM   20  C   UNL     1      44.274  -9.706   7.857  1.00  0.00     0.015 A 
HETATM   21  C   UNL     1      45.389 -10.404   7.356  1.00  0.00    -0.046 A 
HETATM   22  C   UNL     1      46.794 -10.111   7.807  1.00  0.00     0.049 C 
HETATM   23  C   UNL     1      45.181 -11.415   6.398  1.00  0.00     0.037 A 
BRANCH  20  24
HETATM   24  C   UNL     1      44.423  -8.626   8.874  1.00  0.00     0.156 C 
HETATM   25  C   UNL     1      44.143  -8.965  10.316  1.00  0.00     0.097 C 
HETATM   26  O   UNL     1      44.748  -7.491   8.536  1.00  0.00    -0.293 OA
ENDBRANCH  20  24
ENDBRANCH   1  17
TORSDOF 4
ENDMDL
MODEL 2
REMARK VINA RESULT:      -8.5      2.993      9.663
REMARK  4 active torsions:
REMARK  status: ('A' for Active; 'I' for Inactive)
REMARK    1  A    between atoms: C_3  and  C_4 
REMARK    2  A    between atoms: C_9  and  N_10 
REMARK       I    between atoms: N_10  and  C_11 
REMARK    3  A    between atoms: C_11  and  C_12 
REMARK    4  A    between atoms: C_16  and  C_17 
ROOT
HETATM    1  N   UNL     1      43.298 -12.413   7.353  1.00  0.00    -0.322 N 
HETATM    2  C   UNL     1      44.227 -11.394   7.433  1.00  0.00     0.276 C 
HETATM    3  O   UNL     1      44.943 -10.979   6.528  1.00  0.00    -0.266 OA
HETATM    4  H   UNL     1      42.825 -12.590   8.238  1.00  0.00     0.169 HD
ENDROOT
BRANCH   2   5
HETATM    5  C   UNL     1      44.319 -10.851   8.800  1.00  0.00     0.147 A 
HETATM    6  N   UNL     1      45.504 -10.586   9.387  1.00  0.00    -0.169 NA
HETATM    7  N   UNL     1      45.162 -10.075  10.583  1.00  0.00    -0.277 N 
HETATM    8  H   UNL     1      45.909  -9.816  11.217  1.00  0.00     0.189 HD
HETATM    9  C   UNL     1      43.811  -9.943  10.787  1.00  0.00     0.063 A 
HETATM   10  C   UNL     1      43.245 -10.487   9.649  1.00  0.00     0.071 A 
BRANCH   9  11
HETATM   11  C   UNL     1      43.205  -9.332  11.977  1.00  0.00    -0.008 A 
HETATM   12  C   UNL     1      42.188  -9.974  12.702  1.00  0.00     0.014 A 
HETATM   13  C   UNL     1      41.644  -9.389  13.851  1.00  0.00     0.001 A 
HETATM   14  C   UNL     1      42.110  -8.155  14.296  1.00  0.00     0.000 A 
HETATM   15  C   UNL     1      43.117  -7.503  13.590  1.00  0.00     0.001 A 
HETATM   16  C   UNL     1      43.658  -8.087  12.440  1.00  0.00     0.014 A 
ENDBRANCH   9  11
ENDBRANCH   2   5
BRANCH   1  17
HETATM   17  C   UNL     1      43.028 -13.266   6.272  1.00  0.00     0.035 A 
HETATM   18  C   UNL     1      42.289 -12.890   5.153  1.00  0.00     0.030 A 
HETATM   19  C   UNL     1      42.105 -13.784   4.095  1.00  0.00     0.018 A 
HETATM   20  C   UNL     1      42.667 -15.068   4.137  1.00  0.00     0.015 A 
HETATM   21  C   UNL     1      43.405 -15.469   5.266  1.00  0.00    -0.046 A 
HETATM   22  C   UNL     1      44.031 -16.832   5.378  1.00  0.00     0.049 C 
HETATM   23  C   UNL     1      43.565 -14.559   6.329  1.00  0.00     0.037 A 
BRANCH  20  24
HETATM   24  C   UNL     1      42.460 -15.980   2.976  1.00  0.00     0.156 C 
HETATM   25  C   UNL     1      43.404 -15.865   1.806  1.00  0.00     0.097 C 
HETATM   26  O   UNL     1      41.534 -16.787   2.973  1.00  0.00    -0.293 OA
ENDBRANCH  20  24
ENDBRANCH   1  17
TORSDOF 4
ENDMDL
MODEL 3
REMARK VINA RESULT:      -8.3      4.978      7.752
REMARK  4 active torsions:
REMARK  status: ('A' for Active; 'I' for Inactive)
REMARK    1  A    between atoms: C_3  and  C_4 
REMARK    2  A    between atoms: C_9  and  N_10 
REMARK       I    between atoms: N_10  and  C_11 
REMARK    3  A    between atoms: C_11  and  C_12 
REMARK    4  A    between atoms: C_16  and  C_17 
ROOT
HETATM    1  N   UNL     1      40.594 -14.147   1.280  1.00  0.00    -0.322 N 
HETATM    2  C   UNL     1      41.778 -13.751   1.872  1.00  0.00     0.276 C 
HETATM    3  O   UNL     1      42.314 -12.652   1.780  1.00  0.00    -0.266 OA
HETATM    4  H   UNL     1      40.348 -15.113   1.491  1.00  0.00     0.169 HD
ENDROOT
BRANCH   2   5
HETATM    5  C   UNL     1      42.401 -14.853   2.628  1.00  0.00     0.147 A 
HETATM    6  N   UNL     1      42.807 -14.705   3.905  1.00  0.00    -0.169 NA
HETATM    7  N   UNL     1      43.268 -15.923   4.238  1.00  0.00    -0.277 N 
HETATM    8  H   UNL     1      43.652 -16.045   5.168  1.00  0.00     0.189 HD
HETATM    9  C   UNL     1      43.134 -16.877   3.259  1.00  0.00     0.063 A 
HETATM   10  C   UNL     1      42.609 -16.182   2.185  1.00  0.00     0.071 A 
BRANCH   9  11
HETATM   11  C   UNL     1      43.484 -18.293   3.423  1.00  0.00    -0.008 A 
HETATM   12  C   UNL     1      43.982 -18.797   4.636  1.00  0.00     0.014 A 
HETATM   13  C   UNL     1      44.281 -20.156   4.781  1.00  0.00     0.001 A 
HETATM   14  C   UNL     1      44.085 -21.034   3.719  1.00  0.00     0.000 A 
HETATM   15  C   UNL     1      43.593 -20.553   2.509  1.00  0.00     0.001 A 
HETATM   16  C   UNL     1      43.297 -19.194   2.364  1.00  0.00     0.014 A 
ENDBRANCH   9  11
ENDBRANCH   2   5
BRANCH   1  17
HETATM   17  C   UNL     1      39.792 -13.439   0.373  1.00  0.00     0.035 A 
HETATM   18  C   UNL     1      39.162 -12.233   0.673  1.00  0.00     0.030 A 
HETATM   19  C   UNL     1      38.417 -11.564  -0.302  1.00  0.00     0.018 A 
HETATM   20  C   UNL     1      38.299 -12.088  -1.597  1.00  0.00     0.015 A 
HETATM   21  C   UNL     1      38.918 -13.311  -1.913  1.00  0.00    -0.046 A 
HETATM   22  C   UNL     1      38.827 -13.932  -3.280  1.00  0.00     0.049 C 
HETATM   23  C   UNL     1      39.649 -13.979  -0.912  1.00  0.00     0.037 A 
BRANCH  20  24
HETATM   24  C   UNL     1      37.511 -11.328  -2.609  1.00  0.00     0.156 C 
HETATM   25  C   UNL     1      38.212 -10.245  -3.388  1.00  0.00     0.097 C 
HETATM   26  O   UNL     1      36.320 -11.572  -2.784  1.00  0.00    -0.293 OA
ENDBRANCH  20  24
ENDBRANCH   1  17
TORSDOF 4
ENDMDL
MODEL 4
REMARK VINA RESULT:      -8.3      1.692      2.220
REMARK  4 active torsions:
REMARK  status: ('A' for Active; 'I' for Inactive)
REMARK    1  A    between atoms: C_3  and  C_4 
REMARK    2  A    between atoms: C_9  and  N_10 
REMARK       I    between atoms: N_10  and  C_11 
REMARK    3  A    between atoms: C_11  and  C_12 
REMARK    4  A    between atoms: C_16  and  C_17 
ROOT
HETATM    1  N   UNL     1      43.337 -12.860   6.248  1.00  0.00    -0.322 N 
HETATM    2  C   UNL     1      43.253 -14.163   6.698  1.00  0.00     0.276 C 
HETATM    3  O   UNL     1      43.237 -14.537   7.866  1.00  0.00    -0.266 OA
HETATM    4  H   UNL     1      43.342 -12.790   5.231  1.00  0.00     0.169 HD
ENDROOT
BRANCH   2   5
HETATM    5  C   UNL     1      43.233 -15.123   5.580  1.00  0.00     0.147 A 
HETATM    6  N   UNL     1      43.178 -14.723   4.293  1.00  0.00    -0.169 NA
HETATM    7  N   UNL     1      43.221 -15.873   3.598  1.00  0.00    -0.277 N 
HETATM    8  H   UNL     1      43.171 -15.816   2.588  1.00  0.00     0.189 HD
HETATM    9  C   UNL     1      43.355 -17.004   4.365  1.00  0.00     0.063 A 
HETATM   10  C   UNL     1      43.320 -16.534   5.665  1.00  0.00     0.071 A 
BRANCH   9  11
HETATM   11  C   UNL     1      43.510 -18.361   3.826  1.00  0.00    -0.008 A 
HETATM   12  C   UNL     1      43.246 -18.657   2.479  1.00  0.00     0.014 A 
HETATM   13  C   UNL     1      43.429 -19.950   1.977  1.00  0.00     0.001 A 
HETATM   14  C   UNL     1      43.883 -20.968   2.812  1.00  0.00     0.000 A 
HETATM   15  C   UNL     1      44.150 -20.693   4.150  1.00  0.00     0.001 A 
HETATM   16  C   UNL     1      43.964 -19.401   4.651  1.00  0.00     0.014 A 
ENDBRANCH   9  11
ENDBRANCH   2   5
BRANCH   1  17
HETATM   17  C   UNL     1      43.522 -11.688   6.996  1.00  0.00     0.035 A 
HETATM   18  C   UNL     1      44.596 -11.480   7.858  1.00  0.00     0.030 A 
HETATM   19  C   UNL     1      44.736 -10.264   8.533  1.00  0.00     0.018 A 
HETATM   20  C   UNL     1      43.806  -9.232   8.347  1.00  0.00     0.015 A 
HETATM   21  C   UNL     1      42.708  -9.429   7.489  1.00  0.00    -0.046 A 
HETATM   22  C   UNL     1      41.671  -8.366   7.247  1.00  0.00     0.049 C 
HETATM   23  C   UNL     1      42.576 -10.667   6.832  1.00  0.00     0.037 A 
BRANCH  20  24
HETATM   24  C   UNL     1      44.007  -7.945   9.072  1.00  0.00     0.156 C 
HETATM   25  C   UNL     1      43.258  -7.731  10.362  1.00  0.00     0.097 C 
HETATM   26  O   UNL     1      44.752  -7.081   8.616  1.00  0.00    -0.293 OA
ENDBRANCH  20  24
ENDBRANCH   1  17
TORSDOF 4
ENDMDL
MODEL 5
REMARK VINA RESULT:      -8.1      3.040      9.859
REMARK  4 active torsions:
REMARK  status: ('A' for Active; 'I' for Inactive)
REMARK    1  A    between atoms: C_3  and  C_4 
REMARK    2  A    between atoms: C_9  and  N_10 
REMARK       I    between atoms: N_10  and  C_11 
REMARK    3  A    between atoms: C_11  and  C_12 
REMARK    4  A    between atoms: C_16  and  C_17 
ROOT
HETATM    1  N   UNL     1      43.507 -12.279   7.217  1.00  0.00    -0.322 N 
HETATM    2  C   UNL     1      44.603 -11.454   7.373  1.00  0.00     0.276 C 
HETATM    3  O   UNL     1      45.555 -11.343   6.608  1.00  0.00    -0.266 OA
HETATM    4  H   UNL     1      42.843 -12.209   7.986  1.00  0.00     0.169 HD
ENDROOT
BRANCH   2   5
HETATM    5  C   UNL     1      44.543 -10.708   8.643  1.00  0.00     0.147 A 
HETATM    6  N   UNL     1      45.506 -10.813   9.581  1.00  0.00    -0.169 NA
HETATM    7  N   UNL     1      45.110  -9.961  10.544  1.00  0.00    -0.277 N 
HETATM    8  H   UNL     1      45.684  -9.889  11.375  1.00  0.00     0.189 HD
HETATM    9  C   UNL     1      43.962  -9.264  10.258  1.00  0.00     0.063 A 
HETATM   10  C   UNL     1      43.555  -9.773   9.039  1.00  0.00     0.071 A 
BRANCH   9  11
HETATM   11  C   UNL     1      43.388  -8.221  11.116  1.00  0.00    -0.008 A 
HETATM   12  C   UNL     1      42.763  -7.083  10.581  1.00  0.00     0.014 A 
HETATM   13  C   UNL     1      42.194  -6.114  11.415  1.00  0.00     0.001 A 
HETATM   14  C   UNL     1      42.238  -6.268  12.798  1.00  0.00     0.000 A 
HETATM   15  C   UNL     1      42.853  -7.389  13.347  1.00  0.00     0.001 A 
HETATM   16  C   UNL     1      43.423  -8.355  12.513  1.00  0.00     0.014 A 
ENDBRANCH   9  11
ENDBRANCH   2   5
BRANCH   1  17
HETATM   17  C   UNL     1      43.273 -13.242   6.223  1.00  0.00     0.035 A 
HETATM   18  C   UNL     1      43.595 -14.590   6.359  1.00  0.00     0.030 A 
HETATM   19  C   UNL     1      43.286 -15.496   5.340  1.00  0.00     0.018 A 
HETATM   20  C   UNL     1      42.642 -15.066   4.172  1.00  0.00     0.015 A 
HETATM   21  C   UNL     1      42.321 -13.706   4.012  1.00  0.00    -0.046 A 
HETATM   22  C   UNL     1      41.634 -13.177   2.783  1.00  0.00     0.049 C 
HETATM   23  C   UNL     1      42.656 -12.806   5.043  1.00  0.00     0.037 A 
BRANCH  20  24
HETATM   24  C   UNL     1      42.315 -16.073   3.121  1.00  0.00     0.156 C 
HETATM   25  C   UNL     1      43.330 -16.323   2.036  1.00  0.00     0.097 C 
HETATM   26  O   UNL     1      41.238 -16.665   3.138  1.00  0.00    -0.293 OA
ENDBRANCH  20  24
ENDBRANCH   1  17
TORSDOF 4
ENDMDL
MODEL 6
REMARK VINA RESULT:      -7.9      5.014      7.675
REMARK  4 active torsions:
REMARK  status: ('A' for Active; 'I' for Inactive)
REMARK    1  A    between atoms: C_3  and  C_4 
REMARK    2  A    between atoms: C_9  and  N_10 
REMARK       I    between atoms: N_10  and  C_11 
REMARK    3  A    between atoms: C_11  and  C_12 
REMARK    4  A    between atoms: C_16  and  C_17 
ROOT
HETATM    1  N   UNL     1      40.675 -13.974   0.876  1.00  0.00    -0.322 N 
HETATM    2  C   UNL     1      41.772 -13.551   1.600  1.00  0.00     0.276 C 
HETATM    3  O   UNL     1      42.245 -12.420   1.624  1.00  0.00    -0.266 OA
HETATM    4  H   UNL     1      40.471 -14.964   1.006  1.00  0.00     0.169 HD
ENDROOT
BRANCH   2   5
HETATM    5  C   UNL     1      42.389 -14.661   2.349  1.00  0.00     0.147 A 
HETATM    6  N   UNL     1      42.878 -14.500   3.595  1.00  0.00    -0.169 NA
HETATM    7  N   UNL     1      43.303 -15.730   3.934  1.00  0.00    -0.277 N 
HETATM    8  H   UNL     1      43.736 -15.847   4.842  1.00  0.00     0.189 HD
HETATM    9  C   UNL     1      43.067 -16.700   2.991  1.00  0.00     0.063 A 
HETATM   10  C   UNL     1      42.510 -16.009   1.931  1.00  0.00     0.071 A 
BRANCH   9  11
HETATM   11  C   UNL     1      43.362 -18.126   3.173  1.00  0.00    -0.008 A 
HETATM   12  C   UNL     1      43.135 -19.066   2.154  1.00  0.00     0.014 A 
HETATM   13  C   UNL     1      43.452 -20.416   2.337  1.00  0.00     0.001 A 
HETATM   14  C   UNL     1      44.004 -20.850   3.539  1.00  0.00     0.000 A 
HETATM   15  C   UNL     1      44.236 -19.934   4.561  1.00  0.00     0.001 A 
HETATM   16  C   UNL     1      43.916 -18.585   4.379  1.00  0.00     0.014 A 
ENDBRANCH   9  11
ENDBRANCH   2   5
BRANCH   1  17
HETATM   17  C   UNL     1      39.918 -13.257  -0.062  1.00  0.00     0.035 A 
HETATM   18  C   UNL     1      40.016 -13.439  -1.440  1.00  0.00     0.030 A 
HETATM   19  C   UNL     1      39.191 -12.718  -2.308  1.00  0.00     0.018 A 
HETATM   20  C   UNL     1      38.249 -11.808  -1.808  1.00  0.00     0.015 A 
HETATM   21  C   UNL     1      38.146 -11.602  -0.420  1.00  0.00    -0.046 A 
HETATM   22  C   UNL     1      37.161 -10.637   0.182  1.00  0.00     0.049 C 
HETATM   23  C   UNL     1      38.997 -12.325   0.437  1.00  0.00     0.037 A 
BRANCH  20  24
HETATM   24  C   UNL     1      37.377 -11.076  -2.772  1.00  0.00     0.156 C 
HETATM   25  C   UNL     1      37.878  -9.769  -3.332  1.00  0.00     0.097 C 
HETATM   26  O   UNL     1      36.277 -11.524  -3.082  1.00  0.00    -0.293 OA
ENDBRANCH  20  24
ENDBRANCH   1  17
TORSDOF 4
ENDMDL
MODEL 7
REMARK VINA RESULT:      -7.9      5.803      7.722
REMARK  4 active torsions:
REMARK  status: ('A' for Active; 'I' for Inactive)
REMARK    1  A    between atoms: C_3  and  C_4 
REMARK    2  A    between atoms: C_9  and  N_10 
REMARK       I    between atoms: N_10  and  C_11 
REMARK    3  A    between atoms: C_11  and  C_12 
REMARK    4  A    between atoms: C_16  and  C_17 
ROOT
HETATM    1  N   UNL     1      41.191 -12.991  -0.433  1.00  0.00    -0.322 N 
HETATM    2  C   UNL     1      40.205 -13.909  -0.129  1.00  0.00     0.276 C 
HETATM    3  O   UNL     1      39.108 -14.015  -0.665  1.00  0.00    -0.266 OA
HETATM    4  H   UNL     1      42.019 -13.087   0.152  1.00  0.00     0.169 HD
ENDROOT
BRANCH   2   5
HETATM    5  C   UNL     1      40.598 -14.771   1.002  1.00  0.00     0.147 A 
HETATM    6  N   UNL     1      39.740 -15.089   1.991  1.00  0.00    -0.169 NA
HETATM    7  N   UNL     1      40.454 -15.907   2.784  1.00  0.00    -0.277 N 
HETATM    8  H   UNL     1      40.008 -16.262   3.621  1.00  0.00     0.189 HD
HETATM    9  C   UNL     1      41.721 -16.183   2.333  1.00  0.00     0.063 A 
HETATM   10  C   UNL     1      41.846 -15.413   1.192  1.00  0.00     0.071 A 
BRANCH   9  11
HETATM   11  C   UNL     1      42.651 -17.116   2.982  1.00  0.00    -0.008 A 
HETATM   12  C   UNL     1      43.088 -18.289   2.347  1.00  0.00     0.014 A 
HETATM   13  C   UNL     1      43.998 -19.150   2.971  1.00  0.00     0.001 A 
HETATM   14  C   UNL     1      44.489 -18.850   4.238  1.00  0.00     0.000 A 
HETATM   15  C   UNL     1      44.068 -17.691   4.884  1.00  0.00     0.001 A 
HETATM   16  C   UNL     1      43.156 -16.833   4.261  1.00  0.00     0.014 A 
ENDBRANCH   9  11
ENDBRANCH   2   5
BRANCH   1  17
HETATM   17  C   UNL     1      41.136 -11.919  -1.337  1.00  0.00     0.035 A 
HETATM   18  C   UNL     1      41.044 -12.074  -2.718  1.00  0.00     0.030 A 
HETATM   19  C   UNL     1      40.945 -10.955  -3.550  1.00  0.00     0.018 A 
HETATM   20  C   UNL     1      40.929  -9.662  -3.009  1.00  0.00     0.015 A 
HETATM   21  C   UNL     1      41.035  -9.486  -1.617  1.00  0.00    -0.046 A 
HETATM   22  C   UNL     1      41.029  -8.127  -0.972  1.00  0.00     0.049 C 
HETATM   23  C   UNL     1      41.150 -10.626  -0.798  1.00  0.00     0.037 A 
BRANCH  20  24
HETATM   24  C   UNL     1      40.803  -8.499  -3.935  1.00  0.00     0.156 C 
HETATM   25  C   UNL     1      39.421  -8.096  -4.383  1.00  0.00     0.097 C 
HETATM   26  O   UNL     1      41.802  -7.904  -4.329  1.00  0.00    -0.293 OA
ENDBRANCH  20  24
ENDBRANCH   1  17
TORSDOF 4
ENDMDL
MODEL 8
REMARK VINA RESULT:      -7.9      6.026      8.962
REMARK  4 active torsions:
REMARK  status: ('A' for Active; 'I' for Inactive)
REMARK    1  A    between atoms: C_3  and  C_4 
REMARK    2  A    between atoms: C_9  and  N_10 
REMARK       I    between atoms: N_10  and  C_11 
REMARK    3  A    between atoms: C_11  and  C_12 
REMARK    4  A    between atoms: C_16  and  C_17 
ROOT
HETATM    1  N   UNL     1      40.786 -15.438   1.095  1.00  0.00    -0.322 N 
HETATM    2  C   UNL     1      40.766 -14.130   0.654  1.00  0.00     0.276 C 
HETATM    3  O   UNL     1      41.434 -13.197   1.086  1.00  0.00    -0.266 OA
HETATM    4  H   UNL     1      40.136 -16.039   0.590  1.00  0.00     0.169 HD
ENDROOT
BRANCH   2   5
HETATM    5  C   UNL     1      39.771 -13.935  -0.417  1.00  0.00     0.147 A 
HETATM    6  N   UNL     1      39.283 -14.965  -1.138  1.00  0.00    -0.169 NA
HETATM    7  N   UNL     1      38.391 -14.386  -1.961  1.00  0.00    -0.277 N 
HETATM    8  H   UNL     1      37.905 -14.979  -2.623  1.00  0.00     0.189 HD
HETATM    9  C   UNL     1      38.232 -13.034  -1.778  1.00  0.00     0.063 A 
HETATM   10  C   UNL     1      39.159 -12.717  -0.802  1.00  0.00     0.071 A 
BRANCH   9  11
HETATM   11  C   UNL     1      37.256 -12.206  -2.497  1.00  0.00    -0.008 A 
HETATM   12  C   UNL     1      36.128 -12.764  -3.120  1.00  0.00     0.014 A 
HETATM   13  C   UNL     1      35.193 -11.955  -3.775  1.00  0.00     0.001 A 
HETATM   14  C   UNL     1      35.369 -10.574  -3.815  1.00  0.00     0.000 A 
HETATM   15  C   UNL     1      36.481 -10.003  -3.204  1.00  0.00     0.001 A 
HETATM   16  C   UNL     1      37.416 -10.813  -2.552  1.00  0.00     0.014 A 
ENDBRANCH   9  11
ENDBRANCH   2   5
BRANCH   1  17
HETATM   17  C   UNL     1      41.483 -15.981   2.185  1.00  0.00     0.035 A 
HETATM   18  C   UNL     1      42.730 -16.593   2.080  1.00  0.00     0.030 A 
HETATM   19  C   UNL     1      43.383 -17.066   3.222  1.00  0.00     0.018 A 
HETATM   20  C   UNL     1      42.799 -16.927   4.489  1.00  0.00     0.015 A 
HETATM   21  C   UNL     1      41.534 -16.323   4.612  1.00  0.00    -0.046 A 
HETATM   22  C   UNL     1      40.850 -16.146   5.939  1.00  0.00     0.049 C 
HETATM   23  C   UNL     1      40.886 -15.868   3.448  1.00  0.00     0.037 A 
BRANCH  20  24
HETATM   24  C   UNL     1      43.542 -17.430   5.680  1.00  0.00     0.156 C 
HETATM   25  C   UNL     1      44.531 -16.505   6.343  1.00  0.00     0.097 C 
HETATM   26  O   UNL     1      43.360 -18.573   6.092  1.00  0.00    -0.293 OA
ENDBRANCH  20  24
ENDBRANCH   1  17
TORSDOF 4
ENDMDL
MODEL 9
REMARK VINA RESULT:      -7.6      5.085      8.788
REMARK  4 active torsions:
REMARK  status: ('A' for Active; 'I' for Inactive)
REMARK    1  A    between atoms: C_3  and  C_4 
REMARK    2  A    between atoms: C_9  and  N_10 
REMARK       I    between atoms: N_10  and  C_11 
REMARK    3  A    between atoms: C_11  and  C_12 
REMARK    4  A    between atoms: C_16  and  C_17 
ROOT
HETATM    1  N   UNL     1      42.084 -15.511   2.097  1.00  0.00    -0.322 N 
HETATM    2  C   UNL     1      42.566 -14.233   1.894  1.00  0.00     0.276 C 
HETATM    3  O   UNL     1      43.658 -13.796   2.238  1.00  0.00    -0.266 OA
HETATM    4  H   UNL     1      41.142 -15.644   1.732  1.00  0.00     0.169 HD
ENDROOT
BRANCH   2   5
HETATM    5  C   UNL     1      41.566 -13.376   1.230  1.00  0.00     0.147 A 
HETATM    6  N   UNL     1      41.581 -12.034   1.350  1.00  0.00    -0.169 NA
HETATM    7  N   UNL     1      40.557 -11.631   0.576  1.00  0.00    -0.277 N 
HETATM    8  H   UNL     1      40.363 -10.639   0.529  1.00  0.00     0.189 HD
HETATM    9  C   UNL     1      39.907 -12.642  -0.088  1.00  0.00     0.063 A 
HETATM   10  C   UNL     1      40.526 -13.793   0.363  1.00  0.00     0.071 A 
BRANCH   9  11
HETATM   11  C   UNL     1      38.819 -12.438  -1.053  1.00  0.00    -0.008 A 
HETATM   12  C   UNL     1      38.326 -13.488  -1.845  1.00  0.00     0.014 A 
HETATM   13  C   UNL     1      37.268 -13.280  -2.737  1.00  0.00     0.001 A 
HETATM   14  C   UNL     1      36.684 -12.021  -2.850  1.00  0.00     0.000 A 
HETATM   15  C   UNL     1      37.159 -10.969  -2.073  1.00  0.00     0.001 A 
HETATM   16  C   UNL     1      38.218 -11.176  -1.184  1.00  0.00     0.014 A 
ENDBRANCH   9  11
ENDBRANCH   2   5
BRANCH   1  17
HETATM   17  C   UNL     1      42.672 -16.562   2.817  1.00  0.00     0.035 A 
HETATM   18  C   UNL     1      43.067 -16.463   4.150  1.00  0.00     0.030 A 
HETATM   19  C   UNL     1      43.603 -17.571   4.812  1.00  0.00     0.018 A 
HETATM   20  C   UNL     1      43.743 -18.800   4.152  1.00  0.00     0.015 A 
HETATM   21  C   UNL     1      43.361 -18.914   2.802  1.00  0.00    -0.046 A 
HETATM   22  C   UNL     1      43.489 -20.201   2.034  1.00  0.00     0.049 C 
HETATM   23  C   UNL     1      42.839 -17.782   2.148  1.00  0.00     0.037 A 
BRANCH  20  24
HETATM   24  C   UNL     1      44.301 -19.959   4.905  1.00  0.00     0.156 C 
HETATM   25  C   UNL     1      43.487 -20.526   6.041  1.00  0.00     0.097 C 
HETATM   26  O   UNL     1      45.400 -20.422   4.614  1.00  0.00    -0.293 OA
ENDBRANCH  20  24
ENDBRANCH   1  17
TORSDOF 4
ENDMDL
MODEL 10
REMARK VINA RESULT:      -7.5      3.226      6.015
REMARK  4 active torsions:
REMARK  status: ('A' for Active; 'I' for Inactive)
REMARK    1  A    between atoms: C_3  and  C_4 
REMARK    2  A    between atoms: C_9  and  N_10 
REMARK       I    between atoms: N_10  and  C_11 
REMARK    3  A    between atoms: C_11  and  C_12 
REMARK    4  A    between atoms: C_16  and  C_17 
ROOT
HETATM    1  N   UNL     1      43.265 -10.261   9.833  1.00  0.00    -0.322 N 
HETATM    2  C   UNL     1      43.408  -9.778   8.548  1.00  0.00     0.276 C 
HETATM    3  O   UNL     1      43.269  -8.616   8.179  1.00  0.00    -0.266 OA
HETATM    4  H   UNL     1      43.421 -11.266   9.900  1.00  0.00     0.169 HD
ENDROOT
BRANCH   2   5
HETATM    5  C   UNL     1      43.712 -10.859   7.592  1.00  0.00     0.147 A 
HETATM    6  N   UNL     1      44.787 -11.659   7.735  1.00  0.00    -0.169 NA
HETATM    7  N   UNL     1      44.684 -12.522   6.708  1.00  0.00    -0.277 N 
HETATM    8  H   UNL     1      45.411 -13.218   6.602  1.00  0.00     0.189 HD
HETATM    9  C   UNL     1      43.563 -12.359   5.932  1.00  0.00     0.063 A 
HETATM   10  C   UNL     1      42.940 -11.248   6.470  1.00  0.00     0.071 A 
BRANCH   9  11
HETATM   11  C   UNL     1      43.193 -13.233   4.812  1.00  0.00    -0.008 A 
HETATM   12  C   UNL     1      43.218 -12.784   3.482  1.00  0.00     0.014 A 
HETATM   13  C   UNL     1      42.891 -13.642   2.426  1.00  0.00     0.001 A 
HETATM   14  C   UNL     1      42.537 -14.964   2.682  1.00  0.00     0.000 A 
HETATM   15  C   UNL     1      42.507 -15.428   3.994  1.00  0.00     0.001 A 
HETATM   16  C   UNL     1      42.831 -14.569   5.049  1.00  0.00     0.014 A 
ENDBRANCH   9  11
ENDBRANCH   2   5
BRANCH   1  17
HETATM   17  C   UNL     1      42.839  -9.577  10.981  1.00  0.00     0.035 A 
HETATM   18  C   UNL     1      43.665  -8.757  11.747  1.00  0.00     0.030 A 
HETATM   19  C   UNL     1      43.152  -8.070  12.851  1.00  0.00     0.018 A 
HETATM   20  C   UNL     1      41.799  -8.188  13.200  1.00  0.00     0.015 A 
HETATM   21  C   UNL     1      40.953  -9.021  12.446  1.00  0.00    -0.046 A 
HETATM   22  C   UNL     1      39.494  -9.195  12.768  1.00  0.00     0.049 C 
HETATM   23  C   UNL     1      41.493  -9.717  11.347  1.00  0.00     0.037 A 
BRANCH  20  24
HETATM   24  C   UNL     1      41.293  -7.420  14.374  1.00  0.00     0.156 C 
HETATM   25  C   UNL     1      41.395  -8.056  15.737  1.00  0.00     0.097 C 
HETATM   26  O   UNL     1      40.792  -6.308  14.224  1.00  0.00    -0.293 OA
ENDBRANCH  20  24
ENDBRANCH   1  17
TORSDOF 4
ENDMDL
