MODEL 1
REMARK VINA RESULT:      -9.3      0.000      0.000
REMARK  9 active torsions:
REMARK  status: ('A' for Active; 'I' for Inactive)
REMARK    1  A    between atoms: C_2  and  O_3 
REMARK    2  A    between atoms: O_3  and  C_4 
REMARK    3  A    between atoms: C_7  and  N_8 
REMARK       I    between atoms: N_8  and  C_9 
REMARK    4  A    between atoms: C_9  and  C_10 
REMARK    5  A    between atoms: C_10  and  S_11 
REMARK    6  A    between atoms: S_11  and  C_12 
REMARK    7  A    between atoms: C_16  and  C_17 
REMARK       I    between atoms: C_17  and  N_18 
REMARK    8  A    between atoms: N_18  and  C_19 
REMARK    9  A    between atoms: C_27  and  C_28 
ROOT
HETATM    1  C   UNL     1      42.694 -11.422   6.757  1.00  0.00     0.087 C 
HETATM    2  N   UNL     1      43.065 -12.599   7.381  1.00  0.00    -0.353 N 
HETATM    3  C   UNL     1      42.765 -13.869   6.926  1.00  0.00     0.019 C 
HETATM    4  C   UNL     1      43.448 -15.003   7.652  1.00  0.00     0.069 C 
HETATM    5  C   UNL     1      41.903 -14.020   5.896  1.00  0.00     0.046 C 
HETATM    6  C   UNL     1      41.165 -12.812   5.324  1.00  0.00     0.104 C 
HETATM    7  C   UNL     1      41.750 -11.460   5.788  1.00  0.00     0.055 C 
HETATM    8  C   UNL     1      41.095 -10.203   5.239  1.00  0.00     0.019 C 
HETATM    9  N   UNL     1      40.552  -9.161   4.785  1.00  0.00    -0.096 N 
HETATM   10  H   UNL     1      43.856 -12.517   8.027  1.00  0.00     0.166 HD
ENDROOT
BRANCH   1  11
HETATM   11  S   UNL     1      43.429  -9.918   7.276  1.00  0.00    -0.102 SA
BRANCH  11  12
HETATM   12  C   UNL     1      44.815 -10.529   8.304  1.00  0.00     0.184 C 
BRANCH  12  13
HETATM   13  C   UNL     1      44.526 -10.421   9.799  1.00  0.00     0.231 C 
HETATM   14  N   UNL     1      43.327  -9.773  10.069  1.00  0.00    -0.327 N 
HETATM   15  H   UNL     1      42.802  -9.428   9.274  1.00  0.00     0.169 HD
HETATM   16  O   UNL     1      45.343 -10.807  10.633  1.00  0.00    -0.272 OA
BRANCH  14  17
HETATM   17  C   UNL     1      42.854  -9.345  11.328  1.00  0.00     0.034 A 
HETATM   18  C   UNL     1      41.788  -9.933  12.008  1.00  0.00     0.032 A 
HETATM   19  C   UNL     1      41.462  -9.515  13.306  1.00  0.00     0.039 A 
HETATM   20  C   UNL     1      42.207  -8.524  13.941  1.00  0.00     0.068 A 
HETATM   21  C   UNL     1      43.222  -7.881  13.239  1.00  0.00     0.039 A 
HETATM   22  C   UNL     1      43.535  -8.283  11.935  1.00  0.00     0.032 A 
BRANCH  20  23
HETATM   23  O   UNL     1      41.851  -8.238  15.232  1.00  0.00    -0.352 OA
BRANCH  23  24
HETATM   24  C   UNL     1      42.287  -6.959  15.701  1.00  0.00     0.171 C 
HETATM   25  C   UNL     1      41.717  -6.743  17.093  1.00  0.00     0.034 C 
ENDBRANCH  23  24
ENDBRANCH  20  23
ENDBRANCH  14  17
ENDBRANCH  12  13
ENDBRANCH  11  12
ENDBRANCH   1  11
BRANCH   6  26
HETATM   26  C   UNL     1      40.981 -12.859   3.809  1.00  0.00    -0.042 A 
HETATM   27  C   UNL     1      39.697 -13.011   3.266  1.00  0.00     0.027 A 
HETATM   28  C   UNL     1      39.554 -13.058   1.888  1.00  0.00     0.116 A 
HETATM   29  N   UNL     1      40.587 -12.968   1.027  1.00  0.00    -0.273 NA
HETATM   30  C   UNL     1      41.816 -12.814   1.563  1.00  0.00     0.116 A 
HETATM   31  C   UNL     1      42.060 -12.743   2.926  1.00  0.00     0.027 A 
ENDBRANCH   6  26
BRANCH   5  32
HETATM   32  C   UNL     1      41.861 -15.354   5.232  1.00  0.00     0.255 C 
HETATM   33  N   UNL     1      43.031 -15.751   4.627  1.00  0.00    -0.323 N 
HETATM   34  H   UNL     1      43.857 -15.189   4.770  1.00  0.00     0.169 HD
HETATM   35  O   UNL     1      40.832 -16.018   5.312  1.00  0.00    -0.268 OA
BRANCH  33  36
HETATM   36  C   UNL     1      43.204 -16.951   3.897  1.00  0.00     0.035 A 
HETATM   37  C   UNL     1      42.657 -17.167   2.625  1.00  0.00     0.031 A 
HETATM   38  C   UNL     1      42.863 -18.375   1.951  1.00  0.00     0.026 A 
HETATM   39  C   UNL     1      43.616 -19.379   2.549  1.00  0.00     0.034 A 
HETATM   40 CL   UNL     1      43.860 -20.869   1.727  1.00  0.00    -0.084 Cl
HETATM   41  C   UNL     1      44.174 -19.178   3.809  1.00  0.00     0.026 A 
HETATM   42  C   UNL     1      43.978 -17.963   4.476  1.00  0.00     0.031 A 
ENDBRANCH  33  36
ENDBRANCH   5  32
TORSDOF 9
ENDMDL
MODEL 2
REMARK VINA RESULT:      -8.9      1.562      1.913
REMARK  9 active torsions:
REMARK  status: ('A' for Active; 'I' for Inactive)
REMARK    1  A    between atoms: C_2  and  O_3 
REMARK    2  A    between atoms: O_3  and  C_4 
REMARK    3  A    between atoms: C_7  and  N_8 
REMARK       I    between atoms: N_8  and  C_9 
REMARK    4  A    between atoms: C_9  and  C_10 
REMARK    5  A    between atoms: C_10  and  S_11 
REMARK    6  A    between atoms: S_11  and  C_12 
REMARK    7  A    between atoms: C_16  and  C_17 
REMARK       I    between atoms: C_17  and  N_18 
REMARK    8  A    between atoms: N_18  and  C_19 
REMARK    9  A    between atoms: C_27  and  C_28 
ROOT
HETATM    1  C   UNL     1      41.375 -10.752   6.283  1.00  0.00     0.087 C 
HETATM    2  N   UNL     1      42.307 -11.650   6.770  1.00  0.00    -0.353 N 
HETATM    3  C   UNL     1      42.674 -12.829   6.148  1.00  0.00     0.019 C 
HETATM    4  C   UNL     1      43.856 -13.547   6.753  1.00  0.00     0.069 C 
HETATM    5  C   UNL     1      41.976 -13.260   5.074  1.00  0.00     0.046 C 
HETATM    6  C   UNL     1      40.713 -12.526   4.629  1.00  0.00     0.104 C 
HETATM    7  C   UNL     1      40.551 -11.136   5.281  1.00  0.00     0.055 C 
HETATM    8  C   UNL     1      39.335 -10.321   4.868  1.00  0.00     0.019 C 
HETATM    9  N   UNL     1      38.328  -9.646   4.527  1.00  0.00    -0.096 N 
HETATM   10  H   UNL     1      42.967 -11.265   7.452  1.00  0.00     0.166 HD
ENDROOT
BRANCH   1  11
HETATM   11  S   UNL     1      41.267  -9.163   7.014  1.00  0.00    -0.102 SA
BRANCH  11  12
HETATM   12  C   UNL     1      42.808  -9.111   7.998  1.00  0.00     0.184 C 
BRANCH  12  13
HETATM   13  C   UNL     1      42.613  -8.447   9.359  1.00  0.00     0.231 C 
HETATM   14  N   UNL     1      42.810  -9.326  10.418  1.00  0.00    -0.327 N 
HETATM   15  H   UNL     1      43.028 -10.286  10.184  1.00  0.00     0.169 HD
HETATM   16  O   UNL     1      42.236  -7.280   9.449  1.00  0.00    -0.272 OA
BRANCH  14  17
HETATM   17  C   UNL     1      42.532  -9.093  11.782  1.00  0.00     0.034 A 
HETATM   18  C   UNL     1      43.244  -8.206  12.589  1.00  0.00     0.032 A 
HETATM   19  C   UNL     1      42.824  -7.953  13.902  1.00  0.00     0.039 A 
HETATM   20  C   UNL     1      41.681  -8.565  14.412  1.00  0.00     0.068 A 
HETATM   21  C   UNL     1      41.010  -9.507  13.638  1.00  0.00     0.039 A 
HETATM   22  C   UNL     1      41.442  -9.777  12.334  1.00  0.00     0.032 A 
BRANCH  20  23
HETATM   23  O   UNL     1      41.317  -8.197  15.679  1.00  0.00    -0.352 OA
BRANCH  23  24
HETATM   24  C   UNL     1      41.232  -6.784  15.890  1.00  0.00     0.171 C 
HETATM   25  C   UNL     1      39.838  -6.327  15.495  1.00  0.00     0.034 C 
ENDBRANCH  23  24
ENDBRANCH  20  23
ENDBRANCH  14  17
ENDBRANCH  12  13
ENDBRANCH  11  12
ENDBRANCH   1  11
BRANCH   6  26
HETATM   26  C   UNL     1      40.534 -12.466   3.114  1.00  0.00    -0.042 A 
HETATM   27  C   UNL     1      41.302 -11.571   2.355  1.00  0.00     0.027 A 
HETATM   28  C   UNL     1      41.119 -11.528   0.982  1.00  0.00     0.116 A 
HETATM   29  N   UNL     1      40.233 -12.301   0.323  1.00  0.00    -0.273 NA
HETATM   30  C   UNL     1      39.506 -13.162   1.065  1.00  0.00     0.116 A 
HETATM   31  C   UNL     1      39.626 -13.289   2.440  1.00  0.00     0.027 A 
ENDBRANCH   6  26
BRANCH   5  32
HETATM   32  C   UNL     1      42.593 -14.337   4.247  1.00  0.00     0.255 C 
HETATM   33  N   UNL     1      42.098 -15.602   4.459  1.00  0.00    -0.323 N 
HETATM   34  H   UNL     1      41.288 -15.705   5.053  1.00  0.00     0.169 HD
HETATM   35  O   UNL     1      43.440 -14.026   3.415  1.00  0.00    -0.268 OA
BRANCH  33  36
HETATM   36  C   UNL     1      42.568 -16.778   3.826  1.00  0.00     0.035 A 
HETATM   37  C   UNL     1      42.130 -17.203   2.565  1.00  0.00     0.031 A 
HETATM   38  C   UNL     1      42.631 -18.374   1.990  1.00  0.00     0.026 A 
HETATM   39  C   UNL     1      43.574 -19.132   2.676  1.00  0.00     0.034 A 
HETATM   40 CL   UNL     1      44.183 -20.578   1.974  1.00  0.00    -0.084 Cl
HETATM   41  C   UNL     1      44.027 -18.718   3.926  1.00  0.00     0.026 A 
HETATM   42  C   UNL     1      43.533 -17.539   4.495  1.00  0.00     0.031 A 
ENDBRANCH  33  36
ENDBRANCH   5  32
TORSDOF 9
ENDMDL
MODEL 3
REMARK VINA RESULT:      -8.3      5.559      9.256
REMARK  9 active torsions:
REMARK  status: ('A' for Active; 'I' for Inactive)
REMARK    1  A    between atoms: C_2  and  O_3 
REMARK    2  A    between atoms: O_3  and  C_4 
REMARK    3  A    between atoms: C_7  and  N_8 
REMARK       I    between atoms: N_8  and  C_9 
REMARK    4  A    between atoms: C_9  and  C_10 
REMARK    5  A    between atoms: C_10  and  S_11 
REMARK    6  A    between atoms: S_11  and  C_12 
REMARK    7  A    between atoms: C_16  and  C_17 
REMARK       I    between atoms: C_17  and  N_18 
REMARK    8  A    between atoms: N_18  and  C_19 
REMARK    9  A    between atoms: C_27  and  C_28 
ROOT
HETATM    1  C   UNL     1      39.207 -11.907   1.534  1.00  0.00     0.087 C 
HETATM    2  N   UNL     1      39.291 -13.097   0.834  1.00  0.00    -0.353 N 
HETATM    3  C   UNL     1      40.325 -14.008   0.936  1.00  0.00     0.019 C 
HETATM    4  C   UNL     1      40.106 -15.328   0.237  1.00  0.00     0.069 C 
HETATM    5  C   UNL     1      41.438 -13.676   1.628  1.00  0.00     0.046 C 
HETATM    6  C   UNL     1      41.610 -12.263   2.180  1.00  0.00     0.104 C 
HETATM    7  C   UNL     1      40.307 -11.436   2.166  1.00  0.00     0.055 C 
HETATM    8  C   UNL     1      40.381 -10.026   2.729  1.00  0.00     0.019 C 
HETATM    9  N   UNL     1      40.442  -8.857   3.196  1.00  0.00    -0.096 N 
HETATM   10  H   UNL     1      38.401 -13.450   0.469  1.00  0.00     0.166 HD
ENDROOT
BRANCH   1  11
HETATM   11  S   UNL     1      37.688 -11.033   1.541  1.00  0.00    -0.102 SA
BRANCH  11  12
HETATM   12  C   UNL     1      37.416 -10.766  -0.249  1.00  0.00     0.184 C 
BRANCH  12  13
HETATM   13  C   UNL     1      38.707 -10.439  -0.995  1.00  0.00     0.231 C 
HETATM   14  N   UNL     1      39.273  -9.237  -0.586  1.00  0.00    -0.327 N 
HETATM   15  H   UNL     1      38.773  -8.710   0.120  1.00  0.00     0.169 HD
HETATM   16  O   UNL     1      39.111 -11.153  -1.911  1.00  0.00    -0.272 OA
BRANCH  14  17
HETATM   17  C   UNL     1      40.350  -8.553  -1.188  1.00  0.00     0.034 A 
HETATM   18  C   UNL     1      40.226  -7.707  -2.289  1.00  0.00     0.032 A 
HETATM   19  C   UNL     1      41.333  -6.979  -2.749  1.00  0.00     0.039 A 
HETATM   20  C   UNL     1      42.563  -7.074  -2.103  1.00  0.00     0.068 A 
HETATM   21  C   UNL     1      42.712  -7.974  -1.051  1.00  0.00     0.039 A 
HETATM   22  C   UNL     1      41.613  -8.717  -0.605  1.00  0.00     0.032 A 
BRANCH  20  23
HETATM   23  O   UNL     1      43.561  -6.271  -2.586  1.00  0.00    -0.352 OA
BRANCH  23  24
HETATM   24  C   UNL     1      44.281  -5.545  -1.585  1.00  0.00     0.171 C 
HETATM   25  C   UNL     1      43.465  -4.321  -1.205  1.00  0.00     0.034 C 
ENDBRANCH  23  24
ENDBRANCH  20  23
ENDBRANCH  14  17
ENDBRANCH  12  13
ENDBRANCH  11  12
ENDBRANCH   1  11
BRANCH   6  26
HETATM   26  C   UNL     1      42.300 -12.210   3.541  1.00  0.00    -0.042 A 
HETATM   27  C   UNL     1      43.563 -11.611   3.661  1.00  0.00     0.027 A 
HETATM   28  C   UNL     1      44.174 -11.580   4.905  1.00  0.00     0.116 A 
HETATM   29  N   UNL     1      43.623 -12.100   6.020  1.00  0.00    -0.273 NA
HETATM   30  C   UNL     1      42.405 -12.667   5.891  1.00  0.00     0.116 A 
HETATM   31  C   UNL     1      41.708 -12.735   4.694  1.00  0.00     0.027 A 
ENDBRANCH   6  26
BRANCH   5  32
HETATM   32  C   UNL     1      42.371 -14.781   1.988  1.00  0.00     0.255 C 
HETATM   33  N   UNL     1      41.820 -15.806   2.722  1.00  0.00    -0.323 N 
HETATM   34  H   UNL     1      40.821 -15.808   2.863  1.00  0.00     0.169 HD
HETATM   35  O   UNL     1      43.525 -14.734   1.572  1.00  0.00    -0.268 OA
BRANCH  33  36
HETATM   36  C   UNL     1      42.529 -16.927   3.216  1.00  0.00     0.035 A 
HETATM   37  C   UNL     1      42.881 -18.027   2.424  1.00  0.00     0.031 A 
HETATM   38  C   UNL     1      43.583 -19.107   2.968  1.00  0.00     0.026 A 
HETATM   39  C   UNL     1      43.933 -19.095   4.313  1.00  0.00     0.034 A 
HETATM   40 CL   UNL     1      44.785 -20.428   4.987  1.00  0.00    -0.084 Cl
HETATM   41  C   UNL     1      43.598 -18.005   5.113  1.00  0.00     0.026 A 
HETATM   42  C   UNL     1      42.907 -16.919   4.563  1.00  0.00     0.031 A 
ENDBRANCH  33  36
ENDBRANCH   5  32
TORSDOF 9
ENDMDL
MODEL 4
REMARK VINA RESULT:      -8.3      4.166     10.945
REMARK  9 active torsions:
REMARK  status: ('A' for Active; 'I' for Inactive)
REMARK    1  A    between atoms: C_2  and  O_3 
REMARK    2  A    between atoms: O_3  and  C_4 
REMARK    3  A    between atoms: C_7  and  N_8 
REMARK       I    between atoms: N_8  and  C_9 
REMARK    4  A    between atoms: C_9  and  C_10 
REMARK    5  A    between atoms: C_10  and  S_11 
REMARK    6  A    between atoms: S_11  and  C_12 
REMARK    7  A    between atoms: C_16  and  C_17 
REMARK       I    between atoms: C_17  and  N_18 
REMARK    8  A    between atoms: N_18  and  C_19 
REMARK    9  A    between atoms: C_27  and  C_28 
ROOT
HETATM    1  C   UNL     1      44.025 -11.189   7.154  1.00  0.00     0.087 C 
HETATM    2  N   UNL     1      44.856 -10.893   8.219  1.00  0.00    -0.353 N 
HETATM    3  C   UNL     1      44.637  -9.890   9.144  1.00  0.00     0.019 C 
HETATM    4  C   UNL     1      45.564  -9.885  10.335  1.00  0.00     0.069 C 
HETATM    5  C   UNL     1      43.643  -8.999   8.936  1.00  0.00     0.046 C 
HETATM    6  C   UNL     1      42.853  -9.015   7.629  1.00  0.00     0.104 C 
HETATM    7  C   UNL     1      43.070 -10.299   6.798  1.00  0.00     0.055 C 
HETATM    8  C   UNL     1      42.294 -10.413   5.495  1.00  0.00     0.019 C 
HETATM    9  N   UNL     1      41.653 -10.508   4.415  1.00  0.00    -0.096 N 
HETATM   10  H   UNL     1      45.485 -11.651   8.502  1.00  0.00     0.166 HD
ENDROOT
BRANCH   1  11
HETATM   11  S   UNL     1      44.269 -12.687   6.277  1.00  0.00    -0.102 SA
BRANCH  11  12
HETATM   12  C   UNL     1      42.864 -13.692   6.880  1.00  0.00     0.184 C 
BRANCH  12  13
HETATM   13  C   UNL     1      41.829 -13.964   5.791  1.00  0.00     0.231 C 
HETATM   14  N   UNL     1      42.376 -14.586   4.674  1.00  0.00    -0.327 N 
HETATM   15  H   UNL     1      43.373 -14.762   4.689  1.00  0.00     0.169 HD
HETATM   16  O   UNL     1      40.668 -13.576   5.906  1.00  0.00    -0.272 OA
BRANCH  14  17
HETATM   17  C   UNL     1      41.749 -14.809   3.430  1.00  0.00     0.034 A 
HETATM   18  C   UNL     1      40.741 -15.747   3.215  1.00  0.00     0.032 A 
HETATM   19  C   UNL     1      40.095 -15.819   1.973  1.00  0.00     0.039 A 
HETATM   20  C   UNL     1      40.436 -14.943   0.945  1.00  0.00     0.068 A 
HETATM   21  C   UNL     1      41.493 -14.056   1.128  1.00  0.00     0.039 A 
HETATM   22  C   UNL     1      42.152 -13.999   2.361  1.00  0.00     0.032 A 
BRANCH  20  23
HETATM   23  O   UNL     1      39.699 -15.049  -0.205  1.00  0.00    -0.352 OA
BRANCH  23  24
HETATM   24  C   UNL     1      39.558 -13.827  -0.937  1.00  0.00     0.171 C 
HETATM   25  C   UNL     1      39.992 -14.080  -2.371  1.00  0.00     0.034 C 
ENDBRANCH  23  24
ENDBRANCH  20  23
ENDBRANCH  14  17
ENDBRANCH  12  13
ENDBRANCH  11  12
ENDBRANCH   1  11
BRANCH   6  26
HETATM   26  C   UNL     1      41.370  -8.693   7.798  1.00  0.00    -0.042 A 
HETATM   27  C   UNL     1      40.847  -7.508   7.260  1.00  0.00     0.027 A 
HETATM   28  C   UNL     1      39.500  -7.232   7.431  1.00  0.00     0.116 A 
HETATM   29  N   UNL     1      38.651  -8.042   8.093  1.00  0.00    -0.273 NA
HETATM   30  C   UNL     1      39.166  -9.182   8.599  1.00  0.00     0.116 A 
HETATM   31  C   UNL     1      40.495  -9.553   8.470  1.00  0.00     0.027 A 
ENDBRANCH   6  26
BRANCH   5  32
HETATM   32  C   UNL     1      43.232  -8.153  10.093  1.00  0.00     0.255 C 
HETATM   33  N   UNL     1      42.799  -8.838  11.203  1.00  0.00    -0.323 N 
HETATM   34  H   UNL     1      42.897  -9.843  11.213  1.00  0.00     0.169 HD
HETATM   35  O   UNL     1      43.357  -6.935  10.002  1.00  0.00    -0.268 OA
BRANCH  33  36
HETATM   36  C   UNL     1      42.315  -8.242  12.392  1.00  0.00     0.035 A 
HETATM   37  C   UNL     1      43.148  -7.806  13.431  1.00  0.00     0.031 A 
HETATM   38  C   UNL     1      42.612  -7.222  14.582  1.00  0.00     0.026 A 
HETATM   39  C   UNL     1      41.235  -7.074  14.704  1.00  0.00     0.034 A 
HETATM   40 CL   UNL     1      40.573  -6.368  16.125  1.00  0.00    -0.084 Cl
HETATM   41  C   UNL     1      40.393  -7.494  13.677  1.00  0.00     0.026 A 
HETATM   42  C   UNL     1      40.933  -8.066  12.519  1.00  0.00     0.031 A 
ENDBRANCH  33  36
ENDBRANCH   5  32
TORSDOF 9
ENDMDL
MODEL 5
REMARK VINA RESULT:      -8.2      4.050     10.918
REMARK  9 active torsions:
REMARK  status: ('A' for Active; 'I' for Inactive)
REMARK    1  A    between atoms: C_2  and  O_3 
REMARK    2  A    between atoms: O_3  and  C_4 
REMARK    3  A    between atoms: C_7  and  N_8 
REMARK       I    between atoms: N_8  and  C_9 
REMARK    4  A    between atoms: C_9  and  C_10 
REMARK    5  A    between atoms: C_10  and  S_11 
REMARK    6  A    between atoms: S_11  and  C_12 
REMARK    7  A    between atoms: C_16  and  C_17 
REMARK       I    between atoms: C_17  and  N_18 
REMARK    8  A    between atoms: N_18  and  C_19 
REMARK    9  A    between atoms: C_27  and  C_28 
ROOT
HETATM    1  C   UNL     1      43.080 -10.673   6.561  1.00  0.00     0.087 C 
HETATM    2  N   UNL     1      44.116 -10.628   7.477  1.00  0.00    -0.353 N 
HETATM    3  C   UNL     1      44.162  -9.801   8.583  1.00  0.00     0.019 C 
HETATM    4  C   UNL     1      45.287 -10.069   9.554  1.00  0.00     0.069 C 
HETATM    5  C   UNL     1      43.234  -8.830   8.728  1.00  0.00     0.046 C 
HETATM    6  C   UNL     1      42.221  -8.559   7.617  1.00  0.00     0.104 C 
HETATM    7  C   UNL     1      42.163  -9.678   6.555  1.00  0.00     0.055 C 
HETATM    8  C   UNL     1      41.157  -9.505   5.428  1.00  0.00     0.019 C 
HETATM    9  N   UNL     1      40.323  -9.361   4.495  1.00  0.00    -0.096 N 
HETATM   10  H   UNL     1      44.712 -11.460   7.499  1.00  0.00     0.166 HD
ENDROOT
BRANCH   1  11
HETATM   11  S   UNL     1      43.021 -11.995   5.412  1.00  0.00    -0.102 SA
BRANCH  11  12
HETATM   12  C   UNL     1      41.526 -12.891   5.969  1.00  0.00     0.184 C 
BRANCH  12  13
HETATM   13  C   UNL     1      41.585 -14.383   5.651  1.00  0.00     0.231 C 
HETATM   14  N   UNL     1      42.767 -14.751   5.018  1.00  0.00    -0.327 N 
HETATM   15  H   UNL     1      43.429 -14.012   4.817  1.00  0.00     0.169 HD
HETATM   16  O   UNL     1      40.625 -15.119   5.875  1.00  0.00    -0.272 OA
BRANCH  14  17
HETATM   17  C   UNL     1      43.065 -15.997   4.427  1.00  0.00     0.034 A 
HETATM   18  C   UNL     1      42.581 -16.414   3.188  1.00  0.00     0.032 A 
HETATM   19  C   UNL     1      43.023 -17.621   2.627  1.00  0.00     0.039 A 
HETATM   20  C   UNL     1      43.964 -18.407   3.287  1.00  0.00     0.068 A 
HETATM   21  C   UNL     1      44.394 -18.034   4.557  1.00  0.00     0.039 A 
HETATM   22  C   UNL     1      43.936 -16.840   5.128  1.00  0.00     0.032 A 
BRANCH  20  23
HETATM   23  O   UNL     1      44.383 -19.530   2.623  1.00  0.00    -0.352 OA
BRANCH  23  24
HETATM   24  C   UNL     1      43.594 -20.698   2.871  1.00  0.00     0.171 C 
HETATM   25  C   UNL     1      43.859 -21.159   4.294  1.00  0.00     0.034 C 
ENDBRANCH  23  24
ENDBRANCH  20  23
ENDBRANCH  14  17
ENDBRANCH  12  13
ENDBRANCH  11  12
ENDBRANCH   1  11
BRANCH   6  26
HETATM   26  C   UNL     1      40.830  -8.187   8.125  1.00  0.00    -0.042 A 
HETATM   27  C   UNL     1      40.064  -9.134   8.820  1.00  0.00     0.027 A 
HETATM   28  C   UNL     1      38.802  -8.778   9.266  1.00  0.00     0.116 A 
HETATM   29  N   UNL     1      38.256  -7.561   9.068  1.00  0.00    -0.273 NA
HETATM   30  C   UNL     1      39.007  -6.657   8.404  1.00  0.00     0.116 A 
HETATM   31  C   UNL     1      40.285  -6.914   7.931  1.00  0.00     0.027 A 
ENDBRANCH   6  26
BRANCH   5  32
HETATM   32  C   UNL     1      43.121  -8.188  10.069  1.00  0.00     0.255 C 
HETATM   33  N   UNL     1      42.740  -9.022  11.094  1.00  0.00    -0.323 N 
HETATM   34  H   UNL     1      42.681 -10.013  10.907  1.00  0.00     0.169 HD
HETATM   35  O   UNL     1      43.420  -7.003  10.179  1.00  0.00    -0.268 OA
BRANCH  33  36
HETATM   36  C   UNL     1      42.521  -8.620  12.433  1.00  0.00     0.035 A 
HETATM   37  C   UNL     1      41.502  -9.144  13.239  1.00  0.00     0.031 A 
HETATM   38  C   UNL     1      41.334  -8.707  14.557  1.00  0.00     0.026 A 
HETATM   39  C   UNL     1      42.186  -7.738  15.076  1.00  0.00     0.034 A 
HETATM   40 CL   UNL     1      41.974  -7.192  16.692  1.00  0.00    -0.084 Cl
HETATM   41  C   UNL     1      43.210  -7.214  14.291  1.00  0.00     0.026 A 
HETATM   42  C   UNL     1      43.383  -7.662  12.977  1.00  0.00     0.031 A 
ENDBRANCH  33  36
ENDBRANCH   5  32
TORSDOF 9
ENDMDL
MODEL 6
REMARK VINA RESULT:      -8.2      5.726      9.491
REMARK  9 active torsions:
REMARK  status: ('A' for Active; 'I' for Inactive)
REMARK    1  A    between atoms: C_2  and  O_3 
REMARK    2  A    between atoms: O_3  and  C_4 
REMARK    3  A    between atoms: C_7  and  N_8 
REMARK       I    between atoms: N_8  and  C_9 
REMARK    4  A    between atoms: C_9  and  C_10 
REMARK    5  A    between atoms: C_10  and  S_11 
REMARK    6  A    between atoms: S_11  and  C_12 
REMARK    7  A    between atoms: C_16  and  C_17 
REMARK       I    between atoms: C_17  and  N_18 
REMARK    8  A    between atoms: N_18  and  C_19 
REMARK    9  A    between atoms: C_27  and  C_28 
ROOT
HETATM    1  C   UNL     1      39.180 -12.319   0.093  1.00  0.00     0.087 C 
HETATM    2  N   UNL     1      39.229 -13.635  -0.329  1.00  0.00    -0.353 N 
HETATM    3  C   UNL     1      39.850 -14.665   0.352  1.00  0.00     0.019 C 
HETATM    4  C   UNL     1      39.599 -16.052  -0.189  1.00  0.00     0.069 C 
HETATM    5  C   UNL     1      40.622 -14.383   1.425  1.00  0.00     0.046 C 
HETATM    6  C   UNL     1      40.916 -12.933   1.804  1.00  0.00     0.104 C 
HETATM    7  C   UNL     1      40.002 -11.915   1.089  1.00  0.00     0.055 C 
HETATM    8  C   UNL     1      40.206 -10.448   1.433  1.00  0.00     0.019 C 
HETATM    9  N   UNL     1      40.375  -9.233   1.718  1.00  0.00    -0.096 N 
HETATM   10  H   UNL     1      38.511 -13.900  -1.009  1.00  0.00     0.166 HD
ENDROOT
BRANCH   1  11
HETATM   11  S   UNL     1      38.083 -11.212  -0.709  1.00  0.00    -0.102 SA
BRANCH  11  12
HETATM   12  C   UNL     1      38.653 -11.330  -2.443  1.00  0.00     0.184 C 
BRANCH  12  13
HETATM   13  C   UNL     1      39.987 -10.624  -2.670  1.00  0.00     0.231 C 
HETATM   14  N   UNL     1      40.081  -9.420  -1.982  1.00  0.00    -0.327 N 
HETATM   15  H   UNL     1      39.273  -9.135  -1.443  1.00  0.00     0.169 HD
HETATM   16  O   UNL     1      40.819 -11.074  -3.456  1.00  0.00    -0.272 OA
BRANCH  14  17
HETATM   17  C   UNL     1      41.087  -8.439  -2.114  1.00  0.00     0.034 A 
HETATM   18  C   UNL     1      40.985  -7.315  -2.932  1.00  0.00     0.032 A 
HETATM   19  C   UNL     1      41.986  -6.333  -2.912  1.00  0.00     0.039 A 
HETATM   20  C   UNL     1      43.084  -6.456  -2.064  1.00  0.00     0.068 A 
HETATM   21  C   UNL     1      43.229  -7.612  -1.302  1.00  0.00     0.039 A 
HETATM   22  C   UNL     1      42.240  -8.602  -1.337  1.00  0.00     0.032 A 
BRANCH  20  23
HETATM   23  O   UNL     1      43.968  -5.411  -2.069  1.00  0.00    -0.352 OA
BRANCH  23  24
HETATM   24  C   UNL     1      43.621  -4.331  -1.197  1.00  0.00     0.171 C 
HETATM   25  C   UNL     1      44.613  -4.310  -0.047  1.00  0.00     0.034 C 
ENDBRANCH  23  24
ENDBRANCH  20  23
ENDBRANCH  14  17
ENDBRANCH  12  13
ENDBRANCH  11  12
ENDBRANCH   1  11
BRANCH   6  26
HETATM   26  C   UNL     1      40.970 -12.686   3.310  1.00  0.00    -0.042 A 
HETATM   27  C   UNL     1      39.786 -12.696   4.062  1.00  0.00     0.027 A 
HETATM   28  C   UNL     1      39.857 -12.462   5.426  1.00  0.00     0.116 A 
HETATM   29  N   UNL     1      41.009 -12.220   6.083  1.00  0.00    -0.273 NA
HETATM   30  C   UNL     1      42.141 -12.221   5.348  1.00  0.00     0.116 A 
HETATM   31  C   UNL     1      42.175 -12.457   3.982  1.00  0.00     0.027 A 
ENDBRANCH   6  26
BRANCH   5  32
HETATM   32  C   UNL     1      40.996 -15.520   2.314  1.00  0.00     0.255 C 
HETATM   33  N   UNL     1      42.312 -15.915   2.247  1.00  0.00    -0.323 N 
HETATM   34  H   UNL     1      42.954 -15.350   1.709  1.00  0.00     0.169 HD
HETATM   35  O   UNL     1      40.144 -15.982   3.067  1.00  0.00    -0.268 OA
BRANCH  33  36
HETATM   36  C   UNL     1      42.875 -17.000   2.960  1.00  0.00     0.035 A 
HETATM   37  C   UNL     1      43.288 -16.915   4.296  1.00  0.00     0.031 A 
HETATM   38  C   UNL     1      43.837 -18.022   4.949  1.00  0.00     0.026 A 
HETATM   39  C   UNL     1      43.980 -19.225   4.266  1.00  0.00     0.034 A 
HETATM   40 CL   UNL     1      44.665 -20.585   5.064  1.00  0.00    -0.084 Cl
HETATM   41  C   UNL     1      43.565 -19.330   2.941  1.00  0.00     0.026 A 
HETATM   42  C   UNL     1      43.004 -18.223   2.293  1.00  0.00     0.031 A 
ENDBRANCH  33  36
ENDBRANCH   5  32
TORSDOF 9
ENDMDL
MODEL 7
REMARK VINA RESULT:      -8.1      2.745      4.756
REMARK  9 active torsions:
REMARK  status: ('A' for Active; 'I' for Inactive)
REMARK    1  A    between atoms: C_2  and  O_3 
REMARK    2  A    between atoms: O_3  and  C_4 
REMARK    3  A    between atoms: C_7  and  N_8 
REMARK       I    between atoms: N_8  and  C_9 
REMARK    4  A    between atoms: C_9  and  C_10 
REMARK    5  A    between atoms: C_10  and  S_11 
REMARK    6  A    between atoms: S_11  and  C_12 
REMARK    7  A    between atoms: C_16  and  C_17 
REMARK       I    between atoms: C_17  and  N_18 
REMARK    8  A    between atoms: N_18  and  C_19 
REMARK    9  A    between atoms: C_27  and  C_28 
ROOT
HETATM    1  C   UNL     1      41.969 -10.790   5.402  1.00  0.00     0.087 C 
HETATM    2  N   UNL     1      41.488  -9.856   4.503  1.00  0.00    -0.353 N 
HETATM    3  C   UNL     1      41.329 -10.067   3.146  1.00  0.00     0.019 C 
HETATM    4  C   UNL     1      40.595  -8.981   2.397  1.00  0.00     0.069 C 
HETATM    5  C   UNL     1      41.824 -11.192   2.585  1.00  0.00     0.046 C 
HETATM    6  C   UNL     1      42.669 -12.159   3.412  1.00  0.00     0.104 C 
HETATM    7  C   UNL     1      42.586 -11.899   4.932  1.00  0.00     0.055 C 
HETATM    8  C   UNL     1      43.372 -12.838   5.833  1.00  0.00     0.019 C 
HETATM    9  N   UNL     1      44.023 -13.616   6.580  1.00  0.00    -0.096 N 
HETATM   10  H   UNL     1      40.940  -9.096   4.918  1.00  0.00     0.166 HD
ENDROOT
BRANCH   1  11
HETATM   11  S   UNL     1      41.799 -10.481   7.118  1.00  0.00    -0.102 SA
BRANCH  11  12
HETATM   12  C   UNL     1      43.538 -10.198   7.609  1.00  0.00     0.184 C 
BRANCH  12  13
HETATM   13  C   UNL     1      43.731 -10.222   9.123  1.00  0.00     0.231 C 
HETATM   14  N   UNL     1      42.687  -9.611   9.807  1.00  0.00    -0.327 N 
HETATM   15  H   UNL     1      41.947  -9.204   9.247  1.00  0.00     0.169 HD
HETATM   16  O   UNL     1      44.761 -10.669   9.626  1.00  0.00    -0.272 OA
BRANCH  14  17
HETATM   17  C   UNL     1      42.636  -9.296  11.181  1.00  0.00     0.034 A 
HETATM   18  C   UNL     1      43.490  -8.394  11.813  1.00  0.00     0.032 A 
HETATM   19  C   UNL     1      43.292  -8.057  13.160  1.00  0.00     0.039 A 
HETATM   20  C   UNL     1      42.229  -8.601  13.878  1.00  0.00     0.068 A 
HETATM   21  C   UNL     1      41.419  -9.559  13.275  1.00  0.00     0.039 A 
HETATM   22  C   UNL     1      41.630  -9.912  11.937  1.00  0.00     0.032 A 
BRANCH  20  23
HETATM   23  O   UNL     1      42.081  -8.155  15.164  1.00  0.00    -0.352 OA
BRANCH  23  24
HETATM   24  C   UNL     1      40.789  -7.617  15.464  1.00  0.00     0.171 C 
HETATM   25  C   UNL     1      40.753  -6.173  14.994  1.00  0.00     0.034 C 
ENDBRANCH  23  24
ENDBRANCH  20  23
ENDBRANCH  14  17
ENDBRANCH  12  13
ENDBRANCH  11  12
ENDBRANCH   1  11
BRANCH   6  26
HETATM   26  C   UNL     1      42.433 -13.629   3.075  1.00  0.00    -0.042 A 
HETATM   27  C   UNL     1      41.323 -14.299   3.610  1.00  0.00     0.027 A 
HETATM   28  C   UNL     1      41.132 -15.635   3.297  1.00  0.00     0.116 A 
HETATM   29  N   UNL     1      41.961 -16.341   2.501  1.00  0.00    -0.273 NA
HETATM   30  C   UNL     1      43.021 -15.682   1.988  1.00  0.00     0.116 A 
HETATM   31  C   UNL     1      43.290 -14.344   2.231  1.00  0.00     0.027 A 
ENDBRANCH   6  26
BRANCH   5  32
HETATM   32  C   UNL     1      41.353 -11.534   1.212  1.00  0.00     0.255 C 
HETATM   33  N   UNL     1      40.242 -12.342   1.153  1.00  0.00    -0.323 N 
HETATM   34  H   UNL     1      39.754 -12.548   2.012  1.00  0.00     0.169 HD
HETATM   35  O   UNL     1      41.938 -11.042   0.252  1.00  0.00    -0.268 OA
BRANCH  33  36
HETATM   36  C   UNL     1      39.654 -12.833  -0.038  1.00  0.00     0.035 A 
HETATM   37  C   UNL     1      38.691 -12.127  -0.770  1.00  0.00     0.031 A 
HETATM   38  C   UNL     1      38.145 -12.663  -1.941  1.00  0.00     0.026 A 
HETATM   39  C   UNL     1      38.560 -13.914  -2.385  1.00  0.00     0.034 A 
HETATM   40 CL   UNL     1      37.882 -14.580  -3.818  1.00  0.00    -0.084 Cl
HETATM   41  C   UNL     1      39.524 -14.624  -1.674  1.00  0.00     0.026 A 
HETATM   42  C   UNL     1      40.077 -14.080  -0.509  1.00  0.00     0.031 A 
ENDBRANCH  33  36
ENDBRANCH   5  32
TORSDOF 9
ENDMDL
MODEL 8
REMARK VINA RESULT:      -8.0      6.051     10.099
REMARK  9 active torsions:
REMARK  status: ('A' for Active; 'I' for Inactive)
REMARK    1  A    between atoms: C_2  and  O_3 
REMARK    2  A    between atoms: O_3  and  C_4 
REMARK    3  A    between atoms: C_7  and  N_8 
REMARK       I    between atoms: N_8  and  C_9 
REMARK    4  A    between atoms: C_9  and  C_10 
REMARK    5  A    between atoms: C_10  and  S_11 
REMARK    6  A    between atoms: S_11  and  C_12 
REMARK    7  A    between atoms: C_16  and  C_17 
REMARK       I    between atoms: C_17  and  N_18 
REMARK    8  A    between atoms: N_18  and  C_19 
REMARK    9  A    between atoms: C_27  and  C_28 
ROOT
HETATM    1  C   UNL     1      39.999 -11.908   2.804  1.00  0.00     0.087 C 
HETATM    2  N   UNL     1      40.330 -10.565   2.780  1.00  0.00    -0.353 N 
HETATM    3  C   UNL     1      40.489  -9.806   1.636  1.00  0.00     0.019 C 
HETATM    4  C   UNL     1      40.644  -8.320   1.853  1.00  0.00     0.069 C 
HETATM    5  C   UNL     1      40.501 -10.415   0.429  1.00  0.00     0.046 C 
HETATM    6  C   UNL     1      40.472 -11.939   0.335  1.00  0.00     0.104 C 
HETATM    7  C   UNL     1      40.092 -12.629   1.663  1.00  0.00     0.055 C 
HETATM    8  C   UNL     1      40.008 -14.147   1.649  1.00  0.00     0.019 C 
HETATM    9  N   UNL     1      39.939 -15.405   1.638  1.00  0.00    -0.096 N 
HETATM   10  H   UNL     1      40.137 -10.055   3.648  1.00  0.00     0.166 HD
ENDROOT
BRANCH   1  11
HETATM   11  S   UNL     1      39.515 -12.635   4.323  1.00  0.00    -0.102 SA
BRANCH  11  12
HETATM   12  C   UNL     1      41.018 -12.393   5.336  1.00  0.00     0.184 C 
BRANCH  12  13
HETATM   13  C   UNL     1      42.160 -13.316   4.920  1.00  0.00     0.231 C 
HETATM   14  N   UNL     1      41.762 -14.642   4.802  1.00  0.00    -0.327 N 
HETATM   15  H   UNL     1      40.797 -14.854   5.023  1.00  0.00     0.169 HD
HETATM   16  O   UNL     1      43.309 -12.893   4.800  1.00  0.00    -0.272 OA
BRANCH  14  17
HETATM   17  C   UNL     1      42.592 -15.769   4.619  1.00  0.00     0.034 A 
HETATM   18  C   UNL     1      43.285 -16.409   5.645  1.00  0.00     0.032 A 
HETATM   19  C   UNL     1      43.995 -17.591   5.389  1.00  0.00     0.039 A 
HETATM   20  C   UNL     1      44.001 -18.152   4.114  1.00  0.00     0.068 A 
HETATM   21  C   UNL     1      43.375 -17.478   3.070  1.00  0.00     0.039 A 
HETATM   22  C   UNL     1      42.684 -16.286   3.321  1.00  0.00     0.032 A 
BRANCH  20  23
HETATM   23  O   UNL     1      44.664 -19.343   3.984  1.00  0.00    -0.352 OA
BRANCH  23  24
HETATM   24  C   UNL     1      44.575 -20.203   5.125  1.00  0.00     0.171 C 
HETATM   25  C   UNL     1      43.490 -21.233   4.860  1.00  0.00     0.034 C 
ENDBRANCH  23  24
ENDBRANCH  20  23
ENDBRANCH  14  17
ENDBRANCH  12  13
ENDBRANCH  11  12
ENDBRANCH   1  11
BRANCH   6  26
HETATM   26  C   UNL     1      39.649 -12.471  -0.836  1.00  0.00    -0.042 A 
HETATM   27  C   UNL     1      40.288 -13.127  -1.898  1.00  0.00     0.027 A 
HETATM   28  C   UNL     1      39.523 -13.596  -2.954  1.00  0.00     0.116 A 
HETATM   29  N   UNL     1      38.184 -13.456  -3.025  1.00  0.00    -0.273 NA
HETATM   30  C   UNL     1      37.581 -12.830  -1.993  1.00  0.00     0.116 A 
HETATM   31  C   UNL     1      38.258 -12.338  -0.887  1.00  0.00     0.027 A 
ENDBRANCH   6  26
BRANCH   5  32
HETATM   32  C   UNL     1      40.344  -9.549  -0.774  1.00  0.00     0.255 C 
HETATM   33  N   UNL     1      41.445  -9.472  -1.594  1.00  0.00    -0.323 N 
HETATM   34  H   UNL     1      42.226 -10.083  -1.405  1.00  0.00     0.169 HD
HETATM   35  O   UNL     1      39.256  -9.019  -0.978  1.00  0.00    -0.268 OA
BRANCH  33  36
HETATM   36  C   UNL     1      41.539  -8.673  -2.759  1.00  0.00     0.035 A 
HETATM   37  C   UNL     1      42.428  -7.598  -2.887  1.00  0.00     0.031 A 
HETATM   38  C   UNL     1      42.476  -6.843  -4.063  1.00  0.00     0.026 A 
HETATM   39  C   UNL     1      41.629  -7.159  -5.120  1.00  0.00     0.034 A 
HETATM   40 CL   UNL     1      41.679  -6.225  -6.563  1.00  0.00    -0.084 Cl
HETATM   41  C   UNL     1      40.746  -8.230  -5.013  1.00  0.00     0.026 A 
HETATM   42  C   UNL     1      40.709  -8.991  -3.839  1.00  0.00     0.031 A 
ENDBRANCH  33  36
ENDBRANCH   5  32
TORSDOF 9
ENDMDL
MODEL 9
REMARK VINA RESULT:      -8.0      4.088     10.450
REMARK  9 active torsions:
REMARK  status: ('A' for Active; 'I' for Inactive)
REMARK    1  A    between atoms: C_2  and  O_3 
REMARK    2  A    between atoms: O_3  and  C_4 
REMARK    3  A    between atoms: C_7  and  N_8 
REMARK       I    between atoms: N_8  and  C_9 
REMARK    4  A    between atoms: C_9  and  C_10 
REMARK    5  A    between atoms: C_10  and  S_11 
REMARK    6  A    between atoms: S_11  and  C_12 
REMARK    7  A    between atoms: C_16  and  C_17 
REMARK       I    between atoms: C_17  and  N_18 
REMARK    8  A    between atoms: N_18  and  C_19 
REMARK    9  A    between atoms: C_27  and  C_28 
ROOT
HETATM    1  C   UNL     1      41.090 -10.481   4.833  1.00  0.00     0.087 C 
HETATM    2  N   UNL     1      42.132 -11.022   5.562  1.00  0.00    -0.353 N 
HETATM    3  C   UNL     1      42.764 -10.404   6.625  1.00  0.00     0.019 C 
HETATM    4  C   UNL     1      43.732 -11.264   7.402  1.00  0.00     0.069 C 
HETATM    5  C   UNL     1      42.492  -9.108   6.898  1.00  0.00     0.046 C 
HETATM    6  C   UNL     1      41.599  -8.294   5.964  1.00  0.00     0.104 C 
HETATM    7  C   UNL     1      40.817  -9.162   4.954  1.00  0.00     0.055 C 
HETATM    8  C   UNL     1      39.876  -8.434   4.007  1.00  0.00     0.019 C 
HETATM    9  N   UNL     1      39.098  -7.830   3.221  1.00  0.00    -0.096 N 
HETATM   10  H   UNL     1      42.219 -12.042   5.506  1.00  0.00     0.166 HD
ENDROOT
BRANCH   1  11
HETATM   11  S   UNL     1      40.190 -11.517   3.743  1.00  0.00    -0.102 SA
BRANCH  11  12
HETATM   12  C   UNL     1      41.394 -11.749   2.386  1.00  0.00     0.184 C 
BRANCH  12  13
HETATM   13  C   UNL     1      42.359 -12.902   2.649  1.00  0.00     0.231 C 
HETATM   14  N   UNL     1      41.767 -14.147   2.476  1.00  0.00    -0.327 N 
HETATM   15  H   UNL     1      40.786 -14.159   2.228  1.00  0.00     0.169 HD
HETATM   16  O   UNL     1      43.502 -12.695   3.054  1.00  0.00    -0.272 OA
BRANCH  14  17
HETATM   17  C   UNL     1      42.313 -15.405   2.814  1.00  0.00     0.034 A 
HETATM   18  C   UNL     1      42.852 -16.300   1.891  1.00  0.00     0.032 A 
HETATM   19  C   UNL     1      43.476 -17.477   2.330  1.00  0.00     0.039 A 
HETATM   20  C   UNL     1      43.584 -17.757   3.691  1.00  0.00     0.068 A 
HETATM   21  C   UNL     1      42.982 -16.905   4.612  1.00  0.00     0.039 A 
HETATM   22  C   UNL     1      42.340 -15.741   4.173  1.00  0.00     0.032 A 
BRANCH  20  23
HETATM   23  O   UNL     1      44.273 -18.895   4.017  1.00  0.00    -0.352 OA
BRANCH  23  24
HETATM   24  C   UNL     1      43.949 -19.440   5.300  1.00  0.00     0.171 C 
HETATM   25  C   UNL     1      43.949 -20.955   5.187  1.00  0.00     0.034 C 
ENDBRANCH  23  24
ENDBRANCH  20  23
ENDBRANCH  14  17
ENDBRANCH  12  13
ENDBRANCH  11  12
ENDBRANCH   1  11
BRANCH   6  26
HETATM   26  C   UNL     1      40.688  -7.305   6.686  1.00  0.00    -0.042 A 
HETATM   27  C   UNL     1      39.549  -7.768   7.361  1.00  0.00     0.027 A 
HETATM   28  C   UNL     1      38.732  -6.852   8.004  1.00  0.00     0.116 A 
HETATM   29  N   UNL     1      38.967  -5.524   8.019  1.00  0.00    -0.273 NA
HETATM   30  C   UNL     1      40.070  -5.093   7.372  1.00  0.00     0.116 A 
HETATM   31  C   UNL     1      40.955  -5.932   6.711  1.00  0.00     0.027 A 
ENDBRANCH   6  26
BRANCH   5  32
HETATM   32  C   UNL     1      42.931  -8.584   8.223  1.00  0.00     0.255 C 
HETATM   33  N   UNL     1      42.184  -8.999   9.300  1.00  0.00    -0.323 N 
HETATM   34  H   UNL     1      41.481  -9.708   9.150  1.00  0.00     0.169 HD
HETATM   35  O   UNL     1      43.935  -7.880   8.272  1.00  0.00    -0.268 OA
BRANCH  33  36
HETATM   36  C   UNL     1      42.386  -8.587  10.639  1.00  0.00     0.035 A 
HETATM   37  C   UNL     1      42.792  -9.456  11.660  1.00  0.00     0.031 A 
HETATM   38  C   UNL     1      42.977  -8.991  12.966  1.00  0.00     0.026 A 
HETATM   39  C   UNL     1      42.752  -7.651  13.260  1.00  0.00     0.034 A 
HETATM   40 CL   UNL     1      42.967  -7.080  14.867  1.00  0.00    -0.084 Cl
HETATM   41  C   UNL     1      42.357  -6.772  12.254  1.00  0.00     0.026 A 
HETATM   42  C   UNL     1      42.185  -7.237  10.945  1.00  0.00     0.031 A 
ENDBRANCH  33  36
ENDBRANCH   5  32
TORSDOF 9
ENDMDL
MODEL 10
REMARK VINA RESULT:      -7.7      2.369      3.164
REMARK  9 active torsions:
REMARK  status: ('A' for Active; 'I' for Inactive)
REMARK    1  A    between atoms: C_2  and  O_3 
REMARK    2  A    between atoms: O_3  and  C_4 
REMARK    3  A    between atoms: C_7  and  N_8 
REMARK       I    between atoms: N_8  and  C_9 
REMARK    4  A    between atoms: C_9  and  C_10 
REMARK    5  A    between atoms: C_10  and  S_11 
REMARK    6  A    between atoms: S_11  and  C_12 
REMARK    7  A    between atoms: C_16  and  C_17 
REMARK       I    between atoms: C_17  and  N_18 
REMARK    8  A    between atoms: N_18  and  C_19 
REMARK    9  A    between atoms: C_27  and  C_28 
ROOT
HETATM    1  C   UNL     1      41.080  -9.737   4.285  1.00  0.00     0.087 C 
HETATM    2  N   UNL     1      42.030 -10.401   5.038  1.00  0.00    -0.353 N 
HETATM    3  C   UNL     1      42.475 -11.688   4.801  1.00  0.00     0.019 C 
HETATM    4  C   UNL     1      43.663 -12.131   5.621  1.00  0.00     0.069 C 
HETATM    5  C   UNL     1      41.843 -12.452   3.884  1.00  0.00     0.046 C 
HETATM    6  C   UNL     1      40.567 -11.951   3.210  1.00  0.00     0.104 C 
HETATM    7  C   UNL     1      40.316 -10.442   3.419  1.00  0.00     0.055 C 
HETATM    8  C   UNL     1      39.083  -9.852   2.753  1.00  0.00     0.019 C 
HETATM    9  N   UNL     1      38.061  -9.363   2.202  1.00  0.00    -0.096 N 
HETATM   10  H   UNL     1      42.644  -9.797   5.594  1.00  0.00     0.166 HD
ENDROOT
BRANCH   1  11
HETATM   11  S   UNL     1      40.870  -8.012   4.513  1.00  0.00    -0.102 SA
BRANCH  11  12
HETATM   12  C   UNL     1      39.704  -7.972   5.922  1.00  0.00     0.184 C 
BRANCH  12  13
HETATM   13  C   UNL     1      40.414  -7.843   7.267  1.00  0.00     0.231 C 
HETATM   14  N   UNL     1      39.778  -8.551   8.280  1.00  0.00    -0.327 N 
HETATM   15  H   UNL     1      38.926  -9.039   8.034  1.00  0.00     0.169 HD
HETATM   16  O   UNL     1      41.391  -7.108   7.402  1.00  0.00    -0.272 OA
BRANCH  14  17
HETATM   17  C   UNL     1      40.057  -8.498   9.662  1.00  0.00     0.034 A 
HETATM   18  C   UNL     1      39.374  -7.692  10.571  1.00  0.00     0.032 A 
HETATM   19  C   UNL     1      39.643  -7.790  11.944  1.00  0.00     0.039 A 
HETATM   20  C   UNL     1      40.578  -8.706  12.420  1.00  0.00     0.068 A 
HETATM   21  C   UNL     1      41.317  -9.459  11.512  1.00  0.00     0.039 A 
HETATM   22  C   UNL     1      41.064  -9.346  10.140  1.00  0.00     0.032 A 
BRANCH  20  23
HETATM   23  O   UNL     1      40.716  -8.773  13.781  1.00  0.00    -0.352 OA
BRANCH  23  24
HETATM   24  C   UNL     1      42.069  -8.855  14.240  1.00  0.00     0.171 C 
HETATM   25  C   UNL     1      42.652  -7.453  14.258  1.00  0.00     0.034 C 
ENDBRANCH  23  24
ENDBRANCH  20  23
ENDBRANCH  14  17
ENDBRANCH  12  13
ENDBRANCH  11  12
ENDBRANCH   1  11
BRANCH   6  26
HETATM   26  C   UNL     1      40.448 -12.347   1.740  1.00  0.00    -0.042 A 
HETATM   27  C   UNL     1      41.116 -11.599   0.759  1.00  0.00     0.027 A 
HETATM   28  C   UNL     1      40.988 -11.971  -0.570  1.00  0.00     0.116 A 
HETATM   29  N   UNL     1      40.249 -13.021  -0.983  1.00  0.00    -0.273 NA
HETATM   30  C   UNL     1      39.618 -13.735  -0.028  1.00  0.00     0.116 A 
HETATM   31  C   UNL     1      39.695 -13.451   1.326  1.00  0.00     0.027 A 
ENDBRANCH   6  26
BRANCH   5  32
HETATM   32  C   UNL     1      42.540 -13.688   3.427  1.00  0.00     0.255 C 
HETATM   33  N   UNL     1      42.011 -14.871   3.887  1.00  0.00    -0.323 N 
HETATM   34  H   UNL     1      41.136 -14.839   4.390  1.00  0.00     0.169 HD
HETATM   35  O   UNL     1      43.482 -13.576   2.648  1.00  0.00    -0.268 OA
BRANCH  33  36
HETATM   36  C   UNL     1      42.539 -16.157   3.624  1.00  0.00     0.035 A 
HETATM   37  C   UNL     1      42.229 -16.900   2.477  1.00  0.00     0.031 A 
HETATM   38  C   UNL     1      42.783 -18.166   2.271  1.00  0.00     0.026 A 
HETATM   39  C   UNL     1      43.650 -18.702   3.216  1.00  0.00     0.034 A 
HETATM   40 CL   UNL     1      44.323 -20.265   2.970  1.00  0.00    -0.084 Cl
HETATM   41  C   UNL     1      43.977 -17.974   4.357  1.00  0.00     0.026 A 
HETATM   42  C   UNL     1      43.431 -16.700   4.555  1.00  0.00     0.031 A 
ENDBRANCH  33  36
ENDBRANCH   5  32
TORSDOF 9
ENDMDL
