MODEL 1
REMARK VINA RESULT:      -8.4      0.000      0.000
REMARK  6 active torsions:
REMARK  status: ('A' for Active; 'I' for Inactive)
REMARK    1  A    between atoms: C_5  and  C_6 
REMARK    2  A    between atoms: C_6  and  N_7 
REMARK    3  A    between atoms: C_6  and  C_11 
REMARK       I    between atoms: N_7  and  C_8 
REMARK    4  A    between atoms: C_11  and  C_12 
REMARK       I    between atoms: C_12  and  N_13 
REMARK    5  A    between atoms: N_13  and  C_14 
REMARK    6  A    between atoms: C_16  and  C_17 
ROOT
HETATM    1  C   UNL     1      41.477 -15.303   1.139  1.00  0.00     0.224 C 
HETATM    2  N   UNL     1      41.352 -14.263   0.236  1.00  0.00    -0.327 N 
HETATM    3  O   UNL     1      40.571 -16.016   1.563  1.00  0.00    -0.273 OA
HETATM    4  H   UNL     1      42.215 -13.810  -0.047  1.00  0.00     0.169 HD
ENDROOT
BRANCH   1   5
HETATM    5  C   UNL     1      42.893 -15.464   1.652  1.00  0.00     0.133 C 
BRANCH   5   6
HETATM    6  C   UNL     1      42.925 -15.479   3.184  1.00  0.00     0.126 C 
BRANCH   6   7
HETATM    7  C   UNL     1      43.260 -16.873   3.692  1.00  0.00    -0.035 A 
HETATM    8  C   UNL     1      43.596 -17.920   2.821  1.00  0.00     0.010 A 
HETATM    9  C   UNL     1      43.953 -19.177   3.317  1.00  0.00     0.007 A 
HETATM   10  C   UNL     1      43.987 -19.415   4.694  1.00  0.00    -0.062 A 
HETATM   11  C   UNL     1      44.423 -20.751   5.219  1.00  0.00     0.048 C 
HETATM   12  C   UNL     1      43.671 -18.371   5.569  1.00  0.00     0.007 A 
HETATM   13  C   UNL     1      43.307 -17.116   5.074  1.00  0.00     0.010 A 
ENDBRANCH   6   7
BRANCH   6  14
HETATM   14  N   UNL     1      41.748 -14.930   3.863  1.00  0.00    -0.352 N 
HETATM   15  C   UNL     1      41.707 -13.781   4.614  1.00  0.00     0.214 C 
HETATM   16  C   UNL     1      40.331 -13.461   5.135  1.00  0.00     0.117 C 
HETATM   17  O   UNL     1      42.674 -13.061   4.842  1.00  0.00    -0.274 OA
HETATM   18  H   UNL     1      40.872 -15.385   3.649  1.00  0.00     0.163 HD
ENDBRANCH   6  14
ENDBRANCH   5   6
ENDBRANCH   1   5
BRANCH   2  19
HETATM   19  C   UNL     1      40.181 -13.797  -0.394  1.00  0.00     0.035 A 
HETATM   20  C   UNL     1      39.413 -12.727   0.073  1.00  0.00     0.042 A 
HETATM   21  C   UNL     1      38.249 -12.319  -0.603  1.00  0.00    -0.021 A 
HETATM   22  C   UNL     1      37.876 -12.992  -1.774  1.00  0.00     0.012 A 
HETATM   23  C   UNL     1      38.638 -14.061  -2.248  1.00  0.00     0.003 A 
HETATM   24  C   UNL     1      39.778 -14.465  -1.556  1.00  0.00     0.029 A 
BRANCH  21  25
HETATM   25  C   UNL     1      37.452 -11.218  -0.083  1.00  0.00     0.010 A 
HETATM   26  C   UNL     1      36.785 -10.161  -0.750  1.00  0.00     0.152 A 
HETATM   27  N   UNL     1      36.171  -9.323   0.091  1.00  0.00    -0.187 NA
HETATM   28  N   UNL     1      36.452  -9.832   1.300  1.00  0.00    -0.289 N 
HETATM   29  H   UNL     1      36.094  -9.350   2.118  1.00  0.00     0.188 HD
HETATM   30  C   UNL     1      37.213 -10.963   1.252  1.00  0.00     0.123 A 
ENDBRANCH  21  25
ENDBRANCH   2  19
TORSDOF 6
ENDMDL
MODEL 2
REMARK VINA RESULT:      -8.4      4.936      7.799
REMARK  6 active torsions:
REMARK  status: ('A' for Active; 'I' for Inactive)
REMARK    1  A    between atoms: C_5  and  C_6 
REMARK    2  A    between atoms: C_6  and  N_7 
REMARK    3  A    between atoms: C_6  and  C_11 
REMARK       I    between atoms: N_7  and  C_8 
REMARK    4  A    between atoms: C_11  and  C_12 
REMARK       I    between atoms: C_12  and  N_13 
REMARK    5  A    between atoms: N_13  and  C_14 
REMARK    6  A    between atoms: C_16  and  C_17 
ROOT
HETATM    1  C   UNL     1      43.480 -12.667   4.411  1.00  0.00     0.224 C 
HETATM    2  N   UNL     1      43.987 -12.958   5.665  1.00  0.00    -0.327 N 
HETATM    3  O   UNL     1      43.372 -11.553   3.907  1.00  0.00    -0.273 OA
HETATM    4  H   UNL     1      44.051 -13.942   5.904  1.00  0.00     0.169 HD
ENDROOT
BRANCH   1   5
HETATM    5  C   UNL     1      42.969 -13.896   3.688  1.00  0.00     0.133 C 
BRANCH   5   6
HETATM    6  C   UNL     1      42.774 -15.065   4.660  1.00  0.00     0.126 C 
BRANCH   6   7
HETATM    7  C   UNL     1      43.123 -16.381   3.980  1.00  0.00    -0.035 A 
HETATM    8  C   UNL     1      43.990 -17.313   4.568  1.00  0.00     0.010 A 
HETATM    9  C   UNL     1      44.251 -18.538   3.947  1.00  0.00     0.007 A 
HETATM   10  C   UNL     1      43.649 -18.860   2.726  1.00  0.00    -0.062 A 
HETATM   11  C   UNL     1      43.892 -20.197   2.094  1.00  0.00     0.048 C 
HETATM   12  C   UNL     1      42.769 -17.943   2.144  1.00  0.00     0.007 A 
HETATM   13  C   UNL     1      42.513 -16.714   2.760  1.00  0.00     0.010 A 
ENDBRANCH   6   7
BRANCH   6  14
HETATM   14  N   UNL     1      41.476 -15.138   5.334  1.00  0.00    -0.352 N 
HETATM   15  C   UNL     1      41.240 -15.652   6.586  1.00  0.00     0.214 C 
HETATM   16  C   UNL     1      39.801 -15.533   7.015  1.00  0.00     0.117 C 
HETATM   17  O   UNL     1      42.096 -16.151   7.309  1.00  0.00    -0.274 OA
HETATM   18  H   UNL     1      40.719 -14.653   4.873  1.00  0.00     0.163 HD
ENDBRANCH   6  14
ENDBRANCH   5   6
ENDBRANCH   1   5
BRANCH   2  19
HETATM   19  C   UNL     1      44.491 -12.060   6.626  1.00  0.00     0.035 A 
HETATM   20  C   UNL     1      43.793 -11.666   7.772  1.00  0.00     0.042 A 
HETATM   21  C   UNL     1      44.355 -10.758   8.687  1.00  0.00    -0.021 A 
HETATM   22  C   UNL     1      45.644 -10.265   8.446  1.00  0.00     0.012 A 
HETATM   23  C   UNL     1      46.348 -10.654   7.306  1.00  0.00     0.003 A 
HETATM   24  C   UNL     1      45.770 -11.540   6.398  1.00  0.00     0.029 A 
BRANCH  21  25
HETATM   25  C   UNL     1      43.599 -10.344   9.859  1.00  0.00     0.010 A 
HETATM   26  C   UNL     1      43.738 -10.696  11.224  1.00  0.00     0.152 A 
HETATM   27  N   UNL     1      42.823 -10.115  12.006  1.00  0.00    -0.187 NA
HETATM   28  N   UNL     1      42.087  -9.398  11.145  1.00  0.00    -0.289 N 
HETATM   29  H   UNL     1      41.305  -8.864  11.511  1.00  0.00     0.188 HD
HETATM   30  C   UNL     1      42.508  -9.499   9.851  1.00  0.00     0.123 A 
ENDBRANCH  21  25
ENDBRANCH   2  19
TORSDOF 6
ENDMDL
MODEL 3
REMARK VINA RESULT:      -8.3      4.924      8.326
REMARK  6 active torsions:
REMARK  status: ('A' for Active; 'I' for Inactive)
REMARK    1  A    between atoms: C_5  and  C_6 
REMARK    2  A    between atoms: C_6  and  N_7 
REMARK    3  A    between atoms: C_6  and  C_11 
REMARK       I    between atoms: N_7  and  C_8 
REMARK    4  A    between atoms: C_11  and  C_12 
REMARK       I    between atoms: C_12  and  N_13 
REMARK    5  A    between atoms: N_13  and  C_14 
REMARK    6  A    between atoms: C_16  and  C_17 
ROOT
HETATM    1  C   UNL     1      43.664 -11.470   4.942  1.00  0.00     0.224 C 
HETATM    2  N   UNL     1      44.610 -11.729   5.918  1.00  0.00    -0.327 N 
HETATM    3  O   UNL     1      42.854 -10.547   4.937  1.00  0.00    -0.273 OA
HETATM    4  H   UNL     1      45.237 -12.507   5.738  1.00  0.00     0.169 HD
ENDROOT
BRANCH   1   5
HETATM    5  C   UNL     1      43.653 -12.516   3.848  1.00  0.00     0.133 C 
BRANCH   5   6
HETATM    6  C   UNL     1      42.402 -13.397   3.940  1.00  0.00     0.126 C 
BRANCH   6   7
HETATM    7  C   UNL     1      42.738 -14.832   3.562  1.00  0.00    -0.035 A 
HETATM    8  C   UNL     1      42.733 -15.869   4.507  1.00  0.00     0.010 A 
HETATM    9  C   UNL     1      42.992 -17.188   4.122  1.00  0.00     0.007 A 
HETATM   10  C   UNL     1      43.257 -17.500   2.785  1.00  0.00    -0.062 A 
HETATM   11  C   UNL     1      43.480 -18.925   2.373  1.00  0.00     0.048 C 
HETATM   12  C   UNL     1      43.245 -16.475   1.835  1.00  0.00     0.007 A 
HETATM   13  C   UNL     1      42.994 -15.155   2.219  1.00  0.00     0.010 A 
ENDBRANCH   6   7
BRANCH   6  14
HETATM   14  N   UNL     1      41.217 -12.918   3.225  1.00  0.00    -0.352 N 
HETATM   15  C   UNL     1      39.993 -12.635   3.780  1.00  0.00     0.214 C 
HETATM   16  C   UNL     1      38.995 -12.110   2.782  1.00  0.00     0.117 C 
HETATM   17  O   UNL     1      39.716 -12.775   4.967  1.00  0.00    -0.274 OA
HETATM   18  H   UNL     1      41.367 -12.662   2.258  1.00  0.00     0.163 HD
ENDBRANCH   6  14
ENDBRANCH   5   6
ENDBRANCH   1   5
BRANCH   2  19
HETATM   19  C   UNL     1      44.858 -11.003   7.100  1.00  0.00     0.035 A 
HETATM   20  C   UNL     1      44.016 -11.011   8.215  1.00  0.00     0.042 A 
HETATM   21  C   UNL     1      44.323 -10.256   9.361  1.00  0.00    -0.021 A 
HETATM   22  C   UNL     1      45.505  -9.505   9.380  1.00  0.00     0.012 A 
HETATM   23  C   UNL     1      46.352  -9.492   8.272  1.00  0.00     0.003 A 
HETATM   24  C   UNL     1      46.025 -10.231   7.135  1.00  0.00     0.029 A 
BRANCH  21  25
HETATM   25  C   UNL     1      43.417 -10.261  10.500  1.00  0.00     0.010 A 
HETATM   26  C   UNL     1      42.180  -9.601  10.704  1.00  0.00     0.152 A 
HETATM   27  N   UNL     1      41.656  -9.841  11.909  1.00  0.00    -0.187 NA
HETATM   28  N   UNL     1      42.559 -10.646  12.488  1.00  0.00    -0.289 N 
HETATM   29  H   UNL     1      42.383 -10.963  13.436  1.00  0.00     0.188 HD
HETATM   30  C   UNL     1      43.630 -10.927  11.690  1.00  0.00     0.123 A 
ENDBRANCH  21  25
ENDBRANCH   2  19
TORSDOF 6
ENDMDL
MODEL 4
REMARK VINA RESULT:      -8.2      2.493      2.884
REMARK  6 active torsions:
REMARK  status: ('A' for Active; 'I' for Inactive)
REMARK    1  A    between atoms: C_5  and  C_6 
REMARK    2  A    between atoms: C_6  and  N_7 
REMARK    3  A    between atoms: C_6  and  C_11 
REMARK       I    between atoms: N_7  and  C_8 
REMARK    4  A    between atoms: C_11  and  C_12 
REMARK       I    between atoms: C_12  and  N_13 
REMARK    5  A    between atoms: N_13  and  C_14 
REMARK    6  A    between atoms: C_16  and  C_17 
ROOT
HETATM    1  C   UNL     1      40.197 -14.809   1.545  1.00  0.00     0.224 C 
HETATM    2  N   UNL     1      40.385 -14.975   0.184  1.00  0.00    -0.327 N 
HETATM    3  O   UNL     1      39.698 -13.834   2.100  1.00  0.00    -0.273 OA
HETATM    4  H   UNL     1      40.766 -15.868  -0.109  1.00  0.00     0.169 HD
ENDROOT
BRANCH   1   5
HETATM    5  C   UNL     1      40.751 -15.961   2.355  1.00  0.00     0.133 C 
BRANCH   5   6
HETATM    6  C   UNL     1      42.132 -15.620   2.925  1.00  0.00     0.126 C 
BRANCH   6   7
HETATM    7  C   UNL     1      42.815 -16.877   3.444  1.00  0.00    -0.035 A 
HETATM    8  C   UNL     1      43.124 -17.048   4.802  1.00  0.00     0.010 A 
HETATM    9  C   UNL     1      43.702 -18.235   5.260  1.00  0.00     0.007 A 
HETATM   10  C   UNL     1      43.981 -19.279   4.372  1.00  0.00    -0.062 A 
HETATM   11  C   UNL     1      44.551 -20.570   4.881  1.00  0.00     0.048 C 
HETATM   12  C   UNL     1      43.659 -19.123   3.021  1.00  0.00     0.007 A 
HETATM   13  C   UNL     1      43.088 -17.934   2.560  1.00  0.00     0.010 A 
ENDBRANCH   6   7
BRANCH   6  14
HETATM   14  N   UNL     1      42.177 -14.540   3.913  1.00  0.00    -0.352 N 
HETATM   15  C   UNL     1      42.811 -13.330   3.765  1.00  0.00     0.214 C 
HETATM   16  C   UNL     1      42.625 -12.414   4.946  1.00  0.00     0.117 C 
HETATM   17  O   UNL     1      43.458 -12.998   2.778  1.00  0.00    -0.274 OA
HETATM   18  H   UNL     1      41.581 -14.664   4.720  1.00  0.00     0.163 HD
ENDBRANCH   6  14
ENDBRANCH   5   6
ENDBRANCH   1   5
BRANCH   2  19
HETATM   19  C   UNL     1      40.048 -14.082  -0.853  1.00  0.00     0.035 A 
HETATM   20  C   UNL     1      40.631 -12.824  -1.024  1.00  0.00     0.042 A 
HETATM   21  C   UNL     1      40.241 -11.980  -2.080  1.00  0.00    -0.021 A 
HETATM   22  C   UNL     1      39.266 -12.430  -2.979  1.00  0.00     0.012 A 
HETATM   23  C   UNL     1      38.680 -13.686  -2.818  1.00  0.00     0.003 A 
HETATM   24  C   UNL     1      39.064 -14.502  -1.754  1.00  0.00     0.029 A 
BRANCH  21  25
HETATM   25  C   UNL     1      40.844 -10.664  -2.222  1.00  0.00     0.010 A 
HETATM   26  C   UNL     1      41.632  -9.903  -1.323  1.00  0.00     0.152 A 
HETATM   27  N   UNL     1      41.983  -8.714  -1.819  1.00  0.00    -0.187 NA
HETATM   28  N   UNL     1      41.414  -8.701  -3.033  1.00  0.00    -0.289 N 
HETATM   29  H   UNL     1      41.534  -7.876  -3.611  1.00  0.00     0.188 HD
HETATM   30  C   UNL     1      40.723  -9.841  -3.323  1.00  0.00     0.123 A 
ENDBRANCH  21  25
ENDBRANCH   2  19
TORSDOF 6
ENDMDL
MODEL 5
REMARK VINA RESULT:      -8.1      2.923      9.003
REMARK  6 active torsions:
REMARK  status: ('A' for Active; 'I' for Inactive)
REMARK    1  A    between atoms: C_5  and  C_6 
REMARK    2  A    between atoms: C_6  and  N_7 
REMARK    3  A    between atoms: C_6  and  C_11 
REMARK       I    between atoms: N_7  and  C_8 
REMARK    4  A    between atoms: C_11  and  C_12 
REMARK       I    between atoms: C_12  and  N_13 
REMARK    5  A    between atoms: N_13  and  C_14 
REMARK    6  A    between atoms: C_16  and  C_17 
ROOT
HETATM    1  C   UNL     1      40.515 -14.968   0.909  1.00  0.00     0.224 C 
HETATM    2  N   UNL     1      41.868 -15.141   1.140  1.00  0.00    -0.327 N 
HETATM    3  O   UNL     1      39.596 -15.359   1.625  1.00  0.00    -0.273 OA
HETATM    4  H   UNL     1      42.494 -14.707   0.469  1.00  0.00     0.169 HD
ENDROOT
BRANCH   1   5
HETATM    5  C   UNL     1      40.230 -14.280  -0.409  1.00  0.00     0.133 C 
BRANCH   5   6
HETATM    6  C   UNL     1      39.414 -13.000  -0.197  1.00  0.00     0.126 C 
BRANCH   6   7
HETATM    7  C   UNL     1      39.694 -12.005  -1.314  1.00  0.00    -0.035 A 
HETATM    8  C   UNL     1      38.722 -11.665  -2.266  1.00  0.00     0.010 A 
HETATM    9  C   UNL     1      38.987 -10.707  -3.249  1.00  0.00     0.007 A 
HETATM   10  C   UNL     1      40.229 -10.066  -3.300  1.00  0.00    -0.062 A 
HETATM   11  C   UNL     1      40.487  -9.001  -4.324  1.00  0.00     0.048 C 
HETATM   12  C   UNL     1      41.196 -10.386  -2.343  1.00  0.00     0.007 A 
HETATM   13  C   UNL     1      40.935 -11.349  -1.365  1.00  0.00     0.010 A 
ENDBRANCH   6   7
BRANCH   6  14
HETATM   14  N   UNL     1      39.525 -12.371   1.120  1.00  0.00    -0.352 N 
HETATM   15  C   UNL     1      38.524 -11.711   1.791  1.00  0.00     0.214 C 
HETATM   16  C   UNL     1      38.944 -11.222   3.152  1.00  0.00     0.117 C 
HETATM   17  O   UNL     1      37.391 -11.533   1.355  1.00  0.00    -0.274 OA
HETATM   18  H   UNL     1      40.385 -12.554   1.618  1.00  0.00     0.163 HD
ENDBRANCH   6  14
ENDBRANCH   5   6
ENDBRANCH   1   5
BRANCH   2  19
HETATM   19  C   UNL     1      42.487 -15.786   2.228  1.00  0.00     0.035 A 
HETATM   20  C   UNL     1      42.807 -17.146   2.254  1.00  0.00     0.042 A 
HETATM   21  C   UNL     1      43.420 -17.727   3.379  1.00  0.00    -0.021 A 
HETATM   22  C   UNL     1      43.727 -16.913   4.477  1.00  0.00     0.012 A 
HETATM   23  C   UNL     1      43.413 -15.554   4.459  1.00  0.00     0.003 A 
HETATM   24  C   UNL     1      42.788 -14.997   3.344  1.00  0.00     0.029 A 
BRANCH  21  25
HETATM   25  C   UNL     1      43.720 -19.150   3.391  1.00  0.00     0.010 A 
HETATM   26  C   UNL     1      43.679 -20.116   2.355  1.00  0.00     0.152 A 
HETATM   27  N   UNL     1      44.007 -21.341   2.774  1.00  0.00    -0.187 NA
HETATM   28  N   UNL     1      44.250 -21.170   4.082  1.00  0.00    -0.289 N 
HETATM   29  H   UNL     1      44.514 -21.981   4.632  1.00  0.00     0.188 HD
HETATM   30  C   UNL     1      44.093 -19.881   4.501  1.00  0.00     0.123 A 
ENDBRANCH  21  25
ENDBRANCH   2  19
TORSDOF 6
ENDMDL
MODEL 6
REMARK VINA RESULT:      -8.0      3.652      7.284
REMARK  6 active torsions:
REMARK  status: ('A' for Active; 'I' for Inactive)
REMARK    1  A    between atoms: C_5  and  C_6 
REMARK    2  A    between atoms: C_6  and  N_7 
REMARK    3  A    between atoms: C_6  and  C_11 
REMARK       I    between atoms: N_7  and  C_8 
REMARK    4  A    between atoms: C_11  and  C_12 
REMARK       I    between atoms: C_12  and  N_13 
REMARK    5  A    between atoms: N_13  and  C_14 
REMARK    6  A    between atoms: C_16  and  C_17 
ROOT
HETATM    1  C   UNL     1      41.419 -12.601   2.882  1.00  0.00     0.224 C 
HETATM    2  N   UNL     1      42.719 -12.678   3.348  1.00  0.00    -0.327 N 
HETATM    3  O   UNL     1      40.402 -12.513   3.565  1.00  0.00    -0.273 OA
HETATM    4  H   UNL     1      43.447 -12.694   2.642  1.00  0.00     0.169 HD
ENDROOT
BRANCH   1   5
HETATM    5  C   UNL     1      41.332 -12.710   1.375  1.00  0.00     0.133 C 
BRANCH   5   6
HETATM    6  C   UNL     1      40.747 -14.063   0.954  1.00  0.00     0.126 C 
BRANCH   6   7
HETATM    7  C   UNL     1      41.518 -15.199   1.610  1.00  0.00    -0.035 A 
HETATM    8  C   UNL     1      42.833 -15.517   1.237  1.00  0.00     0.010 A 
HETATM    9  C   UNL     1      43.537 -16.530   1.893  1.00  0.00     0.007 A 
HETATM   10  C   UNL     1      42.946 -17.245   2.940  1.00  0.00    -0.062 A 
HETATM   11  C   UNL     1      43.728 -18.293   3.674  1.00  0.00     0.048 C 
HETATM   12  C   UNL     1      41.643 -16.920   3.329  1.00  0.00     0.007 A 
HETATM   13  C   UNL     1      40.935 -15.913   2.669  1.00  0.00     0.010 A 
ENDBRANCH   6   7
BRANCH   6  14
HETATM   14  N   UNL     1      40.592 -14.282  -0.486  1.00  0.00    -0.352 N 
HETATM   15  C   UNL     1      39.631 -13.723  -1.293  1.00  0.00     0.214 C 
HETATM   16  C   UNL     1      39.775 -14.109  -2.741  1.00  0.00     0.117 C 
HETATM   17  O   UNL     1      38.743 -12.972  -0.904  1.00  0.00    -0.274 OA
HETATM   18  H   UNL     1      41.340 -14.797  -0.930  1.00  0.00     0.163 HD
ENDBRANCH   6  14
ENDBRANCH   5   6
ENDBRANCH   1   5
BRANCH   2  19
HETATM   19  C   UNL     1      43.163 -12.669   4.685  1.00  0.00     0.035 A 
HETATM   20  C   UNL     1      43.883 -11.620   5.265  1.00  0.00     0.042 A 
HETATM   21  C   UNL     1      44.301 -11.681   6.606  1.00  0.00    -0.021 A 
HETATM   22  C   UNL     1      43.967 -12.808   7.368  1.00  0.00     0.012 A 
HETATM   23  C   UNL     1      43.247 -13.859   6.799  1.00  0.00     0.003 A 
HETATM   24  C   UNL     1      42.856 -13.792   5.462  1.00  0.00     0.029 A 
BRANCH  21  25
HETATM   25  C   UNL     1      45.071 -10.588   7.180  1.00  0.00     0.010 A 
HETATM   26  C   UNL     1      44.653  -9.377   7.784  1.00  0.00     0.152 A 
HETATM   27  N   UNL     1      45.677  -8.609   8.170  1.00  0.00    -0.187 NA
HETATM   28  N   UNL     1      46.755  -9.319   7.806  1.00  0.00    -0.289 N 
HETATM   29  H   UNL     1      47.672  -8.927   7.990  1.00  0.00     0.188 HD
HETATM   30  C   UNL     1      46.449 -10.508   7.210  1.00  0.00     0.123 A 
ENDBRANCH  21  25
ENDBRANCH   2  19
TORSDOF 6
ENDMDL
MODEL 7
REMARK VINA RESULT:      -7.9      2.646      3.553
REMARK  6 active torsions:
REMARK  status: ('A' for Active; 'I' for Inactive)
REMARK    1  A    between atoms: C_5  and  C_6 
REMARK    2  A    between atoms: C_6  and  N_7 
REMARK    3  A    between atoms: C_6  and  C_11 
REMARK       I    between atoms: N_7  and  C_8 
REMARK    4  A    between atoms: C_11  and  C_12 
REMARK       I    between atoms: C_12  and  N_13 
REMARK    5  A    between atoms: N_13  and  C_14 
REMARK    6  A    between atoms: C_16  and  C_17 
ROOT
HETATM    1  C   UNL     1      40.431 -13.422   3.722  1.00  0.00     0.224 C 
HETATM    2  N   UNL     1      41.222 -13.473   2.588  1.00  0.00    -0.327 N 
HETATM    3  O   UNL     1      39.307 -12.935   3.808  1.00  0.00    -0.273 OA
HETATM    4  H   UNL     1      42.107 -13.960   2.682  1.00  0.00     0.169 HD
ENDROOT
BRANCH   1   5
HETATM    5  C   UNL     1      41.125 -13.987   4.944  1.00  0.00     0.133 C 
BRANCH   5   6
HETATM    6  C   UNL     1      42.631 -14.137   4.701  1.00  0.00     0.126 C 
BRANCH   6   7
HETATM    7  C   UNL     1      43.024 -15.607   4.714  1.00  0.00    -0.035 A 
HETATM    8  C   UNL     1      43.129 -16.357   3.533  1.00  0.00     0.010 A 
HETATM    9  C   UNL     1      43.544 -17.691   3.568  1.00  0.00     0.007 A 
HETATM   10  C   UNL     1      43.868 -18.304   4.783  1.00  0.00    -0.062 A 
HETATM   11  C   UNL     1      44.365 -19.719   4.806  1.00  0.00     0.048 C 
HETATM   12  C   UNL     1      43.784 -17.557   5.961  1.00  0.00     0.007 A 
HETATM   13  C   UNL     1      43.361 -16.225   5.929  1.00  0.00     0.010 A 
ENDBRANCH   6   7
BRANCH   6  14
HETATM   14  N   UNL     1      43.509 -13.341   5.562  1.00  0.00    -0.352 N 
HETATM   15  C   UNL     1      43.930 -12.055   5.324  1.00  0.00     0.214 C 
HETATM   16  C   UNL     1      44.786 -11.496   6.429  1.00  0.00     0.117 C 
HETATM   17  O   UNL     1      43.643 -11.400   4.327  1.00  0.00    -0.274 OA
HETATM   18  H   UNL     1      43.715 -13.745   6.465  1.00  0.00     0.163 HD
ENDBRANCH   6  14
ENDBRANCH   5   6
ENDBRANCH   1   5
BRANCH   2  19
HETATM   19  C   UNL     1      40.922 -12.989   1.299  1.00  0.00     0.035 A 
HETATM   20  C   UNL     1      40.264 -13.734   0.316  1.00  0.00     0.042 A 
HETATM   21  C   UNL     1      40.003 -13.189  -0.954  1.00  0.00    -0.021 A 
HETATM   22  C   UNL     1      40.396 -11.870  -1.217  1.00  0.00     0.012 A 
HETATM   23  C   UNL     1      41.051 -11.119  -0.242  1.00  0.00     0.003 A 
HETATM   24  C   UNL     1      41.321 -11.680   1.006  1.00  0.00     0.029 A 
BRANCH  21  25
HETATM   25  C   UNL     1      39.339 -13.993  -1.968  1.00  0.00     0.010 A 
HETATM   26  C   UNL     1      38.890 -13.657  -3.269  1.00  0.00     0.152 A 
HETATM   27  N   UNL     1      38.298 -14.679  -3.894  1.00  0.00    -0.187 NA
HETATM   28  N   UNL     1      38.356 -15.671  -2.993  1.00  0.00    -0.289 N 
HETATM   29  H   UNL     1      37.951 -16.569  -3.241  1.00  0.00     0.188 HD
HETATM   30  C   UNL     1      38.967 -15.314  -1.827  1.00  0.00     0.123 A 
ENDBRANCH  21  25
ENDBRANCH   2  19
TORSDOF 6
ENDMDL
MODEL 8
REMARK VINA RESULT:      -7.8      4.066      8.672
REMARK  6 active torsions:
REMARK  status: ('A' for Active; 'I' for Inactive)
REMARK    1  A    between atoms: C_5  and  C_6 
REMARK    2  A    between atoms: C_6  and  N_7 
REMARK    3  A    between atoms: C_6  and  C_11 
REMARK       I    between atoms: N_7  and  C_8 
REMARK    4  A    between atoms: C_11  and  C_12 
REMARK       I    between atoms: C_12  and  N_13 
REMARK    5  A    between atoms: N_13  and  C_14 
REMARK    6  A    between atoms: C_16  and  C_17 
ROOT
HETATM    1  C   UNL     1      43.008 -13.961   5.747  1.00  0.00     0.224 C 
HETATM    2  N   UNL     1      42.401 -14.393   4.582  1.00  0.00    -0.327 N 
HETATM    3  O   UNL     1      44.008 -14.442   6.273  1.00  0.00    -0.273 OA
HETATM    4  H   UNL     1      41.609 -13.846   4.260  1.00  0.00     0.169 HD
ENDROOT
BRANCH   1   5
HETATM    5  C   UNL     1      42.259 -12.822   6.407  1.00  0.00     0.133 C 
BRANCH   5   6
HETATM    6  C   UNL     1      42.905 -11.473   6.075  1.00  0.00     0.126 C 
BRANCH   6   7
HETATM    7  C   UNL     1      43.199 -10.700   7.353  1.00  0.00    -0.035 A 
HETATM    8  C   UNL     1      42.392  -9.635   7.780  1.00  0.00     0.010 A 
HETATM    9  C   UNL     1      42.653  -8.978   8.985  1.00  0.00     0.007 A 
HETATM   10  C   UNL     1      43.725  -9.371   9.792  1.00  0.00    -0.062 A 
HETATM   11  C   UNL     1      43.966  -8.696  11.110  1.00  0.00     0.048 C 
HETATM   12  C   UNL     1      44.523 -10.444   9.382  1.00  0.00     0.007 A 
HETATM   13  C   UNL     1      44.267 -11.097   8.174  1.00  0.00     0.010 A 
ENDBRANCH   6   7
BRANCH   6  14
HETATM   14  N   UNL     1      42.202 -10.641   5.096  1.00  0.00    -0.352 N 
HETATM   15  C   UNL     1      42.241 -10.786   3.730  1.00  0.00     0.214 C 
HETATM   16  C   UNL     1      41.365  -9.802   3.003  1.00  0.00     0.117 C 
HETATM   17  O   UNL     1      42.904 -11.631   3.137  1.00  0.00    -0.274 OA
HETATM   18  H   UNL     1      41.538  -9.983   5.481  1.00  0.00     0.163 HD
ENDBRANCH   6  14
ENDBRANCH   5   6
ENDBRANCH   1   5
BRANCH   2  19
HETATM   19  C   UNL     1      42.789 -15.460   3.747  1.00  0.00     0.035 A 
HETATM   20  C   UNL     1      43.054 -16.755   4.201  1.00  0.00     0.042 A 
HETATM   21  C   UNL     1      43.443 -17.771   3.311  1.00  0.00    -0.021 A 
HETATM   22  C   UNL     1      43.544 -17.472   1.945  1.00  0.00     0.012 A 
HETATM   23  C   UNL     1      43.279 -16.183   1.483  1.00  0.00     0.003 A 
HETATM   24  C   UNL     1      42.913 -15.181   2.381  1.00  0.00     0.029 A 
BRANCH  21  25
HETATM   25  C   UNL     1      43.739 -19.105   3.811  1.00  0.00     0.010 A 
HETATM   26  C   UNL     1      44.108 -19.548   5.105  1.00  0.00     0.152 A 
HETATM   27  N   UNL     1      44.319 -20.867   5.161  1.00  0.00    -0.187 NA
HETATM   28  N   UNL     1      44.098 -21.272   3.902  1.00  0.00    -0.289 N 
HETATM   29  H   UNL     1      44.210 -22.258   3.689  1.00  0.00     0.188 HD
HETATM   30  C   UNL     1      43.748 -20.260   3.057  1.00  0.00     0.123 A 
ENDBRANCH  21  25
ENDBRANCH   2  19
TORSDOF 6
ENDMDL
MODEL 9
REMARK VINA RESULT:      -7.7      2.909      8.552
REMARK  6 active torsions:
REMARK  status: ('A' for Active; 'I' for Inactive)
REMARK    1  A    between atoms: C_5  and  C_6 
REMARK    2  A    between atoms: C_6  and  N_7 
REMARK    3  A    between atoms: C_6  and  C_11 
REMARK       I    between atoms: N_7  and  C_8 
REMARK    4  A    between atoms: C_11  and  C_12 
REMARK       I    between atoms: C_12  and  N_13 
REMARK    5  A    between atoms: N_13  and  C_14 
REMARK    6  A    between atoms: C_16  and  C_17 
ROOT
HETATM    1  C   UNL     1      40.523 -14.872   0.953  1.00  0.00     0.224 C 
HETATM    2  N   UNL     1      41.872 -15.128   1.125  1.00  0.00    -0.327 N 
HETATM    3  O   UNL     1      39.619 -15.169   1.728  1.00  0.00    -0.273 OA
HETATM    4  H   UNL     1      42.491 -14.766   0.407  1.00  0.00     0.169 HD
ENDROOT
BRANCH   1   5
HETATM    5  C   UNL     1      40.219 -14.218  -0.379  1.00  0.00     0.133 C 
BRANCH   5   6
HETATM    6  C   UNL     1      40.686 -12.759  -0.396  1.00  0.00     0.126 C 
BRANCH   6   7
HETATM    7  C   UNL     1      40.107 -12.005   0.793  1.00  0.00    -0.035 A 
HETATM    8  C   UNL     1      38.730 -11.772   0.925  1.00  0.00     0.010 A 
HETATM    9  C   UNL     1      38.220 -11.125   2.054  1.00  0.00     0.007 A 
HETATM   10  C   UNL     1      39.073 -10.700   3.077  1.00  0.00    -0.062 A 
HETATM   11  C   UNL     1      38.511 -10.055   4.309  1.00  0.00     0.048 C 
HETATM   12  C   UNL     1      40.444 -10.946   2.961  1.00  0.00     0.007 A 
HETATM   13  C   UNL     1      40.957 -11.586   1.829  1.00  0.00     0.010 A 
ENDBRANCH   6   7
BRANCH   6  14
HETATM   14  N   UNL     1      40.479 -12.027  -1.647  1.00  0.00    -0.352 N 
HETATM   15  C   UNL     1      41.093 -10.853  -2.011  1.00  0.00     0.214 C 
HETATM   16  C   UNL     1      40.704 -10.381  -3.387  1.00  0.00     0.117 C 
HETATM   17  O   UNL     1      41.892 -10.237  -1.313  1.00  0.00    -0.274 OA
HETATM   18  H   UNL     1      39.924 -12.504  -2.343  1.00  0.00     0.163 HD
ENDBRANCH   6  14
ENDBRANCH   5   6
ENDBRANCH   1   5
BRANCH   2  19
HETATM   19  C   UNL     1      42.501 -15.772   2.209  1.00  0.00     0.035 A 
HETATM   20  C   UNL     1      42.815 -17.133   2.238  1.00  0.00     0.042 A 
HETATM   21  C   UNL     1      43.438 -17.711   3.358  1.00  0.00    -0.021 A 
HETATM   22  C   UNL     1      43.763 -16.893   4.448  1.00  0.00     0.012 A 
HETATM   23  C   UNL     1      43.455 -15.533   4.427  1.00  0.00     0.003 A 
HETATM   24  C   UNL     1      42.820 -14.978   3.317  1.00  0.00     0.029 A 
BRANCH  21  25
HETATM   25  C   UNL     1      43.731 -19.136   3.374  1.00  0.00     0.010 A 
HETATM   26  C   UNL     1      43.676 -20.106   2.342  1.00  0.00     0.152 A 
HETATM   27  N   UNL     1      44.002 -21.331   2.764  1.00  0.00    -0.187 NA
HETATM   28  N   UNL     1      44.256 -21.156   4.069  1.00  0.00    -0.289 N 
HETATM   29  H   UNL     1      44.520 -21.966   4.620  1.00  0.00     0.188 HD
HETATM   30  C   UNL     1      44.109 -19.864   4.484  1.00  0.00     0.123 A 
ENDBRANCH  21  25
ENDBRANCH   2  19
TORSDOF 6
ENDMDL
MODEL 10
REMARK VINA RESULT:      -7.6      2.428      8.461
REMARK  6 active torsions:
REMARK  status: ('A' for Active; 'I' for Inactive)
REMARK    1  A    between atoms: C_5  and  C_6 
REMARK    2  A    between atoms: C_6  and  N_7 
REMARK    3  A    between atoms: C_6  and  C_11 
REMARK       I    between atoms: N_7  and  C_8 
REMARK    4  A    between atoms: C_11  and  C_12 
REMARK       I    between atoms: C_12  and  N_13 
REMARK    5  A    between atoms: N_13  and  C_14 
REMARK    6  A    between atoms: C_16  and  C_17 
ROOT
HETATM    1  C   UNL     1      42.681 -13.162   3.332  1.00  0.00     0.224 C 
HETATM    2  N   UNL     1      42.311 -14.030   4.345  1.00  0.00    -0.327 N 
HETATM    3  O   UNL     1      43.639 -13.289   2.575  1.00  0.00    -0.273 OA
HETATM    4  H   UNL     1      41.459 -13.798   4.843  1.00  0.00     0.169 HD
ENDROOT
BRANCH   1   5
HETATM    5  C   UNL     1      41.802 -11.931   3.269  1.00  0.00     0.133 C 
BRANCH   5   6
HETATM    6  C   UNL     1      40.321 -12.304   3.394  1.00  0.00     0.126 C 
BRANCH   6   7
HETATM    7  C   UNL     1      39.625 -12.157   2.049  1.00  0.00    -0.035 A 
HETATM    8  C   UNL     1      40.145 -12.725   0.877  1.00  0.00     0.010 A 
HETATM    9  C   UNL     1      39.457 -12.621  -0.335  1.00  0.00     0.007 A 
HETATM   10  C   UNL     1      38.231 -11.950  -0.402  1.00  0.00    -0.062 A 
HETATM   11  C   UNL     1      37.473 -11.890  -1.695  1.00  0.00     0.048 C 
HETATM   12  C   UNL     1      37.698 -11.397   0.766  1.00  0.00     0.007 A 
HETATM   13  C   UNL     1      38.389 -11.494   1.977  1.00  0.00     0.010 A 
ENDBRANCH   6   7
BRANCH   6  14
HETATM   14  N   UNL     1      39.572 -11.637   4.461  1.00  0.00    -0.352 N 
HETATM   15  C   UNL     1      39.375 -12.114   5.735  1.00  0.00     0.214 C 
HETATM   16  C   UNL     1      38.604 -11.164   6.612  1.00  0.00     0.117 C 
HETATM   17  O   UNL     1      39.786 -13.194   6.147  1.00  0.00    -0.274 OA
HETATM   18  H   UNL     1      39.285 -10.689   4.263  1.00  0.00     0.163 HD
ENDBRANCH   6  14
ENDBRANCH   5   6
ENDBRANCH   1   5
BRANCH   2  19
HETATM   19  C   UNL     1      42.935 -15.235   4.725  1.00  0.00     0.035 A 
HETATM   20  C   UNL     1      42.950 -16.391   3.941  1.00  0.00     0.042 A 
HETATM   21  C   UNL     1      43.587 -17.563   4.388  1.00  0.00    -0.021 A 
HETATM   22  C   UNL     1      44.231 -17.550   5.632  1.00  0.00     0.012 A 
HETATM   23  C   UNL     1      44.224 -16.399   6.420  1.00  0.00     0.003 A 
HETATM   24  C   UNL     1      43.571 -15.252   5.972  1.00  0.00     0.029 A 
BRANCH  21  25
HETATM   25  C   UNL     1      43.566 -18.762   3.564  1.00  0.00     0.010 A 
HETATM   26  C   UNL     1      43.986 -20.086   3.844  1.00  0.00     0.152 A 
HETATM   27  N   UNL     1      43.823 -20.912   2.807  1.00  0.00    -0.187 NA
HETATM   28  N   UNL     1      43.309 -20.121   1.854  1.00  0.00    -0.289 N 
HETATM   29  H   UNL     1      43.105 -20.530   0.948  1.00  0.00     0.188 HD
HETATM   30  C   UNL     1      43.136 -18.828   2.255  1.00  0.00     0.123 A 
ENDBRANCH  21  25
ENDBRANCH   2  19
TORSDOF 6
ENDMDL
