MODEL 1
REMARK VINA RESULT:      -9.6      0.000      0.000
REMARK  5 active torsions:
REMARK  status: ('A' for Active; 'I' for Inactive)
REMARK    1  A    between atoms: O_2  and  C_3 
REMARK    2  A    between atoms: C_6  and  N_7 
REMARK    3  A    between atoms: C_11  and  C_12 
REMARK    4  A    between atoms: C_12  and  N_13 
REMARK       I    between atoms: N_13  and  C_14 
REMARK    5  A    between atoms: C_14  and  C_15 
ROOT
HETATM    1  N   UNL     1      41.898 -16.009   1.900  1.00  0.00    -0.360 N 
HETATM    2  C   UNL     1      41.867 -16.483   3.198  1.00  0.00     0.230 C 
HETATM    3  O   UNL     1      40.821 -16.588   3.837  1.00  0.00    -0.272 OA
HETATM    4  H   UNL     1      42.804 -15.820   1.482  1.00  0.00     0.162 HD
ENDROOT
BRANCH   1   5
HETATM    5  C   UNL     1      40.707 -15.540   1.221  1.00  0.00     0.129 C 
BRANCH   5   6
HETATM    6  C   UNL     1      40.832 -14.086   0.739  1.00  0.00     0.031 C 
HETATM    7  C   UNL     1      39.585 -13.283   1.086  1.00  0.00     0.111 C 
HETATM    8  C   UNL     1      39.892 -12.709   2.448  1.00  0.00     0.224 C 
HETATM    9  N   UNL     1      41.283 -12.753   2.628  1.00  0.00    -0.318 N 
HETATM   10  O   UNL     1      39.026 -12.259   3.182  1.00  0.00    -0.273 OA
HETATM   11  C   UNL     1      41.932 -13.328   1.468  1.00  0.00     0.139 C 
BRANCH   9  12
HETATM   12  C   UNL     1      42.011 -12.206   3.721  1.00  0.00     0.037 A 
HETATM   13  C   UNL     1      41.390 -11.866   4.929  1.00  0.00     0.032 A 
HETATM   14  C   UNL     1      42.117 -11.334   6.006  1.00  0.00     0.039 A 
HETATM   15  C   UNL     1      43.488 -11.130   5.897  1.00  0.00     0.068 A 
HETATM   16  C   UNL     1      44.119 -11.454   4.698  1.00  0.00     0.039 A 
HETATM   17  C   UNL     1      43.393 -11.985   3.625  1.00  0.00     0.032 A 
BRANCH  15  18
HETATM   18  O   UNL     1      44.310 -10.628   6.865  1.00  0.00    -0.356 OA
HETATM   19  C   UNL     1      45.628 -11.162   6.925  1.00  0.00     0.210 C 
ENDBRANCH  15  18
ENDBRANCH   9  12
ENDBRANCH   5   6
ENDBRANCH   1   5
BRANCH   2  20
HETATM   20  C   UNL     1      43.226 -16.864   3.805  1.00  0.00     0.149 C 
HETATM   21  C   UNL     1      43.503 -18.338   3.626  1.00  0.00    -0.007 A 
HETATM   22  C   UNL     1      43.626 -19.171   4.740  1.00  0.00     0.083 A 
HETATM   23  C   UNL     1      43.634 -18.892   2.341  1.00  0.00     0.011 A 
HETATM   24  C   UNL     1      43.864 -20.538   4.577  1.00  0.00     0.038 A 
HETATM   25  O   UNL     1      43.520 -18.727   6.035  1.00  0.00    -0.310 OA
HETATM   26  C   UNL     1      43.989 -21.081   3.299  1.00  0.00     0.003 A 
HETATM   27  C   UNL     1      43.875 -20.256   2.181  1.00  0.00     0.001 A 
HETATM   28  C   UNL     1      43.465 -17.373   6.263  1.00  0.00     0.083 A 
HETATM   29  C   UNL     1      43.338 -16.423   5.248  1.00  0.00    -0.007 A 
HETATM   30  C   UNL     1      43.540 -16.974   7.599  1.00  0.00     0.038 A 
HETATM   31  C   UNL     1      43.298 -15.061   5.587  1.00  0.00     0.011 A 
HETATM   32  C   UNL     1      43.376 -14.664   6.923  1.00  0.00     0.001 A 
HETATM   33  C   UNL     1      43.494 -15.620   7.929  1.00  0.00     0.003 A 
ENDBRANCH   2  20
TORSDOF 5
ENDMDL
MODEL 2
REMARK VINA RESULT:      -9.1      2.219      3.538
REMARK  5 active torsions:
REMARK  status: ('A' for Active; 'I' for Inactive)
REMARK    1  A    between atoms: O_2  and  C_3 
REMARK    2  A    between atoms: C_6  and  N_7 
REMARK    3  A    between atoms: C_11  and  C_12 
REMARK    4  A    between atoms: C_12  and  N_13 
REMARK       I    between atoms: N_13  and  C_14 
REMARK    5  A    between atoms: C_14  and  C_15 
ROOT
HETATM    1  N   UNL     1      41.689 -13.444   0.597  1.00  0.00    -0.360 N 
HETATM    2  C   UNL     1      41.613 -14.191   1.758  1.00  0.00     0.230 C 
HETATM    3  O   UNL     1      40.555 -14.668   2.168  1.00  0.00    -0.272 OA
HETATM    4  H   UNL     1      42.562 -12.969   0.391  1.00  0.00     0.162 HD
ENDROOT
BRANCH   1   5
HETATM    5  C   UNL     1      40.515 -13.116  -0.186  1.00  0.00     0.129 C 
BRANCH   5   6
HETATM    6  C   UNL     1      40.112 -11.638  -0.061  1.00  0.00     0.031 C 
HETATM    7  C   UNL     1      38.607 -11.462  -0.218  1.00  0.00     0.111 C 
HETATM    8  C   UNL     1      38.082 -11.579   1.192  1.00  0.00     0.224 C 
HETATM    9  N   UNL     1      39.152 -11.347   2.069  1.00  0.00    -0.318 N 
HETATM   10  O   UNL     1      36.905 -11.791   1.439  1.00  0.00    -0.273 OA
HETATM   11  C   UNL     1      40.371 -11.084   1.333  1.00  0.00     0.139 C 
BRANCH   9  12
HETATM   12  C   UNL     1      39.076 -11.245   3.487  1.00  0.00     0.037 A 
HETATM   13  C   UNL     1      39.493 -12.284   4.328  1.00  0.00     0.032 A 
HETATM   14  C   UNL     1      39.422 -12.172   5.726  1.00  0.00     0.039 A 
HETATM   15  C   UNL     1      38.931 -11.012   6.315  1.00  0.00     0.068 A 
HETATM   16  C   UNL     1      38.504  -9.973   5.492  1.00  0.00     0.039 A 
HETATM   17  C   UNL     1      38.575 -10.086   4.097  1.00  0.00     0.032 A 
BRANCH  15  18
HETATM   18  O   UNL     1      38.815 -10.773   7.655  1.00  0.00    -0.356 OA
HETATM   19  C   UNL     1      39.556  -9.674   8.174  1.00  0.00     0.210 C 
ENDBRANCH  15  18
ENDBRANCH   9  12
ENDBRANCH   5   6
ENDBRANCH   1   5
BRANCH   2  20
HETATM   20  C   UNL     1      42.933 -14.383   2.519  1.00  0.00     0.149 C 
HETATM   21  C   UNL     1      43.132 -15.832   2.897  1.00  0.00    -0.007 A 
HETATM   22  C   UNL     1      43.182 -16.207   4.242  1.00  0.00     0.083 A 
HETATM   23  C   UNL     1      43.263 -16.820   1.908  1.00  0.00     0.011 A 
HETATM   24  C   UNL     1      43.348 -17.548   4.595  1.00  0.00     0.038 A 
HETATM   25  O   UNL     1      43.071 -15.318   5.282  1.00  0.00    -0.310 OA
HETATM   26  C   UNL     1      43.473 -18.524   3.607  1.00  0.00     0.003 A 
HETATM   27  C   UNL     1      43.431 -18.159   2.262  1.00  0.00     0.001 A 
HETATM   28  C   UNL     1      43.086 -13.973   5.002  1.00  0.00     0.083 A 
HETATM   29  C   UNL     1      43.035 -13.453   3.708  1.00  0.00    -0.007 A 
HETATM   30  C   UNL     1      43.150 -13.118   6.104  1.00  0.00     0.038 A 
HETATM   31  C   UNL     1      43.063 -12.061   3.529  1.00  0.00     0.011 A 
HETATM   32  C   UNL     1      43.131 -11.208   4.631  1.00  0.00     0.001 A 
HETATM   33  C   UNL     1      43.172 -11.737   5.920  1.00  0.00     0.003 A 
ENDBRANCH   2  20
TORSDOF 5
ENDMDL
MODEL 3
REMARK VINA RESULT:      -9.0      3.528      5.607
REMARK  5 active torsions:
REMARK  status: ('A' for Active; 'I' for Inactive)
REMARK    1  A    between atoms: O_2  and  C_3 
REMARK    2  A    between atoms: C_6  and  N_7 
REMARK    3  A    between atoms: C_11  and  C_12 
REMARK    4  A    between atoms: C_12  and  N_13 
REMARK       I    between atoms: N_13  and  C_14 
REMARK    5  A    between atoms: C_14  and  C_15 
ROOT
HETATM    1  N   UNL     1      43.583 -13.659   6.071  1.00  0.00    -0.360 N 
HETATM    2  C   UNL     1      42.901 -14.695   6.680  1.00  0.00     0.230 C 
HETATM    3  O   UNL     1      43.130 -15.047   7.837  1.00  0.00    -0.272 OA
HETATM    4  H   UNL     1      43.441 -13.512   5.076  1.00  0.00     0.162 HD
ENDROOT
BRANCH   1   5
HETATM    5  C   UNL     1      44.664 -12.954   6.730  1.00  0.00     0.129 C 
BRANCH   5   6
HETATM    6  C   UNL     1      44.734 -11.471   6.335  1.00  0.00     0.031 C 
HETATM    7  C   UNL     1      43.379 -10.964   5.859  1.00  0.00     0.111 C 
HETATM    8  C   UNL     1      42.722 -10.453   7.118  1.00  0.00     0.224 C 
HETATM    9  N   UNL     1      43.730 -10.232   8.069  1.00  0.00    -0.318 N 
HETATM   10  O   UNL     1      41.521 -10.246   7.195  1.00  0.00    -0.273 OA
HETATM   11  C   UNL     1      45.029 -10.569   7.526  1.00  0.00     0.139 C 
BRANCH   9  12
HETATM   12  C   UNL     1      43.566  -9.641   9.353  1.00  0.00     0.037 A 
HETATM   13  C   UNL     1      43.317  -8.272   9.511  1.00  0.00     0.032 A 
HETATM   14  C   UNL     1      43.149  -7.697  10.781  1.00  0.00     0.039 A 
HETATM   15  C   UNL     1      43.225  -8.484  11.925  1.00  0.00     0.068 A 
HETATM   16  C   UNL     1      43.482  -9.846  11.785  1.00  0.00     0.039 A 
HETATM   17  C   UNL     1      43.649 -10.417  10.517  1.00  0.00     0.032 A 
BRANCH  15  18
HETATM   18  O   UNL     1      43.074  -8.054  13.213  1.00  0.00    -0.356 OA
HETATM   19  C   UNL     1      42.089  -8.717  13.997  1.00  0.00     0.210 C 
ENDBRANCH  15  18
ENDBRANCH   9  12
ENDBRANCH   5   6
ENDBRANCH   1   5
BRANCH   2  20
HETATM   20  C   UNL     1      41.838 -15.396   5.819  1.00  0.00     0.149 C 
HETATM   21  C   UNL     1      42.478 -16.369   4.858  1.00  0.00    -0.007 A 
HETATM   22  C   UNL     1      42.370 -16.170   3.479  1.00  0.00     0.083 A 
HETATM   23  C   UNL     1      43.194 -17.481   5.333  1.00  0.00     0.011 A 
HETATM   24  C   UNL     1      42.977 -17.058   2.588  1.00  0.00     0.038 A 
HETATM   25  O   UNL     1      41.690 -15.120   2.916  1.00  0.00    -0.310 OA
HETATM   26  C   UNL     1      43.688 -18.157   3.068  1.00  0.00     0.003 A 
HETATM   27  C   UNL     1      43.796 -18.369   4.441  1.00  0.00     0.001 A 
HETATM   28  C   UNL     1      40.927 -14.317   3.730  1.00  0.00     0.083 A 
HETATM   29  C   UNL     1      40.937 -14.400   5.123  1.00  0.00    -0.007 A 
HETATM   30  C   UNL     1      40.118 -13.381   3.084  1.00  0.00     0.038 A 
HETATM   31  C   UNL     1      40.113 -13.538   5.865  1.00  0.00     0.011 A 
HETATM   32  C   UNL     1      39.303 -12.604   5.217  1.00  0.00     0.001 A 
HETATM   33  C   UNL     1      39.307 -12.524   3.826  1.00  0.00     0.003 A 
ENDBRANCH   2  20
TORSDOF 5
ENDMDL
MODEL 4
REMARK VINA RESULT:      -9.0      4.039      5.741
REMARK  5 active torsions:
REMARK  status: ('A' for Active; 'I' for Inactive)
REMARK    1  A    between atoms: O_2  and  C_3 
REMARK    2  A    between atoms: C_6  and  N_7 
REMARK    3  A    between atoms: C_11  and  C_12 
REMARK    4  A    between atoms: C_12  and  N_13 
REMARK       I    between atoms: N_13  and  C_14 
REMARK    5  A    between atoms: C_14  and  C_15 
ROOT
HETATM    1  N   UNL     1      40.888 -14.424  -0.089  1.00  0.00    -0.360 N 
HETATM    2  C   UNL     1      41.037 -14.733   1.250  1.00  0.00     0.230 C 
HETATM    3  O   UNL     1      40.105 -15.148   1.939  1.00  0.00    -0.272 OA
HETATM    4  H   UNL     1      41.657 -13.960  -0.561  1.00  0.00     0.162 HD
ENDROOT
BRANCH   1   5
HETATM    5  C   UNL     1      39.607 -14.506  -0.761  1.00  0.00     0.129 C 
BRANCH   5   6
HETATM    6  C   UNL     1      39.714 -14.264  -2.275  1.00  0.00     0.031 C 
HETATM    7  C   UNL     1      38.432 -13.652  -2.826  1.00  0.00     0.111 C 
HETATM    8  C   UNL     1      38.665 -12.166  -2.714  1.00  0.00     0.224 C 
HETATM    9  N   UNL     1      40.047 -11.955  -2.597  1.00  0.00    -0.318 N 
HETATM   10  O   UNL     1      37.756 -11.352  -2.775  1.00  0.00    -0.273 OA
HETATM   11  C   UNL     1      40.761 -13.215  -2.620  1.00  0.00     0.139 C 
BRANCH   9  12
HETATM   12  C   UNL     1      40.713 -10.697  -2.586  1.00  0.00     0.037 A 
HETATM   13  C   UNL     1      41.418 -10.242  -1.465  1.00  0.00     0.032 A 
HETATM   14  C   UNL     1      42.079  -9.003  -1.464  1.00  0.00     0.039 A 
HETATM   15  C   UNL     1      42.048  -8.189  -2.592  1.00  0.00     0.068 A 
HETATM   16  C   UNL     1      41.342  -8.624  -3.711  1.00  0.00     0.039 A 
HETATM   17  C   UNL     1      40.684  -9.860  -3.710  1.00  0.00     0.032 A 
BRANCH  15  18
HETATM   18  O   UNL     1      42.650  -6.971  -2.725  1.00  0.00    -0.356 OA
HETATM   19  C   UNL     1      42.810  -6.478  -4.050  1.00  0.00     0.210 C 
ENDBRANCH  15  18
ENDBRANCH   9  12
ENDBRANCH   5   6
ENDBRANCH   1   5
BRANCH   2  20
HETATM   20  C   UNL     1      42.440 -14.516   1.836  1.00  0.00     0.149 C 
HETATM   21  C   UNL     1      42.909 -15.742   2.584  1.00  0.00    -0.007 A 
HETATM   22  C   UNL     1      43.153 -15.677   3.958  1.00  0.00     0.083 A 
HETATM   23  C   UNL     1      43.098 -16.962   1.914  1.00  0.00     0.011 A 
HETATM   24  C   UNL     1      43.568 -16.813   4.656  1.00  0.00     0.038 A 
HETATM   25  O   UNL     1      43.003 -14.533   4.701  1.00  0.00    -0.310 OA
HETATM   26  C   UNL     1      43.751 -18.022   3.984  1.00  0.00     0.003 A 
HETATM   27  C   UNL     1      43.516 -18.095   2.612  1.00  0.00     0.001 A 
HETATM   28  C   UNL     1      42.771 -13.348   4.046  1.00  0.00     0.083 A 
HETATM   29  C   UNL     1      42.508 -13.261   2.677  1.00  0.00    -0.007 A 
HETATM   30  C   UNL     1      42.806 -12.195   4.833  1.00  0.00     0.038 A 
HETATM   31  C   UNL     1      42.291 -11.999   2.102  1.00  0.00     0.011 A 
HETATM   32  C   UNL     1      42.329 -10.847   2.889  1.00  0.00     0.001 A 
HETATM   33  C   UNL     1      42.584 -10.945   4.256  1.00  0.00     0.003 A 
ENDBRANCH   2  20
TORSDOF 5
ENDMDL
MODEL 5
REMARK VINA RESULT:      -8.9      3.647      6.490
REMARK  5 active torsions:
REMARK  status: ('A' for Active; 'I' for Inactive)
REMARK    1  A    between atoms: O_2  and  C_3 
REMARK    2  A    between atoms: C_6  and  N_7 
REMARK    3  A    between atoms: C_11  and  C_12 
REMARK    4  A    between atoms: C_12  and  N_13 
REMARK       I    between atoms: N_13  and  C_14 
REMARK    5  A    between atoms: C_14  and  C_15 
ROOT
HETATM    1  N   UNL     1      42.970 -12.457   5.462  1.00  0.00    -0.360 N 
HETATM    2  C   UNL     1      42.961 -12.951   4.171  1.00  0.00     0.230 C 
HETATM    3  O   UNL     1      43.725 -12.534   3.300  1.00  0.00    -0.272 OA
HETATM    4  H   UNL     1      42.227 -12.747   6.089  1.00  0.00     0.162 HD
ENDROOT
BRANCH   1   5
HETATM    5  C   UNL     1      43.836 -11.367   5.865  1.00  0.00     0.129 C 
BRANCH   5   6
HETATM    6  C   UNL     1      44.735 -11.732   7.057  1.00  0.00     0.031 C 
HETATM    7  C   UNL     1      46.032 -10.934   7.032  1.00  0.00     0.111 C 
HETATM    8  C   UNL     1      45.710  -9.697   7.834  1.00  0.00     0.224 C 
HETATM    9  N   UNL     1      44.581  -9.976   8.619  1.00  0.00    -0.318 N 
HETATM   10  O   UNL     1      46.396  -8.688   7.788  1.00  0.00    -0.273 OA
HETATM   11  C   UNL     1      44.120 -11.329   8.389  1.00  0.00     0.139 C 
BRANCH   9  12
HETATM   12  C   UNL     1      44.011  -9.130   9.610  1.00  0.00     0.037 A 
HETATM   13  C   UNL     1      44.111  -9.417  10.977  1.00  0.00     0.032 A 
HETATM   14  C   UNL     1      43.552  -8.572  11.950  1.00  0.00     0.039 A 
HETATM   15  C   UNL     1      42.878  -7.415  11.573  1.00  0.00     0.068 A 
HETATM   16  C   UNL     1      42.761  -7.121  10.216  1.00  0.00     0.039 A 
HETATM   17  C   UNL     1      43.319  -7.964   9.248  1.00  0.00     0.032 A 
BRANCH  15  18
HETATM   18  O   UNL     1      42.297  -6.509  12.413  1.00  0.00    -0.356 OA
HETATM   19  C   UNL     1      42.656  -6.589  13.787  1.00  0.00     0.210 C 
ENDBRANCH  15  18
ENDBRANCH   9  12
ENDBRANCH   5   6
ENDBRANCH   1   5
BRANCH   2  20
HETATM   20  C   UNL     1      41.929 -14.050   3.880  1.00  0.00     0.149 C 
HETATM   21  C   UNL     1      42.598 -15.398   3.749  1.00  0.00    -0.007 A 
HETATM   22  C   UNL     1      42.552 -16.091   2.537  1.00  0.00     0.083 A 
HETATM   23  C   UNL     1      43.280 -15.970   4.837  1.00  0.00     0.011 A 
HETATM   24  C   UNL     1      43.186 -17.329   2.407  1.00  0.00     0.038 A 
HETATM   25  O   UNL     1      41.909 -15.622   1.419  1.00  0.00    -0.310 OA
HETATM   26  C   UNL     1      43.863 -17.888   3.490  1.00  0.00     0.003 A 
HETATM   27  C   UNL     1      43.909 -17.208   4.706  1.00  0.00     0.001 A 
HETATM   28  C   UNL     1      41.121 -14.502   1.535  1.00  0.00     0.083 A 
HETATM   29  C   UNL     1      41.070 -13.709   2.683  1.00  0.00    -0.007 A 
HETATM   30  C   UNL     1      40.352 -14.175   0.417  1.00  0.00     0.038 A 
HETATM   31  C   UNL     1      40.225 -12.587   2.702  1.00  0.00     0.011 A 
HETATM   32  C   UNL     1      39.454 -12.265   1.585  1.00  0.00     0.001 A 
HETATM   33  C   UNL     1      39.519 -13.057   0.441  1.00  0.00     0.003 A 
ENDBRANCH   2  20
TORSDOF 5
ENDMDL
MODEL 6
REMARK VINA RESULT:      -8.8      2.646      6.082
REMARK  5 active torsions:
REMARK  status: ('A' for Active; 'I' for Inactive)
REMARK    1  A    between atoms: O_2  and  C_3 
REMARK    2  A    between atoms: C_6  and  N_7 
REMARK    3  A    between atoms: C_11  and  C_12 
REMARK    4  A    between atoms: C_12  and  N_13 
REMARK       I    between atoms: N_13  and  C_14 
REMARK    5  A    between atoms: C_14  and  C_15 
ROOT
HETATM    1  N   UNL     1      40.061 -11.798   2.178  1.00  0.00    -0.360 N 
HETATM    2  C   UNL     1      40.994 -11.552   1.189  1.00  0.00     0.230 C 
HETATM    3  O   UNL     1      41.420 -10.422   0.950  1.00  0.00    -0.272 OA
HETATM    4  H   UNL     1      39.653 -12.727   2.230  1.00  0.00     0.162 HD
ENDROOT
BRANCH   1   5
HETATM    5  C   UNL     1      39.468 -10.733   2.962  1.00  0.00     0.129 C 
BRANCH   5   6
HETATM    6  C   UNL     1      40.375 -10.266   4.111  1.00  0.00     0.031 C 
HETATM    7  C   UNL     1      39.576 -10.055   5.391  1.00  0.00     0.111 C 
HETATM    8  C   UNL     1      39.633 -11.398   6.078  1.00  0.00     0.224 C 
HETATM    9  N   UNL     1      40.713 -12.111   5.535  1.00  0.00    -0.318 N 
HETATM   10  O   UNL     1      38.867 -11.710   6.976  1.00  0.00    -0.273 OA
HETATM   11  C   UNL     1      41.385 -11.329   4.519  1.00  0.00     0.139 C 
BRANCH   9  12
HETATM   12  C   UNL     1      41.199 -13.374   5.977  1.00  0.00     0.037 A 
HETATM   13  C   UNL     1      40.383 -14.512   6.010  1.00  0.00     0.032 A 
HETATM   14  C   UNL     1      40.872 -15.756   6.440  1.00  0.00     0.039 A 
HETATM   15  C   UNL     1      42.195 -15.889   6.846  1.00  0.00     0.068 A 
HETATM   16  C   UNL     1      43.017 -14.765   6.829  1.00  0.00     0.039 A 
HETATM   17  C   UNL     1      42.528 -13.525   6.400  1.00  0.00     0.032 A 
BRANCH  15  18
HETATM   18  O   UNL     1      42.795 -17.037   7.279  1.00  0.00    -0.356 OA
HETATM   19  C   UNL     1      43.488 -17.803   6.300  1.00  0.00     0.210 C 
ENDBRANCH  15  18
ENDBRANCH   9  12
ENDBRANCH   5   6
ENDBRANCH   1   5
BRANCH   2  20
HETATM   20  C   UNL     1      41.465 -12.778   0.392  1.00  0.00     0.149 C 
HETATM   21  C   UNL     1      40.512 -13.085  -0.740  1.00  0.00    -0.007 A 
HETATM   22  C   UNL     1      39.808 -14.291  -0.758  1.00  0.00     0.083 A 
HETATM   23  C   UNL     1      40.316 -12.164  -1.782  1.00  0.00     0.011 A 
HETATM   24  C   UNL     1      38.913 -14.570  -1.793  1.00  0.00     0.038 A 
HETATM   25  O   UNL     1      39.933 -15.257   0.209  1.00  0.00    -0.310 OA
HETATM   26  C   UNL     1      38.721 -13.649  -2.822  1.00  0.00     0.003 A 
HETATM   27  C   UNL     1      39.424 -12.445  -2.816  1.00  0.00     0.001 A 
HETATM   28  C   UNL     1      40.924 -15.121   1.151  1.00  0.00     0.083 A 
HETATM   29  C   UNL     1      41.704 -13.971   1.290  1.00  0.00    -0.007 A 
HETATM   30  C   UNL     1      41.121 -16.214   1.997  1.00  0.00     0.038 A 
HETATM   31  C   UNL     1      42.698 -13.935   2.282  1.00  0.00     0.011 A 
HETATM   32  C   UNL     1      42.895 -15.031   3.124  1.00  0.00     0.001 A 
HETATM   33  C   UNL     1      42.106 -16.170   2.983  1.00  0.00     0.003 A 
ENDBRANCH   2  20
TORSDOF 5
ENDMDL
MODEL 7
REMARK VINA RESULT:      -8.5      3.333      5.528
REMARK  5 active torsions:
REMARK  status: ('A' for Active; 'I' for Inactive)
REMARK    1  A    between atoms: O_2  and  C_3 
REMARK    2  A    between atoms: C_6  and  N_7 
REMARK    3  A    between atoms: C_11  and  C_12 
REMARK    4  A    between atoms: C_12  and  N_13 
REMARK       I    between atoms: N_13  and  C_14 
REMARK    5  A    between atoms: C_14  and  C_15 
ROOT
HETATM    1  N   UNL     1      41.497 -14.854   0.815  1.00  0.00    -0.360 N 
HETATM    2  C   UNL     1      41.527 -15.443   2.066  1.00  0.00     0.230 C 
HETATM    3  O   UNL     1      40.525 -15.932   2.588  1.00  0.00    -0.272 OA
HETATM    4  H   UNL     1      42.323 -14.352   0.504  1.00  0.00     0.162 HD
ENDROOT
BRANCH   1   5
HETATM    5  C   UNL     1      40.270 -14.713   0.058  1.00  0.00     0.129 C 
BRANCH   5   6
HETATM    6  C   UNL     1      40.419 -13.764  -1.142  1.00  0.00     0.031 C 
HETATM    7  C   UNL     1      39.558 -14.220  -2.313  1.00  0.00     0.111 C 
HETATM    8  C   UNL     1      38.244 -13.510  -2.094  1.00  0.00     0.224 C 
HETATM    9  N   UNL     1      38.480 -12.430  -1.229  1.00  0.00    -0.318 N 
HETATM   10  O   UNL     1      37.213 -13.851  -2.651  1.00  0.00    -0.273 OA
HETATM   11  C   UNL     1      39.875 -12.373  -0.849  1.00  0.00     0.139 C 
BRANCH   9  12
HETATM   12  C   UNL     1      37.541 -11.429  -0.853  1.00  0.00     0.037 A 
HETATM   13  C   UNL     1      36.892 -10.628  -1.801  1.00  0.00     0.032 A 
HETATM   14  C   UNL     1      35.961  -9.647  -1.422  1.00  0.00     0.039 A 
HETATM   15  C   UNL     1      35.657  -9.447  -0.080  1.00  0.00     0.068 A 
HETATM   16  C   UNL     1      36.301 -10.229   0.876  1.00  0.00     0.039 A 
HETATM   17  C   UNL     1      37.229 -11.207   0.496  1.00  0.00     0.032 A 
BRANCH  15  18
HETATM   18  O   UNL     1      34.770  -8.537   0.420  1.00  0.00    -0.356 OA
HETATM   19  C   UNL     1      33.810  -8.013  -0.490  1.00  0.00     0.210 C 
ENDBRANCH  15  18
ENDBRANCH   9  12
ENDBRANCH   5   6
ENDBRANCH   1   5
BRANCH   2  20
HETATM   20  C   UNL     1      42.889 -15.442   2.775  1.00  0.00     0.149 C 
HETATM   21  C   UNL     1      43.270 -16.837   3.215  1.00  0.00    -0.007 A 
HETATM   22  C   UNL     1      43.415 -17.130   4.572  1.00  0.00     0.083 A 
HETATM   23  C   UNL     1      43.475 -17.856   2.270  1.00  0.00     0.011 A 
HETATM   24  C   UNL     1      43.749 -18.423   4.983  1.00  0.00     0.038 A 
HETATM   25  O   UNL     1      43.242 -16.205   5.572  1.00  0.00    -0.310 OA
HETATM   26  C   UNL     1      43.948 -19.430   4.039  1.00  0.00     0.003 A 
HETATM   27  C   UNL     1      43.812 -19.145   2.682  1.00  0.00     0.001 A 
HETATM   28  C   UNL     1      43.089 -14.884   5.226  1.00  0.00     0.083 A 
HETATM   29  C   UNL     1      42.929 -14.444   3.911  1.00  0.00    -0.007 A 
HETATM   30  C   UNL     1      43.097 -13.970   6.281  1.00  0.00     0.038 A 
HETATM   31  C   UNL     1      42.787 -13.069   3.663  1.00  0.00     0.011 A 
HETATM   32  C   UNL     1      42.799 -12.156   4.718  1.00  0.00     0.001 A 
HETATM   33  C   UNL     1      42.952 -12.606   6.028  1.00  0.00     0.003 A 
ENDBRANCH   2  20
TORSDOF 5
ENDMDL
MODEL 8
REMARK VINA RESULT:      -8.5     14.998     16.978
REMARK  5 active torsions:
REMARK  status: ('A' for Active; 'I' for Inactive)
REMARK    1  A    between atoms: O_2  and  C_3 
REMARK    2  A    between atoms: C_6  and  N_7 
REMARK    3  A    between atoms: C_11  and  C_12 
REMARK    4  A    between atoms: C_12  and  N_13 
REMARK       I    between atoms: N_13  and  C_14 
REMARK    5  A    between atoms: C_14  and  C_15 
ROOT
HETATM    1  N   UNL     1      46.720 -29.999   2.601  1.00  0.00    -0.360 N 
HETATM    2  C   UNL     1      47.500 -28.954   2.141  1.00  0.00     0.230 C 
HETATM    3  O   UNL     1      47.137 -27.780   2.212  1.00  0.00    -0.272 OA
HETATM    4  H   UNL     1      47.018 -30.946   2.389  1.00  0.00     0.162 HD
ENDROOT
BRANCH   1   5
HETATM    5  C   UNL     1      45.391 -29.791   3.139  1.00  0.00     0.129 C 
BRANCH   5   6
HETATM    6  C   UNL     1      44.372 -30.816   2.618  1.00  0.00     0.031 C 
HETATM    7  C   UNL     1      42.979 -30.208   2.522  1.00  0.00     0.111 C 
HETATM    8  C   UNL     1      42.925 -29.650   1.121  1.00  0.00     0.224 C 
HETATM    9  N   UNL     1      43.925 -30.283   0.368  1.00  0.00    -0.318 N 
HETATM   10  O   UNL     1      42.089 -28.830   0.772  1.00  0.00    -0.273 OA
HETATM   11  C   UNL     1      44.655 -31.233   1.181  1.00  0.00     0.139 C 
BRANCH   9  12
HETATM   12  C   UNL     1      44.147 -30.143  -1.031  1.00  0.00     0.037 A 
HETATM   13  C   UNL     1      44.325 -28.889  -1.630  1.00  0.00     0.032 A 
HETATM   14  C   UNL     1      44.551 -28.759  -3.010  1.00  0.00     0.039 A 
HETATM   15  C   UNL     1      44.606 -29.886  -3.823  1.00  0.00     0.068 A 
HETATM   16  C   UNL     1      44.421 -31.139  -3.244  1.00  0.00     0.039 A 
HETATM   17  C   UNL     1      44.196 -31.267  -1.867  1.00  0.00     0.032 A 
BRANCH  15  18
HETATM   18  O   UNL     1      44.824 -29.899  -5.172  1.00  0.00    -0.356 OA
HETATM   19  C   UNL     1      43.949 -30.705  -5.952  1.00  0.00     0.210 C 
ENDBRANCH  15  18
ENDBRANCH   9  12
ENDBRANCH   5   6
ENDBRANCH   1   5
BRANCH   2  20
HETATM   20  C   UNL     1      48.850 -29.346   1.523  1.00  0.00     0.149 C 
HETATM   21  C   UNL     1      48.665 -29.914   0.136  1.00  0.00    -0.007 A 
HETATM   22  C   UNL     1      49.017 -31.238  -0.134  1.00  0.00     0.083 A 
HETATM   23  C   UNL     1      48.132 -29.124  -0.897  1.00  0.00     0.011 A 
HETATM   24  C   UNL     1      48.829 -31.772  -1.411  1.00  0.00     0.038 A 
HETATM   25  O   UNL     1      49.549 -32.088   0.803  1.00  0.00    -0.310 OA
HETATM   26  C   UNL     1      48.296 -30.983  -2.430  1.00  0.00     0.003 A 
HETATM   27  C   UNL     1      47.949 -29.658  -2.172  1.00  0.00     0.001 A 
HETATM   28  C   UNL     1      49.921 -31.574   2.022  1.00  0.00     0.083 A 
HETATM   29  C   UNL     1      49.633 -30.270   2.430  1.00  0.00    -0.007 A 
HETATM   30  C   UNL     1      50.618 -32.440   2.866  1.00  0.00     0.038 A 
HETATM   31  C   UNL     1      50.065 -29.839   3.694  1.00  0.00     0.011 A 
HETATM   32  C   UNL     1      50.764 -30.705   4.535  1.00  0.00     0.001 A 
HETATM   33  C   UNL     1      51.039 -32.007   4.122  1.00  0.00     0.003 A 
ENDBRANCH   2  20
TORSDOF 5
ENDMDL
MODEL 9
REMARK VINA RESULT:      -8.5      3.592      8.556
REMARK  5 active torsions:
REMARK  status: ('A' for Active; 'I' for Inactive)
REMARK    1  A    between atoms: O_2  and  C_3 
REMARK    2  A    between atoms: C_6  and  N_7 
REMARK    3  A    between atoms: C_11  and  C_12 
REMARK    4  A    between atoms: C_12  and  N_13 
REMARK       I    between atoms: N_13  and  C_14 
REMARK    5  A    between atoms: C_14  and  C_15 
ROOT
HETATM    1  N   UNL     1      41.881 -10.477   1.698  1.00  0.00    -0.360 N 
HETATM    2  C   UNL     1      40.947 -10.475   0.680  1.00  0.00     0.230 C 
HETATM    3  O   UNL     1      39.790 -10.088   0.846  1.00  0.00    -0.272 OA
HETATM    4  H   UNL     1      42.772 -10.933   1.529  1.00  0.00     0.162 HD
ENDROOT
BRANCH   1   5
HETATM    5  C   UNL     1      41.547 -10.084   3.053  1.00  0.00     0.129 C 
BRANCH   5   6
HETATM    6  C   UNL     1      42.570 -10.582   4.085  1.00  0.00     0.031 C 
HETATM    7  C   UNL     1      41.878 -11.118   5.332  1.00  0.00     0.111 C 
HETATM    8  C   UNL     1      41.677 -12.583   5.032  1.00  0.00     0.224 C 
HETATM    9  N   UNL     1      42.565 -12.936   4.004  1.00  0.00    -0.318 N 
HETATM   10  O   UNL     1      40.895 -13.281   5.658  1.00  0.00    -0.273 OA
HETATM   11  C   UNL     1      43.350 -11.792   3.589  1.00  0.00     0.139 C 
BRANCH   9  12
HETATM   12  C   UNL     1      42.792 -14.245   3.495  1.00  0.00     0.037 A 
HETATM   13  C   UNL     1      42.843 -14.508   2.120  1.00  0.00     0.032 A 
HETATM   14  C   UNL     1      43.075 -15.802   1.626  1.00  0.00     0.039 A 
HETATM   15  C   UNL     1      43.262 -16.866   2.502  1.00  0.00     0.068 A 
HETATM   16  C   UNL     1      43.203 -16.623   3.872  1.00  0.00     0.039 A 
HETATM   17  C   UNL     1      42.972 -15.332   4.363  1.00  0.00     0.032 A 
BRANCH  15  18
HETATM   18  O   UNL     1      43.501 -18.165   2.155  1.00  0.00    -0.356 OA
HETATM   19  C   UNL     1      44.004 -19.017   3.177  1.00  0.00     0.210 C 
ENDBRANCH  15  18
ENDBRANCH   9  12
ENDBRANCH   5   6
ENDBRANCH   1   5
BRANCH   2  20
HETATM   20  C   UNL     1      41.436 -10.997  -0.680  1.00  0.00     0.149 C 
HETATM   21  C   UNL     1      41.567  -9.868  -1.676  1.00  0.00    -0.007 A 
HETATM   22  C   UNL     1      40.771  -9.849  -2.824  1.00  0.00     0.083 A 
HETATM   23  C   UNL     1      42.480  -8.824  -1.460  1.00  0.00     0.011 A 
HETATM   24  C   UNL     1      40.876  -8.798  -3.738  1.00  0.00     0.038 A 
HETATM   25  O   UNL     1      39.853 -10.824  -3.128  1.00  0.00    -0.310 OA
HETATM   26  C   UNL     1      41.783  -7.762  -3.515  1.00  0.00     0.003 A 
HETATM   27  C   UNL     1      42.586  -7.777  -2.376  1.00  0.00     0.001 A 
HETATM   28  C   UNL     1      39.830 -11.966  -2.365  1.00  0.00     0.083 A 
HETATM   29  C   UNL     1      40.569 -12.126  -1.191  1.00  0.00    -0.007 A 
HETATM   30  C   UNL     1      39.006 -12.995  -2.825  1.00  0.00     0.038 A 
HETATM   31  C   UNL     1      40.481 -13.338  -0.487  1.00  0.00     0.011 A 
HETATM   32  C   UNL     1      39.659 -14.365  -0.951  1.00  0.00     0.001 A 
HETATM   33  C   UNL     1      38.919 -14.194  -2.119  1.00  0.00     0.003 A 
ENDBRANCH   2  20
TORSDOF 5
ENDMDL
MODEL 10
REMARK VINA RESULT:      -8.3      3.953      8.621
REMARK  5 active torsions:
REMARK  status: ('A' for Active; 'I' for Inactive)
REMARK    1  A    between atoms: O_2  and  C_3 
REMARK    2  A    between atoms: C_6  and  N_7 
REMARK    3  A    between atoms: C_11  and  C_12 
REMARK    4  A    between atoms: C_12  and  N_13 
REMARK       I    between atoms: N_13  and  C_14 
REMARK    5  A    between atoms: C_14  and  C_15 
ROOT
HETATM    1  N   UNL     1      41.237 -10.062   7.974  1.00  0.00    -0.360 N 
HETATM    2  C   UNL     1      41.127  -8.730   8.327  1.00  0.00     0.230 C 
HETATM    3  O   UNL     1      40.465  -7.926   7.671  1.00  0.00    -0.272 OA
HETATM    4  H   UNL     1      41.905 -10.636   8.479  1.00  0.00     0.162 HD
ENDROOT
BRANCH   1   5
HETATM    5  C   UNL     1      40.632 -10.593   6.769  1.00  0.00     0.129 C 
BRANCH   5   6
HETATM    6  C   UNL     1      41.663 -10.886   5.668  1.00  0.00     0.031 C 
HETATM    7  C   UNL     1      43.084 -10.662   6.170  1.00  0.00     0.111 C 
HETATM    8  C   UNL     1      43.491 -12.009   6.714  1.00  0.00     0.224 C 
HETATM    9  N   UNL     1      42.640 -12.973   6.154  1.00  0.00    -0.318 N 
HETATM   10  O   UNL     1      44.442 -12.153   7.467  1.00  0.00    -0.273 OA
HETATM   11  C   UNL     1      41.678 -12.354   5.266  1.00  0.00     0.139 C 
BRANCH   9  12
HETATM   12  C   UNL     1      42.747 -14.385   6.304  1.00  0.00     0.037 A 
HETATM   13  C   UNL     1      41.622 -15.219   6.283  1.00  0.00     0.032 A 
HETATM   14  C   UNL     1      41.737 -16.612   6.424  1.00  0.00     0.039 A 
HETATM   15  C   UNL     1      42.986 -17.202   6.588  1.00  0.00     0.068 A 
HETATM   16  C   UNL     1      44.113 -16.384   6.620  1.00  0.00     0.039 A 
HETATM   17  C   UNL     1      43.997 -14.995   6.480  1.00  0.00     0.032 A 
BRANCH  15  18
HETATM   18  O   UNL     1      43.236 -18.537   6.729  1.00  0.00    -0.356 OA
HETATM   19  C   UNL     1      43.872 -19.187   5.634  1.00  0.00     0.210 C 
ENDBRANCH  15  18
ENDBRANCH   9  12
ENDBRANCH   5   6
ENDBRANCH   1   5
BRANCH   2  20
HETATM   20  C   UNL     1      41.893  -8.305   9.589  1.00  0.00     0.149 C 
HETATM   21  C   UNL     1      43.335  -8.751   9.521  1.00  0.00    -0.007 A 
HETATM   22  C   UNL     1      43.831  -9.670  10.449  1.00  0.00     0.083 A 
HETATM   23  C   UNL     1      44.192  -8.257   8.524  1.00  0.00     0.011 A 
HETATM   24  C   UNL     1      45.158 -10.098  10.378  1.00  0.00     0.038 A 
HETATM   25  O   UNL     1      43.077 -10.207  11.462  1.00  0.00    -0.310 OA
HETATM   26  C   UNL     1      46.003  -9.605   9.383  1.00  0.00     0.003 A 
HETATM   27  C   UNL     1      45.519  -8.683   8.457  1.00  0.00     0.001 A 
HETATM   28  C   UNL     1      41.823  -9.694  11.693  1.00  0.00     0.083 A 
HETATM   29  C   UNL     1      41.199  -8.773  10.849  1.00  0.00    -0.007 A 
HETATM   30  C   UNL     1      41.175 -10.151  12.842  1.00  0.00     0.038 A 
HETATM   31  C   UNL     1      39.917  -8.304  11.178  1.00  0.00     0.011 A 
HETATM   32  C   UNL     1      39.273  -8.759  12.329  1.00  0.00     0.001 A 
HETATM   33  C   UNL     1      39.900  -9.685  13.160  1.00  0.00     0.003 A 
ENDBRANCH   2  20
TORSDOF 5
ENDMDL
