MODEL 1
REMARK VINA RESULT:      -8.3      0.000      0.000
REMARK  7 active torsions:
REMARK  status: ('A' for Active; 'I' for Inactive)
REMARK    1  A    between atoms: C_4  and  N_5 
REMARK    2  A    between atoms: N_8  and  C_10 
REMARK    3  A    between atoms: C_10  and  C_11 
REMARK    4  A    between atoms: C_11  and  C_12 
REMARK    5  A    between atoms: C_12  and  C_13 
REMARK    6  A    between atoms: C_13  and  N_14 
REMARK       I    between atoms: N_14  and  C_15 
REMARK    7  A    between atoms: C_15  and  C_16 
ROOT
HETATM    1  C   UNL     1      38.655  -9.768   3.953  1.00  0.00     0.123 C 
ENDROOT
BRANCH   1   2
HETATM    2  C   UNL     1      38.269  -9.842   5.431  1.00  0.00     0.021 C 
BRANCH   2   3
HETATM    3  C   UNL     1      38.910 -11.053   6.114  1.00  0.00     0.029 C 
BRANCH   3   4
HETATM    4  C   UNL     1      40.362 -10.764   6.493  1.00  0.00     0.235 C 
BRANCH   4   5
HETATM    5  N   UNL     1      41.164 -12.043   6.545  1.00  0.00    -0.068 N 
HETATM    6  C   UNL     1      40.404 -13.208   5.890  1.00  0.00     0.254 C 
HETATM    7  C   UNL     1      41.187 -14.528   6.061  1.00  0.00     0.150 C 
HETATM    8  N   UNL     1      42.561 -14.390   5.541  1.00  0.00    -0.378 N 
HETATM    9  C   UNL     1      43.326 -13.261   6.092  1.00  0.00     0.150 C 
HETATM   10  C   UNL     1      42.563 -11.930   5.922  1.00  0.00     0.254 C 
HETATM   11  H   UNL     1      41.291 -12.301   7.531  1.00  0.00     0.280 HD
BRANCH   8  12
HETATM   12  C   UNL     1      42.844 -14.909   4.278  1.00  0.00     0.030 A 
HETATM   13  C   UNL     1      42.784 -16.281   3.978  1.00  0.00     0.036 A 
HETATM   14  C   UNL     1      43.054 -16.778   2.689  1.00  0.00    -0.060 A 
HETATM   15  C   UNL     1      42.940 -18.246   2.391  1.00  0.00     0.048 C 
HETATM   16  C   UNL     1      43.370 -15.887   1.664  1.00  0.00     0.007 A 
HETATM   17  C   UNL     1      43.423 -14.524   1.925  1.00  0.00     0.003 A 
HETATM   18  C   UNL     1      43.159 -14.047   3.213  1.00  0.00     0.029 A 
ENDBRANCH   8  12
ENDBRANCH   4   5
ENDBRANCH   3   4
ENDBRANCH   2   3
ENDBRANCH   1   2
BRANCH   1  19
HETATM   19  N   UNL     1      38.819 -11.079   3.363  1.00  0.00    -0.357 N 
HETATM   20  C   UNL     1      39.885 -11.359   2.529  1.00  0.00     0.254 C 
HETATM   21  O   UNL     1      40.785 -10.548   2.327  1.00  0.00    -0.268 OA
HETATM   22  H   UNL     1      38.152 -11.799   3.607  1.00  0.00     0.162 HD
BRANCH  20  23
HETATM   23  C   UNL     1      39.925 -12.706   1.902  1.00  0.00     0.064 A 
HETATM   24  C   UNL     1      40.191 -12.836   0.549  1.00  0.00     0.077 A 
HETATM   25  C   UNL     1      40.243 -14.082  -0.083  1.00  0.00     0.065 A 
HETATM   26  N   UNL     1      40.447 -11.865  -0.423  1.00  0.00    -0.330 N 
HETATM   27  N   UNL     1      40.531 -13.875  -1.431  1.00  0.00    -0.331 N 
HETATM   28  C   UNL     1      40.023 -15.258   0.590  1.00  0.00     0.074 A 
HETATM   29  C   UNL     1      40.650 -12.497  -1.651  1.00  0.00     0.176 A 
HETATM   30  H   UNL     1      40.619 -14.582  -2.148  1.00  0.00     0.168 HD
HETATM   31  S   UNL     1      40.966 -11.761  -3.090  1.00  0.00    -0.041 SA
HETATM   32  C   UNL     1      39.735 -15.141   1.948  1.00  0.00     0.119 A 
HETATM   33  F   UNL     1      39.496 -16.250   2.661  1.00  0.00    -0.206 F 
HETATM   34  C   UNL     1      39.680 -13.895   2.605  1.00  0.00     0.061 A 
HETATM   35  H   UNL     1      40.426 -10.865  -0.255  1.00  0.00     0.168 HD
ENDBRANCH  20  23
ENDBRANCH   1  19
TORSDOF 7
ENDMDL
MODEL 2
REMARK VINA RESULT:      -7.7      4.815      7.934
REMARK  7 active torsions:
REMARK  status: ('A' for Active; 'I' for Inactive)
REMARK    1  A    between atoms: C_4  and  N_5 
REMARK    2  A    between atoms: N_8  and  C_10 
REMARK    3  A    between atoms: C_10  and  C_11 
REMARK    4  A    between atoms: C_11  and  C_12 
REMARK    5  A    between atoms: C_12  and  C_13 
REMARK    6  A    between atoms: C_13  and  N_14 
REMARK       I    between atoms: N_14  and  C_15 
REMARK    7  A    between atoms: C_15  and  C_16 
ROOT
HETATM    1  C   UNL     1      46.436 -10.518   7.778  1.00  0.00     0.123 C 
ENDROOT
BRANCH   1   2
HETATM    2  C   UNL     1      45.983 -11.126   6.450  1.00  0.00     0.021 C 
BRANCH   2   3
HETATM    3  C   UNL     1      44.786 -12.059   6.645  1.00  0.00     0.029 C 
BRANCH   3   4
HETATM    4  C   UNL     1      43.873 -12.044   5.420  1.00  0.00     0.235 C 
BRANCH   4   5
HETATM    5  N   UNL     1      42.979 -13.262   5.406  1.00  0.00    -0.068 N 
HETATM    6  C   UNL     1      42.683 -13.723   3.969  1.00  0.00     0.254 C 
HETATM    7  C   UNL     1      41.673 -14.892   3.975  1.00  0.00     0.150 C 
HETATM    8  N   UNL     1      42.156 -15.993   4.830  1.00  0.00    -0.378 N 
HETATM    9  C   UNL     1      42.506 -15.607   6.206  1.00  0.00     0.150 C 
HETATM   10  C   UNL     1      43.521 -14.445   6.221  1.00  0.00     0.254 C 
HETATM   11  H   UNL     1      42.075 -13.000   5.816  1.00  0.00     0.280 HD
BRANCH   8  12
HETATM   12  C   UNL     1      42.747 -17.096   4.216  1.00  0.00     0.030 A 
HETATM   13  C   UNL     1      43.348 -18.147   4.931  1.00  0.00     0.036 A 
HETATM   14  C   UNL     1      43.920 -19.261   4.287  1.00  0.00    -0.060 A 
HETATM   15  C   UNL     1      44.518 -20.386   5.082  1.00  0.00     0.048 C 
HETATM   16  C   UNL     1      43.871 -19.346   2.896  1.00  0.00     0.007 A 
HETATM   17  C   UNL     1      43.271 -18.332   2.162  1.00  0.00     0.003 A 
HETATM   18  C   UNL     1      42.714 -17.228   2.817  1.00  0.00     0.029 A 
ENDBRANCH   8  12
ENDBRANCH   4   5
ENDBRANCH   3   4
ENDBRANCH   2   3
ENDBRANCH   1   2
BRANCH   1  19
HETATM   19  N   UNL     1      45.339 -10.348   8.705  1.00  0.00    -0.357 N 
HETATM   20  C   UNL     1      44.831  -9.094   8.991  1.00  0.00     0.254 C 
HETATM   21  O   UNL     1      45.219  -8.087   8.406  1.00  0.00    -0.268 OA
HETATM   22  H   UNL     1      44.925 -11.176   9.113  1.00  0.00     0.162 HD
BRANCH  20  23
HETATM   23  C   UNL     1      43.761  -9.010  10.019  1.00  0.00     0.064 A 
HETATM   24  C   UNL     1      42.441  -9.242   9.670  1.00  0.00     0.077 A 
HETATM   25  C   UNL     1      41.402  -9.178  10.603  1.00  0.00     0.065 A 
HETATM   26  N   UNL     1      41.872  -9.561   8.434  1.00  0.00    -0.330 N 
HETATM   27  N   UNL     1      40.206  -9.460   9.944  1.00  0.00    -0.331 N 
HETATM   28  C   UNL     1      41.617  -8.871  11.924  1.00  0.00     0.074 A 
HETATM   29  C   UNL     1      40.491  -9.690   8.592  1.00  0.00     0.176 A 
HETATM   30  H   UNL     1      39.281  -9.476  10.347  1.00  0.00     0.168 HD
HETATM   31  S   UNL     1      39.400 -10.042   7.410  1.00  0.00    -0.041 SA
HETATM   32  C   UNL     1      42.938  -8.617  12.285  1.00  0.00     0.119 A 
HETATM   33  F   UNL     1      43.215  -8.298  13.556  1.00  0.00    -0.206 F 
HETATM   34  C   UNL     1      44.001  -8.678  11.361  1.00  0.00     0.061 A 
HETATM   35  H   UNL     1      42.389  -9.628   7.564  1.00  0.00     0.168 HD
ENDBRANCH  20  23
ENDBRANCH   1  19
TORSDOF 7
ENDMDL
MODEL 3
REMARK VINA RESULT:      -7.5      5.432      8.631
REMARK  7 active torsions:
REMARK  status: ('A' for Active; 'I' for Inactive)
REMARK    1  A    between atoms: C_4  and  N_5 
REMARK    2  A    between atoms: N_8  and  C_10 
REMARK    3  A    between atoms: C_10  and  C_11 
REMARK    4  A    between atoms: C_11  and  C_12 
REMARK    5  A    between atoms: C_12  and  C_13 
REMARK    6  A    between atoms: C_13  and  N_14 
REMARK       I    between atoms: N_14  and  C_15 
REMARK    7  A    between atoms: C_15  and  C_16 
ROOT
HETATM    1  C   UNL     1      45.640 -10.793   7.942  1.00  0.00     0.123 C 
ENDROOT
BRANCH   1   2
HETATM    2  C   UNL     1      45.104 -11.215   6.573  1.00  0.00     0.021 C 
BRANCH   2   3
HETATM    3  C   UNL     1      44.063 -12.330   6.703  1.00  0.00     0.029 C 
BRANCH   3   4
HETATM    4  C   UNL     1      42.720 -11.898   6.115  1.00  0.00     0.235 C 
BRANCH   4   5
HETATM    5  N   UNL     1      42.210 -12.931   5.138  1.00  0.00    -0.068 N 
HETATM    6  C   UNL     1      43.305 -13.354   4.146  1.00  0.00     0.254 C 
HETATM    7  C   UNL     1      42.730 -14.318   3.084  1.00  0.00     0.150 C 
HETATM    8  N   UNL     1      42.077 -15.474   3.729  1.00  0.00    -0.378 N 
HETATM    9  C   UNL     1      41.052 -15.135   4.728  1.00  0.00     0.150 C 
HETATM   10  C   UNL     1      41.611 -14.179   5.803  1.00  0.00     0.254 C 
HETATM   11  H   UNL     1      41.464 -12.500   4.577  1.00  0.00     0.280 HD
BRANCH   8  12
HETATM   12  C   UNL     1      42.778 -16.677   3.791  1.00  0.00     0.030 A 
HETATM   13  C   UNL     1      42.669 -17.683   2.815  1.00  0.00     0.036 A 
HETATM   14  C   UNL     1      43.404 -18.882   2.889  1.00  0.00    -0.060 A 
HETATM   15  C   UNL     1      43.296 -19.919   1.808  1.00  0.00     0.048 C 
HETATM   16  C   UNL     1      44.288 -19.077   3.949  1.00  0.00     0.007 A 
HETATM   17  C   UNL     1      44.430 -18.096   4.921  1.00  0.00     0.003 A 
HETATM   18  C   UNL     1      43.687 -16.914   4.837  1.00  0.00     0.029 A 
ENDBRANCH   8  12
ENDBRANCH   4   5
ENDBRANCH   3   4
ENDBRANCH   2   3
ENDBRANCH   1   2
BRANCH   1  19
HETATM   19  N   UNL     1      44.877  -9.707   8.518  1.00  0.00    -0.357 N 
HETATM   20  C   UNL     1      44.063  -9.909   9.617  1.00  0.00     0.254 C 
HETATM   21  O   UNL     1      44.024 -10.984  10.209  1.00  0.00    -0.268 OA
HETATM   22  H   UNL     1      44.983  -8.784   8.117  1.00  0.00     0.162 HD
BRANCH  20  23
HETATM   23  C   UNL     1      43.252  -8.754  10.086  1.00  0.00     0.064 A 
HETATM   24  C   UNL     1      42.139  -8.965  10.881  1.00  0.00     0.077 A 
HETATM   25  C   UNL     1      41.349  -7.910  11.350  1.00  0.00     0.065 A 
HETATM   26  N   UNL     1      41.579 -10.151  11.364  1.00  0.00    -0.330 N 
HETATM   27  N   UNL     1      40.315  -8.447  12.117  1.00  0.00    -0.331 N 
HETATM   28  C   UNL     1      41.617  -6.599  11.046  1.00  0.00     0.074 A 
HETATM   29  C   UNL     1      40.448  -9.841  12.121  1.00  0.00     0.176 A 
HETATM   30  H   UNL     1      39.574  -7.938  12.577  1.00  0.00     0.168 HD
HETATM   31  S   UNL     1      39.452 -10.914  12.876  1.00  0.00    -0.041 SA
HETATM   32  C   UNL     1      42.724  -6.374  10.231  1.00  0.00     0.119 A 
HETATM   33  F   UNL     1      43.033  -5.117   9.885  1.00  0.00    -0.206 F 
HETATM   34  C   UNL     1      43.535  -7.422   9.750  1.00  0.00     0.061 A 
HETATM   35  H   UNL     1      41.921 -11.079  11.142  1.00  0.00     0.168 HD
ENDBRANCH  20  23
ENDBRANCH   1  19
TORSDOF 7
ENDMDL
MODEL 4
REMARK VINA RESULT:      -7.5      4.802      7.711
REMARK  7 active torsions:
REMARK  status: ('A' for Active; 'I' for Inactive)
REMARK    1  A    between atoms: C_4  and  N_5 
REMARK    2  A    between atoms: N_8  and  C_10 
REMARK    3  A    between atoms: C_10  and  C_11 
REMARK    4  A    between atoms: C_11  and  C_12 
REMARK    5  A    between atoms: C_12  and  C_13 
REMARK    6  A    between atoms: C_13  and  N_14 
REMARK       I    between atoms: N_14  and  C_15 
REMARK    7  A    between atoms: C_15  and  C_16 
ROOT
HETATM    1  C   UNL     1      41.153 -10.274   5.109  1.00  0.00     0.123 C 
ENDROOT
BRANCH   1   2
HETATM    2  C   UNL     1      40.607 -11.676   4.835  1.00  0.00     0.021 C 
BRANCH   2   3
HETATM    3  C   UNL     1      40.270 -12.406   6.138  1.00  0.00     0.029 C 
BRANCH   3   4
HETATM    4  C   UNL     1      40.256 -13.920   5.931  1.00  0.00     0.235 C 
BRANCH   4   5
HETATM    5  N   UNL     1      41.591 -14.399   5.412  1.00  0.00    -0.068 N 
HETATM    6  C   UNL     1      42.267 -15.359   6.404  1.00  0.00     0.254 C 
HETATM    7  C   UNL     1      43.679 -15.741   5.910  1.00  0.00     0.150 C 
HETATM    8  N   UNL     1      43.621 -16.295   4.543  1.00  0.00    -0.378 N 
HETATM    9  C   UNL     1      42.941 -15.444   3.554  1.00  0.00     0.150 C 
HETATM   10  C   UNL     1      41.523 -15.059   4.027  1.00  0.00     0.254 C 
HETATM   11  H   UNL     1      42.213 -13.586   5.329  1.00  0.00     0.280 HD
BRANCH   8  12
HETATM   12  C   UNL     1      43.682 -17.679   4.389  1.00  0.00     0.030 A 
HETATM   13  C   UNL     1      43.571 -18.320   3.143  1.00  0.00     0.036 A 
HETATM   14  C   UNL     1      43.656 -19.719   3.010  1.00  0.00    -0.060 A 
HETATM   15  C   UNL     1      43.575 -20.371   1.659  1.00  0.00     0.048 C 
HETATM   16  C   UNL     1      43.881 -20.501   4.142  1.00  0.00     0.007 A 
HETATM   17  C   UNL     1      44.010 -19.896   5.385  1.00  0.00     0.003 A 
HETATM   18  C   UNL     1      43.915 -18.506   5.501  1.00  0.00     0.029 A 
ENDBRANCH   8  12
ENDBRANCH   4   5
ENDBRANCH   3   4
ENDBRANCH   2   3
ENDBRANCH   1   2
BRANCH   1  19
HETATM   19  N   UNL     1      42.114 -10.262   6.191  1.00  0.00    -0.357 N 
HETATM   20  C   UNL     1      41.903  -9.501   7.326  1.00  0.00     0.254 C 
HETATM   21  O   UNL     1      40.858  -8.883   7.510  1.00  0.00    -0.268 OA
HETATM   22  H   UNL     1      42.929 -10.855   6.112  1.00  0.00     0.162 HD
BRANCH  20  23
HETATM   23  C   UNL     1      42.984  -9.485   8.346  1.00  0.00     0.064 A 
HETATM   24  C   UNL     1      42.674  -9.612   9.690  1.00  0.00     0.077 A 
HETATM   25  C   UNL     1      43.657  -9.607  10.684  1.00  0.00     0.065 A 
HETATM   26  N   UNL     1      41.438  -9.759  10.326  1.00  0.00    -0.330 N 
HETATM   27  N   UNL     1      43.028  -9.753  11.920  1.00  0.00    -0.331 N 
HETATM   28  C   UNL     1      44.992  -9.465  10.398  1.00  0.00     0.074 A 
HETATM   29  C   UNL     1      41.647  -9.839  11.704  1.00  0.00     0.176 A 
HETATM   30  H   UNL     1      43.470  -9.771  12.827  1.00  0.00     0.168 HD
HETATM   31  S   UNL     1      40.486 -10.000  12.861  1.00  0.00    -0.041 SA
HETATM   32  C   UNL     1      45.317  -9.318   9.052  1.00  0.00     0.119 A 
HETATM   33  F   UNL     1      46.601  -9.161   8.706  1.00  0.00    -0.206 F 
HETATM   34  C   UNL     1      44.342  -9.323   8.033  1.00  0.00     0.061 A 
HETATM   35  H   UNL     1      40.543  -9.750   9.850  1.00  0.00     0.168 HD
ENDBRANCH  20  23
ENDBRANCH   1  19
TORSDOF 7
ENDMDL
MODEL 5
REMARK VINA RESULT:      -7.4      4.819      7.838
REMARK  7 active torsions:
REMARK  status: ('A' for Active; 'I' for Inactive)
REMARK    1  A    between atoms: C_4  and  N_5 
REMARK    2  A    between atoms: N_8  and  C_10 
REMARK    3  A    between atoms: C_10  and  C_11 
REMARK    4  A    between atoms: C_11  and  C_12 
REMARK    5  A    between atoms: C_12  and  C_13 
REMARK    6  A    between atoms: C_13  and  N_14 
REMARK       I    between atoms: N_14  and  C_15 
REMARK    7  A    between atoms: C_15  and  C_16 
ROOT
HETATM    1  C   UNL     1      41.017 -11.219   5.681  1.00  0.00     0.123 C 
ENDROOT
BRANCH   1   2
HETATM    2  C   UNL     1      40.211 -12.501   5.901  1.00  0.00     0.021 C 
BRANCH   2   3
HETATM    3  C   UNL     1      39.540 -12.965   4.605  1.00  0.00     0.029 C 
BRANCH   3   4
HETATM    4  C   UNL     1      40.169 -12.289   3.388  1.00  0.00     0.235 C 
BRANCH   4   5
HETATM    5  N   UNL     1      40.901 -13.299   2.537  1.00  0.00    -0.068 N 
HETATM    6  C   UNL     1      42.373 -13.429   2.962  1.00  0.00     0.254 C 
HETATM    7  C   UNL     1      43.131 -14.374   2.004  1.00  0.00     0.150 C 
HETATM    8  N   UNL     1      42.452 -15.682   1.917  1.00  0.00    -0.378 N 
HETATM    9  C   UNL     1      41.026 -15.623   1.563  1.00  0.00     0.150 C 
HETATM   10  C   UNL     1      40.250 -14.689   2.516  1.00  0.00     0.254 C 
HETATM   11  H   UNL     1      40.911 -12.954   1.569  1.00  0.00     0.280 HD
BRANCH   8  12
HETATM   12  C   UNL     1      42.972 -16.745   2.655  1.00  0.00     0.030 A 
HETATM   13  C   UNL     1      43.073 -18.054   2.154  1.00  0.00     0.036 A 
HETATM   14  C   UNL     1      43.621 -19.106   2.912  1.00  0.00    -0.060 A 
HETATM   15  C   UNL     1      43.753 -20.486   2.332  1.00  0.00     0.048 C 
HETATM   16  C   UNL     1      44.103 -18.847   4.194  1.00  0.00     0.007 A 
HETATM   17  C   UNL     1      44.031 -17.561   4.712  1.00  0.00     0.003 A 
HETATM   18  C   UNL     1      43.477 -16.528   3.949  1.00  0.00     0.029 A 
ENDBRANCH   8  12
ENDBRANCH   4   5
ENDBRANCH   3   4
ENDBRANCH   2   3
ENDBRANCH   1   2
BRANCH   1  19
HETATM   19  N   UNL     1      41.992 -10.999   6.728  1.00  0.00    -0.357 N 
HETATM   20  C   UNL     1      41.947  -9.867   7.520  1.00  0.00     0.254 C 
HETATM   21  O   UNL     1      41.032  -9.052   7.438  1.00  0.00    -0.268 OA
HETATM   22  H   UNL     1      42.688 -11.715   6.890  1.00  0.00     0.162 HD
BRANCH  20  23
HETATM   23  C   UNL     1      43.039  -9.685   8.512  1.00  0.00     0.064 A 
HETATM   24  C   UNL     1      42.755  -9.691   9.867  1.00  0.00     0.077 A 
HETATM   25  C   UNL     1      43.749  -9.528  10.837  1.00  0.00     0.065 A 
HETATM   26  N   UNL     1      41.539  -9.842  10.539  1.00  0.00    -0.330 N 
HETATM   27  N   UNL     1      43.146  -9.583  12.093  1.00  0.00    -0.331 N 
HETATM   28  C   UNL     1      45.070  -9.342  10.512  1.00  0.00     0.074 A 
HETATM   29  C   UNL     1      41.770  -9.768  11.914  1.00  0.00     0.176 A 
HETATM   30  H   UNL     1      43.602  -9.483  12.989  1.00  0.00     0.168 HD
HETATM   31  S   UNL     1      40.636  -9.875  13.104  1.00  0.00    -0.041 SA
HETATM   32  C   UNL     1      45.367  -9.315   9.151  1.00  0.00     0.119 A 
HETATM   33  F   UNL     1      46.635  -9.122   8.766  1.00  0.00    -0.206 F 
HETATM   34  C   UNL     1      44.381  -9.479   8.158  1.00  0.00     0.061 A 
HETATM   35  H   UNL     1      40.638  -9.932  10.083  1.00  0.00     0.168 HD
ENDBRANCH  20  23
ENDBRANCH   1  19
TORSDOF 7
ENDMDL
MODEL 6
REMARK VINA RESULT:      -7.3      3.967      6.734
REMARK  7 active torsions:
REMARK  status: ('A' for Active; 'I' for Inactive)
REMARK    1  A    between atoms: C_4  and  N_5 
REMARK    2  A    between atoms: N_8  and  C_10 
REMARK    3  A    between atoms: C_10  and  C_11 
REMARK    4  A    between atoms: C_11  and  C_12 
REMARK    5  A    between atoms: C_12  and  C_13 
REMARK    6  A    between atoms: C_13  and  N_14 
REMARK       I    between atoms: N_14  and  C_15 
REMARK    7  A    between atoms: C_15  and  C_16 
ROOT
HETATM    1  C   UNL     1      41.616 -11.025   3.435  1.00  0.00     0.123 C 
ENDROOT
BRANCH   1   2
HETATM    2  C   UNL     1      40.295 -11.599   3.949  1.00  0.00     0.021 C 
BRANCH   2   3
HETATM    3  C   UNL     1      39.712 -12.619   2.968  1.00  0.00     0.029 C 
BRANCH   3   4
HETATM    4  C   UNL     1      39.755 -14.030   3.553  1.00  0.00     0.235 C 
BRANCH   4   5
HETATM    5  N   UNL     1      41.180 -14.521   3.655  1.00  0.00    -0.068 N 
HETATM    6  C   UNL     1      41.338 -15.553   4.784  1.00  0.00     0.254 C 
HETATM    7  C   UNL     1      42.821 -15.950   4.950  1.00  0.00     0.150 C 
HETATM    8  N   UNL     1      43.379 -16.427   3.669  1.00  0.00    -0.378 N 
HETATM    9  C   UNL     1      43.215 -15.505   2.535  1.00  0.00     0.150 C 
HETATM   10  C   UNL     1      41.737 -15.103   2.348  1.00  0.00     0.254 C 
HETATM   11  H   UNL     1      41.776 -13.724   3.910  1.00  0.00     0.280 HD
BRANCH   8  12
HETATM   12  C   UNL     1      43.498 -17.802   3.472  1.00  0.00     0.030 A 
HETATM   13  C   UNL     1      43.967 -18.684   4.462  1.00  0.00     0.036 A 
HETATM   14  C   UNL     1      44.059 -20.072   4.246  1.00  0.00    -0.060 A 
HETATM   15  C   UNL     1      44.525 -20.993   5.338  1.00  0.00     0.048 C 
HETATM   16  C   UNL     1      43.651 -20.602   3.022  1.00  0.00     0.007 A 
HETATM   17  C   UNL     1      43.169 -19.759   2.030  1.00  0.00     0.003 A 
HETATM   18  C   UNL     1      43.092 -18.381   2.258  1.00  0.00     0.029 A 
ENDBRANCH   8  12
ENDBRANCH   4   5
ENDBRANCH   3   4
ENDBRANCH   2   3
ENDBRANCH   1   2
BRANCH   1  19
HETATM   19  N   UNL     1      42.492 -10.616   4.512  1.00  0.00    -0.357 N 
HETATM   20  C   UNL     1      43.231 -11.544   5.223  1.00  0.00     0.254 C 
HETATM   21  O   UNL     1      43.254 -12.732   4.915  1.00  0.00    -0.268 OA
HETATM   22  H   UNL     1      42.578  -9.628   4.709  1.00  0.00     0.162 HD
BRANCH  20  23
HETATM   23  C   UNL     1      44.037 -11.041   6.367  1.00  0.00     0.064 A 
HETATM   24  C   UNL     1      43.415 -10.408   7.430  1.00  0.00     0.077 A 
HETATM   25  C   UNL     1      44.130  -9.923   8.529  1.00  0.00     0.065 A 
HETATM   26  N   UNL     1      42.065 -10.122   7.652  1.00  0.00    -0.330 N 
HETATM   27  N   UNL     1      43.225  -9.347   9.419  1.00  0.00    -0.331 N 
HETATM   28  C   UNL     1      45.496 -10.032   8.624  1.00  0.00     0.074 A 
HETATM   29  C   UNL     1      41.940  -9.459   8.874  1.00  0.00     0.176 A 
HETATM   30  H   UNL     1      43.440  -8.899  10.298  1.00  0.00     0.168 HD
HETATM   31  S   UNL     1      40.542  -8.908   9.549  1.00  0.00    -0.041 SA
HETATM   32  C   UNL     1      46.136 -10.650   7.553  1.00  0.00     0.119 A 
HETATM   33  F   UNL     1      47.469 -10.775   7.576  1.00  0.00    -0.206 F 
HETATM   34  C   UNL     1      45.434 -11.148   6.436  1.00  0.00     0.061 A 
HETATM   35  H   UNL     1      41.320 -10.320   6.993  1.00  0.00     0.168 HD
ENDBRANCH  20  23
ENDBRANCH   1  19
TORSDOF 7
ENDMDL
MODEL 7
REMARK VINA RESULT:      -7.3      4.318      7.100
REMARK  7 active torsions:
REMARK  status: ('A' for Active; 'I' for Inactive)
REMARK    1  A    between atoms: C_4  and  N_5 
REMARK    2  A    between atoms: N_8  and  C_10 
REMARK    3  A    between atoms: C_10  and  C_11 
REMARK    4  A    between atoms: C_11  and  C_12 
REMARK    5  A    between atoms: C_12  and  C_13 
REMARK    6  A    between atoms: C_13  and  N_14 
REMARK       I    between atoms: N_14  and  C_15 
REMARK    7  A    between atoms: C_15  and  C_16 
ROOT
HETATM    1  C   UNL     1      39.305 -10.093   7.141  1.00  0.00     0.123 C 
ENDROOT
BRANCH   1   2
HETATM    2  C   UNL     1      39.662 -10.515   5.714  1.00  0.00     0.021 C 
BRANCH   2   3
HETATM    3  C   UNL     1      40.499 -11.797   5.706  1.00  0.00     0.029 C 
BRANCH   3   4
HETATM    4  C   UNL     1      41.630 -11.707   4.684  1.00  0.00     0.235 C 
BRANCH   4   5
HETATM    5  N   UNL     1      41.567 -12.865   3.716  1.00  0.00    -0.068 N 
HETATM    6  C   UNL     1      42.971 -13.280   3.246  1.00  0.00     0.254 C 
HETATM    7  C   UNL     1      42.876 -14.382   2.168  1.00  0.00     0.150 C 
HETATM    8  N   UNL     1      42.087 -15.527   2.662  1.00  0.00    -0.378 N 
HETATM    9  C   UNL     1      40.750 -15.189   3.173  1.00  0.00     0.150 C 
HETATM   10  C   UNL     1      40.825 -14.095   4.259  1.00  0.00     0.254 C 
HETATM   11  H   UNL     1      41.064 -12.553   2.876  1.00  0.00     0.280 HD
BRANCH   8  12
HETATM   12  C   UNL     1      42.771 -16.655   3.114  1.00  0.00     0.030 A 
HETATM   13  C   UNL     1      42.902 -17.831   2.356  1.00  0.00     0.036 A 
HETATM   14  C   UNL     1      43.616 -18.950   2.826  1.00  0.00    -0.060 A 
HETATM   15  C   UNL     1      43.773 -20.178   1.975  1.00  0.00     0.048 C 
HETATM   16  C   UNL     1      44.238 -18.890   4.073  1.00  0.00     0.007 A 
HETATM   17  C   UNL     1      44.139 -17.736   4.839  1.00  0.00     0.003 A 
HETATM   18  C   UNL     1      43.419 -16.636   4.361  1.00  0.00     0.029 A 
ENDBRANCH   8  12
ENDBRANCH   4   5
ENDBRANCH   3   4
ENDBRANCH   2   3
ENDBRANCH   1   2
BRANCH   1  19
HETATM   19  N   UNL     1      40.447 -10.144   8.029  1.00  0.00    -0.357 N 
HETATM   20  C   UNL     1      41.097  -8.990   8.424  1.00  0.00     0.254 C 
HETATM   21  O   UNL     1      40.683  -7.874   8.123  1.00  0.00    -0.268 OA
HETATM   22  H   UNL     1      40.736 -11.046   8.383  1.00  0.00     0.162 HD
BRANCH  20  23
HETATM   23  C   UNL     1      42.311  -9.146   9.268  1.00  0.00     0.064 A 
HETATM   24  C   UNL     1      43.452  -9.728   8.743  1.00  0.00     0.077 A 
HETATM   25  C   UNL     1      44.618  -9.892   9.498  1.00  0.00     0.065 A 
HETATM   26  N   UNL     1      43.703 -10.245   7.470  1.00  0.00    -0.330 N 
HETATM   27  N   UNL     1      45.577 -10.502   8.690  1.00  0.00    -0.331 N 
HETATM   28  C   UNL     1      44.708  -9.497  10.809  1.00  0.00     0.074 A 
HETATM   29  C   UNL     1      45.011 -10.733   7.430  1.00  0.00     0.176 A 
HETATM   30  H   UNL     1      46.516 -10.764   8.956  1.00  0.00     0.168 HD
HETATM   31  S   UNL     1      45.749 -11.449   6.144  1.00  0.00    -0.041 SA
HETATM   32  C   UNL     1      43.560  -8.927  11.356  1.00  0.00     0.119 A 
HETATM   33  F   UNL     1      43.576  -8.533  12.636  1.00  0.00    -0.206 F 
HETATM   34  C   UNL     1      42.375  -8.750  10.613  1.00  0.00     0.061 A 
HETATM   35  H   UNL     1      43.016 -10.301   6.727  1.00  0.00     0.168 HD
ENDBRANCH  20  23
ENDBRANCH   1  19
TORSDOF 7
ENDMDL
MODEL 8
REMARK VINA RESULT:      -7.2      4.573      7.451
REMARK  7 active torsions:
REMARK  status: ('A' for Active; 'I' for Inactive)
REMARK    1  A    between atoms: C_4  and  N_5 
REMARK    2  A    between atoms: N_8  and  C_10 
REMARK    3  A    between atoms: C_10  and  C_11 
REMARK    4  A    between atoms: C_11  and  C_12 
REMARK    5  A    between atoms: C_12  and  C_13 
REMARK    6  A    between atoms: C_13  and  N_14 
REMARK       I    between atoms: N_14  and  C_15 
REMARK    7  A    between atoms: C_15  and  C_16 
ROOT
HETATM    1  C   UNL     1      38.976 -10.623   6.369  1.00  0.00     0.123 C 
ENDROOT
BRANCH   1   2
HETATM    2  C   UNL     1      39.095 -12.047   5.822  1.00  0.00     0.021 C 
BRANCH   2   3
HETATM    3  C   UNL     1      40.521 -12.582   5.969  1.00  0.00     0.029 C 
BRANCH   3   4
HETATM    4  C   UNL     1      40.532 -14.109   6.019  1.00  0.00     0.235 C 
BRANCH   4   5
HETATM    5  N   UNL     1      41.860 -14.648   5.543  1.00  0.00    -0.068 N 
HETATM    6  C   UNL     1      42.422 -15.697   6.518  1.00  0.00     0.254 C 
HETATM    7  C   UNL     1      43.832 -16.145   6.077  1.00  0.00     0.150 C 
HETATM    8  N   UNL     1      43.812 -16.628   4.682  1.00  0.00    -0.378 N 
HETATM    9  C   UNL     1      43.239 -15.689   3.705  1.00  0.00     0.150 C 
HETATM   10  C   UNL     1      41.825 -15.236   4.125  1.00  0.00     0.254 C 
HETATM   11  H   UNL     1      42.536 -13.874   5.533  1.00  0.00     0.280 HD
BRANCH   8  12
HETATM   12  C   UNL     1      43.795 -18.004   4.460  1.00  0.00     0.030 A 
HETATM   13  C   UNL     1      43.707 -18.577   3.180  1.00  0.00     0.036 A 
HETATM   14  C   UNL     1      43.712 -19.971   2.980  1.00  0.00    -0.060 A 
HETATM   15  C   UNL     1      43.659 -20.551   1.595  1.00  0.00     0.048 C 
HETATM   16  C   UNL     1      43.831 -20.819   4.081  1.00  0.00     0.007 A 
HETATM   17  C   UNL     1      43.934 -20.283   5.358  1.00  0.00     0.003 A 
HETATM   18  C   UNL     1      43.920 -18.896   5.539  1.00  0.00     0.029 A 
ENDBRANCH   8  12
ENDBRANCH   4   5
ENDBRANCH   3   4
ENDBRANCH   2   3
ENDBRANCH   1   2
BRANCH   1  19
HETATM   19  N   UNL     1      39.593 -10.483   7.670  1.00  0.00    -0.357 N 
HETATM   20  C   UNL     1      40.392  -9.395   7.969  1.00  0.00     0.254 C 
HETATM   21  O   UNL     1      40.537  -8.459   7.187  1.00  0.00    -0.268 OA
HETATM   22  H   UNL     1      39.395 -11.184   8.371  1.00  0.00     0.162 HD
BRANCH  20  23
HETATM   23  C   UNL     1      41.053  -9.379   9.301  1.00  0.00     0.064 A 
HETATM   24  C   UNL     1      42.433  -9.332   9.392  1.00  0.00     0.077 A 
HETATM   25  C   UNL     1      43.098  -9.311  10.622  1.00  0.00     0.065 A 
HETATM   26  N   UNL     1      43.408  -9.299   8.391  1.00  0.00    -0.330 N 
HETATM   27  N   UNL     1      44.469  -9.262  10.376  1.00  0.00    -0.331 N 
HETATM   28  C   UNL     1      42.429  -9.346  11.820  1.00  0.00     0.074 A 
HETATM   29  C   UNL     1      44.669  -9.264   8.990  1.00  0.00     0.176 A 
HETATM   30  H   UNL     1      45.209  -9.252  11.063  1.00  0.00     0.168 HD
HETATM   31  S   UNL     1      46.120  -9.234   8.212  1.00  0.00    -0.041 SA
HETATM   32  C   UNL     1      41.040  -9.412  11.743  1.00  0.00     0.119 A 
HETATM   33  F   UNL     1      40.327  -9.464  12.876  1.00  0.00    -0.206 F 
HETATM   34  C   UNL     1      40.350  -9.432  10.514  1.00  0.00     0.061 A 
HETATM   35  H   UNL     1      43.213  -9.351   7.398  1.00  0.00     0.168 HD
ENDBRANCH  20  23
ENDBRANCH   1  19
TORSDOF 7
ENDMDL
MODEL 9
REMARK VINA RESULT:      -7.2      1.880      2.351
REMARK  7 active torsions:
REMARK  status: ('A' for Active; 'I' for Inactive)
REMARK    1  A    between atoms: C_4  and  N_5 
REMARK    2  A    between atoms: N_8  and  C_10 
REMARK    3  A    between atoms: C_10  and  C_11 
REMARK    4  A    between atoms: C_11  and  C_12 
REMARK    5  A    between atoms: C_12  and  C_13 
REMARK    6  A    between atoms: C_13  and  N_14 
REMARK       I    between atoms: N_14  and  C_15 
REMARK    7  A    between atoms: C_15  and  C_16 
ROOT
HETATM    1  C   UNL     1      41.727 -10.024   3.894  1.00  0.00     0.123 C 
ENDROOT
BRANCH   1   2
HETATM    2  C   UNL     1      41.157  -9.941   5.311  1.00  0.00     0.021 C 
BRANCH   2   3
HETATM    3  C   UNL     1      40.966 -11.334   5.916  1.00  0.00     0.029 C 
BRANCH   3   4
HETATM    4  C   UNL     1      42.309 -11.962   6.285  1.00  0.00     0.235 C 
BRANCH   4   5
HETATM    5  N   UNL     1      42.133 -13.412   6.668  1.00  0.00    -0.068 N 
HETATM    6  C   UNL     1      41.373 -14.191   5.582  1.00  0.00     0.254 C 
HETATM    7  C   UNL     1      41.098 -15.638   6.047  1.00  0.00     0.150 C 
HETATM    8  N   UNL     1      42.354 -16.305   6.442  1.00  0.00    -0.378 N 
HETATM    9  C   UNL     1      43.155 -15.584   7.444  1.00  0.00     0.150 C 
HETATM   10  C   UNL     1      43.447 -14.138   6.993  1.00  0.00     0.254 C 
HETATM   11  H   UNL     1      41.549 -13.451   7.512  1.00  0.00     0.280 HD
BRANCH   8  12
HETATM   12  C   UNL     1      42.947 -17.185   5.538  1.00  0.00     0.030 A 
HETATM   13  C   UNL     1      43.388 -18.472   5.892  1.00  0.00     0.036 A 
HETATM   14  C   UNL     1      43.965 -19.350   4.955  1.00  0.00    -0.060 A 
HETATM   15  C   UNL     1      44.389 -20.735   5.356  1.00  0.00     0.048 C 
HETATM   16  C   UNL     1      44.087 -18.948   3.625  1.00  0.00     0.007 A 
HETATM   17  C   UNL     1      43.647 -17.689   3.241  1.00  0.00     0.003 A 
HETATM   18  C   UNL     1      43.082 -16.826   4.186  1.00  0.00     0.029 A 
ENDBRANCH   8  12
ENDBRANCH   4   5
ENDBRANCH   3   4
ENDBRANCH   2   3
ENDBRANCH   1   2
BRANCH   1  19
HETATM   19  N   UNL     1      41.322 -11.234   3.211  1.00  0.00    -0.357 N 
HETATM   20  C   UNL     1      41.495 -11.376   1.846  1.00  0.00     0.254 C 
HETATM   21  O   UNL     1      42.081 -10.533   1.173  1.00  0.00    -0.268 OA
HETATM   22  H   UNL     1      40.942 -11.990   3.764  1.00  0.00     0.162 HD
BRANCH  20  23
HETATM   23  C   UNL     1      40.971 -12.618   1.219  1.00  0.00     0.064 A 
HETATM   24  C   UNL     1      40.167 -12.542   0.094  1.00  0.00     0.077 A 
HETATM   25  C   UNL     1      39.655 -13.683  -0.533  1.00  0.00     0.065 A 
HETATM   26  N   UNL     1      39.710 -11.433  -0.622  1.00  0.00    -0.330 N 
HETATM   27  N   UNL     1      38.893 -13.274  -1.627  1.00  0.00    -0.331 N 
HETATM   28  C   UNL     1      39.906 -14.951  -0.071  1.00  0.00     0.074 A 
HETATM   29  C   UNL     1      38.916 -11.875  -1.681  1.00  0.00     0.176 A 
HETATM   30  H   UNL     1      38.384 -13.867  -2.266  1.00  0.00     0.168 HD
HETATM   31  S   UNL     1      38.146 -10.929  -2.788  1.00  0.00    -0.041 SA
HETATM   32  C   UNL     1      40.699 -15.041   1.071  1.00  0.00     0.119 A 
HETATM   33  F   UNL     1      40.969 -16.249   1.582  1.00  0.00    -0.206 F 
HETATM   34  C   UNL     1      41.226 -13.904   1.717  1.00  0.00     0.061 A 
HETATM   35  H   UNL     1      39.890 -10.469  -0.364  1.00  0.00     0.168 HD
ENDBRANCH  20  23
ENDBRANCH   1  19
TORSDOF 7
ENDMDL
MODEL 10
REMARK VINA RESULT:      -7.0      6.259      9.435
REMARK  7 active torsions:
REMARK  status: ('A' for Active; 'I' for Inactive)
REMARK    1  A    between atoms: C_4  and  N_5 
REMARK    2  A    between atoms: N_8  and  C_10 
REMARK    3  A    between atoms: C_10  and  C_11 
REMARK    4  A    between atoms: C_11  and  C_12 
REMARK    5  A    between atoms: C_12  and  C_13 
REMARK    6  A    between atoms: C_13  and  N_14 
REMARK       I    between atoms: N_14  and  C_15 
REMARK    7  A    between atoms: C_15  and  C_16 
ROOT
HETATM    1  C   UNL     1      45.223 -10.252   9.286  1.00  0.00     0.123 C 
ENDROOT
BRANCH   1   2
HETATM    2  C   UNL     1      45.093  -9.651   7.885  1.00  0.00     0.021 C 
BRANCH   2   3
HETATM    3  C   UNL     1      44.731 -10.720   6.852  1.00  0.00     0.029 C 
BRANCH   3   4
HETATM    4  C   UNL     1      43.219 -10.788   6.638  1.00  0.00     0.235 C 
BRANCH   4   5
HETATM    5  N   UNL     1      42.717 -12.199   6.830  1.00  0.00    -0.068 N 
HETATM    6  C   UNL     1      41.828 -12.642   5.656  1.00  0.00     0.254 C 
HETATM    7  C   UNL     1      41.229 -14.039   5.930  1.00  0.00     0.150 C 
HETATM    8  N   UNL     1      42.296 -15.015   6.228  1.00  0.00    -0.378 N 
HETATM    9  C   UNL     1      43.212 -14.625   7.311  1.00  0.00     0.150 C 
HETATM   10  C   UNL     1      43.829 -13.235   7.051  1.00  0.00     0.254 C 
HETATM   11  H   UNL     1      42.119 -12.215   7.665  1.00  0.00     0.280 HD
BRANCH   8  12
HETATM   12  C   UNL     1      42.700 -15.881   5.213  1.00  0.00     0.030 A 
HETATM   13  C   UNL     1      42.709 -15.524   3.854  1.00  0.00     0.036 A 
HETATM   14  C   UNL     1      43.142 -16.410   2.849  1.00  0.00    -0.060 A 
HETATM   15  C   UNL     1      43.179 -15.984   1.409  1.00  0.00     0.048 C 
HETATM   16  C   UNL     1      43.600 -17.678   3.206  1.00  0.00     0.007 A 
HETATM   17  C   UNL     1      43.618 -18.055   4.542  1.00  0.00     0.003 A 
HETATM   18  C   UNL     1      43.177 -17.165   5.527  1.00  0.00     0.029 A 
ENDBRANCH   8  12
ENDBRANCH   4   5
ENDBRANCH   3   4
ENDBRANCH   2   3
ENDBRANCH   1   2
BRANCH   1  19
HETATM   19  N   UNL     1      44.513  -9.480  10.282  1.00  0.00    -0.357 N 
HETATM   20  C   UNL     1      43.923 -10.091  11.373  1.00  0.00     0.254 C 
HETATM   21  O   UNL     1      44.055 -11.291  11.597  1.00  0.00    -0.268 OA
HETATM   22  H   UNL     1      44.490  -8.474  10.179  1.00  0.00     0.162 HD
BRANCH  20  23
HETATM   23  C   UNL     1      43.143  -9.227  12.298  1.00  0.00     0.064 A 
HETATM   24  C   UNL     1      41.863  -9.596  12.679  1.00  0.00     0.077 A 
HETATM   25  C   UNL     1      41.094  -8.818  13.550  1.00  0.00     0.065 A 
HETATM   26  N   UNL     1      41.098 -10.712  12.330  1.00  0.00    -0.330 N 
HETATM   27  N   UNL     1      39.867  -9.456  13.735  1.00  0.00    -0.331 N 
HETATM   28  C   UNL     1      41.548  -7.635  14.077  1.00  0.00     0.074 A 
HETATM   29  C   UNL     1      39.861 -10.629  12.971  1.00  0.00     0.176 A 
HETATM   30  H   UNL     1      39.095  -9.131  14.298  1.00  0.00     0.168 HD
HETATM   31  S   UNL     1      38.622 -11.708  12.849  1.00  0.00    -0.041 SA
HETATM   32  C   UNL     1      42.827  -7.243  13.687  1.00  0.00     0.119 A 
HETATM   33  F   UNL     1      43.325  -6.091  14.154  1.00  0.00    -0.206 F 
HETATM   34  C   UNL     1      43.620  -8.013  12.812  1.00  0.00     0.061 A 
HETATM   35  H   UNL     1      41.390 -11.425  11.671  1.00  0.00     0.168 HD
ENDBRANCH  20  23
ENDBRANCH   1  19
TORSDOF 7
ENDMDL
