MODEL 1
REMARK VINA RESULT:      -8.6      0.000      0.000
REMARK  6 active torsions:
REMARK  status: ('A' for Active; 'I' for Inactive)
REMARK    1  A    between atoms: C_4  and  N_5 
REMARK       I    between atoms: N_5  and  C_6 
REMARK       I    between atoms: C_6  and  N_7 
REMARK    2  A    between atoms: N_7  and  C_8 
REMARK    3  A    between atoms: N_11  and  C_13 
REMARK    4  A    between atoms: C_13  and  C_14 
REMARK       I    between atoms: C_14  and  N_15 
REMARK    5  A    between atoms: N_15  and  C_16 
REMARK    6  A    between atoms: C_16  and  C_17 
ROOT
HETATM    1  C   UNL     1      43.210 -12.724   6.414  1.00  0.00     0.090 C 
HETATM    2  C   UNL     1      41.745 -12.534   5.987  1.00  0.00     0.058 C 
HETATM    3  C   UNL     1      41.082 -13.754   5.338  1.00  0.00     0.191 C 
HETATM    4  N   UNL     1      42.111 -14.672   4.740  1.00  0.00    -0.054 N 
HETATM    5  H   UNL     1      41.567 -15.437   4.295  1.00  0.00     0.281 HD
HETATM    6  C   UNL     1      42.777 -15.247   5.954  1.00  0.00     0.191 C 
HETATM    7  C   UNL     1      43.633 -14.189   6.648  1.00  0.00     0.058 C 
HETATM    8  C   UNL     1      40.452 -14.670   6.395  1.00  0.00     0.035 C 
HETATM    9  C   UNL     1      41.563 -15.636   6.806  1.00  0.00     0.035 C 
ENDROOT
BRANCH   1  10
HETATM   10  N   UNL     1      43.551 -11.845   7.531  1.00  0.00    -0.338 N 
HETATM   11  C   UNL     1      44.799 -11.292   7.612  1.00  0.00     0.321 C 
HETATM   12  N   UNL     1      45.016 -10.349   8.564  1.00  0.00    -0.309 N 
HETATM   13  O   UNL     1      45.692 -11.570   6.815  1.00  0.00    -0.247 OA
HETATM   14  H   UNL     1      45.901  -9.879   8.408  1.00  0.00     0.170 HD
HETATM   15  H   UNL     1      42.849 -11.165   7.800  1.00  0.00     0.164 HD
BRANCH  12  16
HETATM   16  C   UNL     1      44.294  -9.929   9.696  1.00  0.00     0.036 A 
HETATM   17  C   UNL     1      44.011 -10.732  10.802  1.00  0.00     0.029 A 
HETATM   18  C   UNL     1      43.284 -10.217  11.882  1.00  0.00     0.002 A 
HETATM   19  C   UNL     1      42.848  -8.894  11.871  1.00  0.00     0.000 A 
HETATM   20  C   UNL     1      43.152  -8.077  10.787  1.00  0.00     0.002 A 
HETATM   21  C   UNL     1      43.876  -8.591   9.709  1.00  0.00     0.029 A 
ENDBRANCH  12  16
ENDBRANCH   1  10
BRANCH   4  22
HETATM   22  C   UNL     1      42.951 -14.191   3.571  1.00  0.00     0.338 C 
BRANCH  22  23
HETATM   23  C   UNL     1      43.228 -15.359   2.622  1.00  0.00     0.243 C 
HETATM   24  N   UNL     1      42.858 -16.593   3.071  1.00  0.00    -0.354 N 
HETATM   25  H   UNL     1      42.446 -16.740   3.988  1.00  0.00     0.162 HD
HETATM   26  O   UNL     1      43.788 -15.147   1.547  1.00  0.00    -0.272 OA
BRANCH  24  27
HETATM   27  C   UNL     1      43.141 -17.798   2.316  1.00  0.00     0.187 C 
BRANCH  27  28
HETATM   28  C   UNL     1      43.579 -18.869   3.246  1.00  0.00     0.070 A 
HETATM   29  O   UNL     1      43.499 -20.161   2.798  1.00  0.00    -0.325 OA
HETATM   30  C   UNL     1      43.935 -20.959   3.808  1.00  0.00     0.142 A 
HETATM   31  C   UNL     1      44.297 -20.202   4.896  1.00  0.00     0.027 A 
HETATM   32  C   UNL     1      44.068 -18.853   4.536  1.00  0.00     0.036 A 
ENDBRANCH  27  28
ENDBRANCH  24  27
ENDBRANCH  22  23
ENDBRANCH   4  22
TORSDOF 6
ENDMDL
MODEL 2
REMARK VINA RESULT:      -8.3      4.053      7.909
REMARK  6 active torsions:
REMARK  status: ('A' for Active; 'I' for Inactive)
REMARK    1  A    between atoms: C_4  and  N_5 
REMARK       I    between atoms: N_5  and  C_6 
REMARK       I    between atoms: C_6  and  N_7 
REMARK    2  A    between atoms: N_7  and  C_8 
REMARK    3  A    between atoms: N_11  and  C_13 
REMARK    4  A    between atoms: C_13  and  C_14 
REMARK       I    between atoms: C_14  and  N_15 
REMARK    5  A    between atoms: N_15  and  C_16 
REMARK    6  A    between atoms: C_16  and  C_17 
ROOT
HETATM    1  C   UNL     1      41.128 -13.622   2.544  1.00  0.00     0.090 C 
HETATM    2  C   UNL     1      40.513 -12.601   3.514  1.00  0.00     0.058 C 
HETATM    3  C   UNL     1      41.403 -12.188   4.692  1.00  0.00     0.191 C 
HETATM    4  N   UNL     1      42.432 -13.245   4.985  1.00  0.00    -0.054 N 
HETATM    5  H   UNL     1      42.952 -12.894   5.813  1.00  0.00     0.281 HD
HETATM    6  C   UNL     1      43.350 -13.140   3.805  1.00  0.00     0.191 C 
HETATM    7  C   UNL     1      42.669 -13.674   2.546  1.00  0.00     0.058 C 
HETATM    8  C   UNL     1      42.301 -11.002   4.318  1.00  0.00     0.035 C 
HETATM    9  C   UNL     1      43.567 -11.624   3.728  1.00  0.00     0.035 C 
ENDROOT
BRANCH   1  10
HETATM   10  N   UNL     1      40.562 -13.481   1.203  1.00  0.00    -0.338 N 
HETATM   11  C   UNL     1      40.025 -14.567   0.567  1.00  0.00     0.321 C 
HETATM   12  N   UNL     1      39.358 -14.357  -0.595  1.00  0.00    -0.309 N 
HETATM   13  O   UNL     1      40.071 -15.696   1.049  1.00  0.00    -0.247 OA
HETATM   14  H   UNL     1      38.847 -15.188  -0.871  1.00  0.00     0.170 HD
HETATM   15  H   UNL     1      39.989 -12.661   1.040  1.00  0.00     0.164 HD
BRANCH  12  16
HETATM   16  C   UNL     1      39.259 -13.262  -1.474  1.00  0.00     0.036 A 
HETATM   17  C   UNL     1      40.297 -12.795  -2.283  1.00  0.00     0.029 A 
HETATM   18  C   UNL     1      40.096 -11.695  -3.126  1.00  0.00     0.002 A 
HETATM   19  C   UNL     1      38.855 -11.064  -3.178  1.00  0.00     0.000 A 
HETATM   20  C   UNL     1      37.806 -11.541  -2.399  1.00  0.00     0.002 A 
HETATM   21  C   UNL     1      38.007 -12.638  -1.556  1.00  0.00     0.029 A 
ENDBRANCH  12  16
ENDBRANCH   1  10
BRANCH   4  22
HETATM   22  C   UNL     1      41.981 -14.608   5.476  1.00  0.00     0.338 C 
BRANCH  22  23
HETATM   23  C   UNL     1      43.193 -15.533   5.609  1.00  0.00     0.243 C 
HETATM   24  N   UNL     1      43.221 -16.604   4.765  1.00  0.00    -0.354 N 
HETATM   25  H   UNL     1      42.476 -16.797   4.103  1.00  0.00     0.162 HD
HETATM   26  O   UNL     1      44.042 -15.300   6.469  1.00  0.00    -0.272 OA
BRANCH  24  27
HETATM   27  C   UNL     1      44.262 -17.610   4.840  1.00  0.00     0.187 C 
BRANCH  27  28
HETATM   28  C   UNL     1      43.958 -18.705   3.883  1.00  0.00     0.070 A 
HETATM   29  O   UNL     1      44.145 -19.990   4.320  1.00  0.00    -0.325 OA
HETATM   30  C   UNL     1      43.820 -20.810   3.287  1.00  0.00     0.142 A 
HETATM   31  C   UNL     1      43.425 -20.075   2.195  1.00  0.00     0.027 A 
HETATM   32  C   UNL     1      43.514 -18.716   2.578  1.00  0.00     0.036 A 
ENDBRANCH  27  28
ENDBRANCH  24  27
ENDBRANCH  22  23
ENDBRANCH   4  22
TORSDOF 6
ENDMDL
MODEL 3
REMARK VINA RESULT:      -8.2      2.510      8.649
REMARK  6 active torsions:
REMARK  status: ('A' for Active; 'I' for Inactive)
REMARK    1  A    between atoms: C_4  and  N_5 
REMARK       I    between atoms: N_5  and  C_6 
REMARK       I    between atoms: C_6  and  N_7 
REMARK    2  A    between atoms: N_7  and  C_8 
REMARK    3  A    between atoms: N_11  and  C_13 
REMARK    4  A    between atoms: C_13  and  C_14 
REMARK       I    between atoms: C_14  and  N_15 
REMARK    5  A    between atoms: N_15  and  C_16 
REMARK    6  A    between atoms: C_16  and  C_17 
ROOT
HETATM    1  C   UNL     1      42.053 -14.597   4.891  1.00  0.00     0.090 C 
HETATM    2  C   UNL     1      40.626 -14.640   4.321  1.00  0.00     0.058 C 
HETATM    3  C   UNL     1      40.073 -13.300   3.820  1.00  0.00     0.191 C 
HETATM    4  N   UNL     1      40.774 -12.147   4.483  1.00  0.00    -0.054 N 
HETATM    5  H   UNL     1      40.307 -11.296   4.112  1.00  0.00     0.281 HD
HETATM    6  C   UNL     1      42.142 -12.205   3.874  1.00  0.00     0.191 C 
HETATM    7  C   UNL     1      42.913 -13.414   4.401  1.00  0.00     0.058 C 
HETATM    8  C   UNL     1      40.445 -13.062   2.351  1.00  0.00     0.035 C 
HETATM    9  C   UNL     1      41.802 -12.358   2.387  1.00  0.00     0.035 C 
ENDROOT
BRANCH   1  10
HETATM   10  N   UNL     1      42.718 -15.889   4.741  1.00  0.00    -0.338 N 
HETATM   11  C   UNL     1      43.743 -16.235   5.579  1.00  0.00     0.321 C 
HETATM   12  N   UNL     1      44.213 -17.506   5.518  1.00  0.00    -0.309 N 
HETATM   13  O   UNL     1      44.192 -15.458   6.419  1.00  0.00    -0.247 OA
HETATM   14  H   UNL     1      44.826 -17.701   6.302  1.00  0.00     0.170 HD
HETATM   15  H   UNL     1      42.118 -16.689   4.575  1.00  0.00     0.164 HD
BRANCH  12  16
HETATM   16  C   UNL     1      44.043 -18.561   4.602  1.00  0.00     0.036 A 
HETATM   17  C   UNL     1      43.871 -18.399   3.226  1.00  0.00     0.029 A 
HETATM   18  C   UNL     1      43.711 -19.516   2.398  1.00  0.00     0.002 A 
HETATM   19  C   UNL     1      43.736 -20.802   2.935  1.00  0.00     0.000 A 
HETATM   20  C   UNL     1      43.937 -20.974   4.300  1.00  0.00     0.002 A 
HETATM   21  C   UNL     1      44.096 -19.859   5.127  1.00  0.00     0.029 A 
ENDBRANCH  12  16
ENDBRANCH   1  10
BRANCH   4  22
HETATM   22  C   UNL     1      40.618 -11.939   5.979  1.00  0.00     0.338 C 
BRANCH  22  23
HETATM   23  C   UNL     1      41.169 -10.566   6.367  1.00  0.00     0.243 C 
HETATM   24  N   UNL     1      42.075 -10.554   7.388  1.00  0.00    -0.354 N 
HETATM   25  H   UNL     1      42.353 -11.397   7.881  1.00  0.00     0.162 HD
HETATM   26  O   UNL     1      40.758  -9.561   5.788  1.00  0.00    -0.272 OA
BRANCH  24  27
HETATM   27  C   UNL     1      42.612  -9.316   7.919  1.00  0.00     0.187 C 
BRANCH  27  28
HETATM   28  C   UNL     1      44.093  -9.409   7.979  1.00  0.00     0.070 A 
HETATM   29  O   UNL     1      44.678 -10.491   7.376  1.00  0.00    -0.325 OA
HETATM   30  C   UNL     1      46.018 -10.373   7.564  1.00  0.00     0.142 A 
HETATM   31  C   UNL     1      46.305  -9.233   8.277  1.00  0.00     0.027 A 
HETATM   32  C   UNL     1      45.063  -8.609   8.545  1.00  0.00     0.036 A 
ENDBRANCH  27  28
ENDBRANCH  24  27
ENDBRANCH  22  23
ENDBRANCH   4  22
TORSDOF 6
ENDMDL
MODEL 4
REMARK VINA RESULT:      -8.2      4.064      9.415
REMARK  6 active torsions:
REMARK  status: ('A' for Active; 'I' for Inactive)
REMARK    1  A    between atoms: C_4  and  N_5 
REMARK       I    between atoms: N_5  and  C_6 
REMARK       I    between atoms: C_6  and  N_7 
REMARK    2  A    between atoms: N_7  and  C_8 
REMARK    3  A    between atoms: N_11  and  C_13 
REMARK    4  A    between atoms: C_13  and  C_14 
REMARK       I    between atoms: C_14  and  N_15 
REMARK    5  A    between atoms: N_15  and  C_16 
REMARK    6  A    between atoms: C_16  and  C_17 
ROOT
HETATM    1  C   UNL     1      41.114 -13.237   2.456  1.00  0.00     0.090 C 
HETATM    2  C   UNL     1      42.516 -13.863   2.381  1.00  0.00     0.058 C 
HETATM    3  C   UNL     1      42.945 -14.673   3.610  1.00  0.00     0.191 C 
HETATM    4  N   UNL     1      42.187 -14.237   4.833  1.00  0.00    -0.054 N 
HETATM    5  H   UNL     1      42.574 -14.810   5.610  1.00  0.00     0.281 HD
HETATM    6  C   UNL     1      40.804 -14.742   4.554  1.00  0.00     0.191 C 
HETATM    7  C   UNL     1      40.148 -13.923   3.443  1.00  0.00     0.058 C 
HETATM    8  C   UNL     1      42.498 -16.135   3.494  1.00  0.00     0.035 C 
HETATM    9  C   UNL     1      41.094 -16.177   4.099  1.00  0.00     0.035 C 
ENDROOT
BRANCH   1  10
HETATM   10  N   UNL     1      40.542 -13.066   1.122  1.00  0.00    -0.338 N 
HETATM   11  C   UNL     1      40.865 -11.967   0.374  1.00  0.00     0.321 C 
HETATM   12  N   UNL     1      40.453 -11.935  -0.919  1.00  0.00    -0.309 N 
HETATM   13  O   UNL     1      41.565 -11.057   0.813  1.00  0.00    -0.247 OA
HETATM   14  H   UNL     1      40.905 -11.179  -1.421  1.00  0.00     0.170 HD
HETATM   15  H   UNL     1      40.512 -13.892   0.535  1.00  0.00     0.164 HD
BRANCH  12  16
HETATM   16  C   UNL     1      39.537 -12.700  -1.665  1.00  0.00     0.036 A 
HETATM   17  C   UNL     1      38.207 -12.345  -1.897  1.00  0.00     0.029 A 
HETATM   18  C   UNL     1      37.375 -13.176  -2.656  1.00  0.00     0.002 A 
HETATM   19  C   UNL     1      37.870 -14.360  -3.200  1.00  0.00     0.000 A 
HETATM   20  C   UNL     1      39.202 -14.707  -3.001  1.00  0.00     0.002 A 
HETATM   21  C   UNL     1      40.031 -13.878  -2.242  1.00  0.00     0.029 A 
ENDBRANCH  12  16
ENDBRANCH   1  10
BRANCH   4  22
HETATM   22  C   UNL     1      42.388 -12.834   5.375  1.00  0.00     0.338 C 
BRANCH  22  23
HETATM   23  C   UNL     1      43.732 -12.750   6.100  1.00  0.00     0.243 C 
HETATM   24  N   UNL     1      44.429 -11.589   5.932  1.00  0.00    -0.354 N 
HETATM   25  H   UNL     1      44.095 -10.832   5.343  1.00  0.00     0.162 HD
HETATM   26  O   UNL     1      44.132 -13.714   6.752  1.00  0.00    -0.272 OA
BRANCH  24  27
HETATM   27  C   UNL     1      45.756 -11.405   6.487  1.00  0.00     0.187 C 
BRANCH  27  28
HETATM   28  C   UNL     1      45.661 -10.591   7.725  1.00  0.00     0.070 A 
HETATM   29  O   UNL     1      44.932 -11.108   8.763  1.00  0.00    -0.325 OA
HETATM   30  C   UNL     1      44.974 -10.198   9.770  1.00  0.00     0.142 A 
HETATM   31  C   UNL     1      45.720  -9.105   9.399  1.00  0.00     0.027 A 
HETATM   32  C   UNL     1      46.165  -9.357   8.080  1.00  0.00     0.036 A 
ENDBRANCH  27  28
ENDBRANCH  24  27
ENDBRANCH  22  23
ENDBRANCH   4  22
TORSDOF 6
ENDMDL
MODEL 5
REMARK VINA RESULT:      -8.1      1.524      2.222
REMARK  6 active torsions:
REMARK  status: ('A' for Active; 'I' for Inactive)
REMARK    1  A    between atoms: C_4  and  N_5 
REMARK       I    between atoms: N_5  and  C_6 
REMARK       I    between atoms: C_6  and  N_7 
REMARK    2  A    between atoms: N_7  and  C_8 
REMARK    3  A    between atoms: N_11  and  C_13 
REMARK    4  A    between atoms: C_13  and  C_14 
REMARK       I    between atoms: C_14  and  N_15 
REMARK    5  A    between atoms: N_15  and  C_16 
REMARK    6  A    between atoms: C_16  and  C_17 
ROOT
HETATM    1  C   UNL     1      42.776 -11.519   6.152  1.00  0.00     0.090 C 
HETATM    2  C   UNL     1      41.940 -10.449   5.431  1.00  0.00     0.058 C 
HETATM    3  C   UNL     1      40.908 -10.980   4.429  1.00  0.00     0.191 C 
HETATM    4  N   UNL     1      41.292 -12.347   3.936  1.00  0.00    -0.054 N 
HETATM    5  H   UNL     1      40.561 -12.599   3.241  1.00  0.00     0.281 HD
HETATM    6  C   UNL     1      41.069 -13.203   5.146  1.00  0.00     0.191 C 
HETATM    7  C   UNL     1      42.131 -12.919   6.207  1.00  0.00     0.058 C 
HETATM    8  C   UNL     1      39.572 -11.281   5.118  1.00  0.00     0.035 C 
HETATM    9  C   UNL     1      39.682 -12.729   5.597  1.00  0.00     0.035 C 
ENDROOT
BRANCH   1  10
HETATM   10  N   UNL     1      43.223 -11.044   7.460  1.00  0.00    -0.338 N 
HETATM   11  C   UNL     1      44.541 -11.143   7.812  1.00  0.00     0.321 C 
HETATM   12  N   UNL     1      44.941 -10.535   8.957  1.00  0.00    -0.309 N 
HETATM   13  O   UNL     1      45.370 -11.699   7.095  1.00  0.00    -0.247 OA
HETATM   14  H   UNL     1      45.953 -10.510   9.016  1.00  0.00     0.170 HD
HETATM   15  H   UNL     1      42.844 -10.157   7.772  1.00  0.00     0.164 HD
BRANCH  12  16
HETATM   16  C   UNL     1      44.253  -9.975  10.050  1.00  0.00     0.036 A 
HETATM   17  C   UNL     1      43.941  -8.621  10.183  1.00  0.00     0.029 A 
HETATM   18  C   UNL     1      43.251  -8.162  11.311  1.00  0.00     0.002 A 
HETATM   19  C   UNL     1      42.855  -9.054  12.306  1.00  0.00     0.000 A 
HETATM   20  C   UNL     1      43.135 -10.410  12.168  1.00  0.00     0.002 A 
HETATM   21  C   UNL     1      43.825 -10.867  11.042  1.00  0.00     0.029 A 
ENDBRANCH  12  16
ENDBRANCH   1  10
BRANCH   4  22
HETATM   22  C   UNL     1      42.553 -12.516   3.109  1.00  0.00     0.338 C 
BRANCH  22  23
HETATM   23  C   UNL     1      42.391 -13.704   2.159  1.00  0.00     0.243 C 
HETATM   24  N   UNL     1      43.035 -14.851   2.523  1.00  0.00    -0.354 N 
HETATM   25  H   UNL     1      43.609 -14.913   3.358  1.00  0.00     0.162 HD
HETATM   26  O   UNL     1      41.740 -13.569   1.124  1.00  0.00    -0.272 OA
BRANCH  24  27
HETATM   27  C   UNL     1      43.041 -16.026   1.674  1.00  0.00     0.187 C 
BRANCH  27  28
HETATM   28  C   UNL     1      43.361 -17.222   2.495  1.00  0.00     0.070 A 
HETATM   29  O   UNL     1      43.780 -17.007   3.781  1.00  0.00    -0.325 OA
HETATM   30  C   UNL     1      44.023 -18.226   4.329  1.00  0.00     0.142 A 
HETATM   31  C   UNL     1      43.765 -19.222   3.417  1.00  0.00     0.027 A 
HETATM   32  C   UNL     1      43.338 -18.576   2.233  1.00  0.00     0.036 A 
ENDBRANCH  27  28
ENDBRANCH  24  27
ENDBRANCH  22  23
ENDBRANCH   4  22
TORSDOF 6
ENDMDL
MODEL 6
REMARK VINA RESULT:      -8.1      2.405      9.222
REMARK  6 active torsions:
REMARK  status: ('A' for Active; 'I' for Inactive)
REMARK    1  A    between atoms: C_4  and  N_5 
REMARK       I    between atoms: N_5  and  C_6 
REMARK       I    between atoms: C_6  and  N_7 
REMARK    2  A    between atoms: N_7  and  C_8 
REMARK    3  A    between atoms: N_11  and  C_13 
REMARK    4  A    between atoms: C_13  and  C_14 
REMARK       I    between atoms: C_14  and  N_15 
REMARK    5  A    between atoms: N_15  and  C_16 
REMARK    6  A    between atoms: C_16  and  C_17 
ROOT
HETATM    1  C   UNL     1      42.948 -14.314   5.182  1.00  0.00     0.090 C 
HETATM    2  C   UNL     1      41.639 -14.258   5.987  1.00  0.00     0.058 C 
HETATM    3  C   UNL     1      40.833 -12.962   5.848  1.00  0.00     0.191 C 
HETATM    4  N   UNL     1      41.718 -11.819   5.434  1.00  0.00    -0.054 N 
HETATM    5  H   UNL     1      41.094 -10.989   5.407  1.00  0.00     0.281 HD
HETATM    6  C   UNL     1      42.055 -12.168   4.016  1.00  0.00     0.191 C 
HETATM    7  C   UNL     1      43.006 -13.364   3.969  1.00  0.00     0.058 C 
HETATM    8  C   UNL     1      39.870 -13.033   4.656  1.00  0.00     0.035 C 
HETATM    9  C   UNL     1      40.673 -12.527   3.458  1.00  0.00     0.035 C 
ENDROOT
BRANCH   1  10
HETATM   10  N   UNL     1      43.300 -15.692   4.845  1.00  0.00    -0.338 N 
HETATM   11  C   UNL     1      44.152 -16.399   5.650  1.00  0.00     0.321 C 
HETATM   12  N   UNL     1      44.313 -17.722   5.399  1.00  0.00    -0.309 N 
HETATM   13  O   UNL     1      44.711 -15.889   6.618  1.00  0.00    -0.247 OA
HETATM   14  H   UNL     1      44.806 -18.175   6.160  1.00  0.00     0.170 HD
HETATM   15  H   UNL     1      42.541 -16.288   4.532  1.00  0.00     0.164 HD
BRANCH  12  16
HETATM   16  C   UNL     1      43.965 -18.554   4.318  1.00  0.00     0.036 A 
HETATM   17  C   UNL     1      43.521 -18.100   3.075  1.00  0.00     0.029 A 
HETATM   18  C   UNL     1      43.200 -19.012   2.063  1.00  0.00     0.002 A 
HETATM   19  C   UNL     1      43.335 -20.382   2.279  1.00  0.00     0.000 A 
HETATM   20  C   UNL     1      43.807 -20.843   3.504  1.00  0.00     0.002 A 
HETATM   21  C   UNL     1      44.126 -19.933   4.515  1.00  0.00     0.029 A 
ENDBRANCH  12  16
ENDBRANCH   1  10
BRANCH   4  22
HETATM   22  C   UNL     1      42.806 -11.338   6.376  1.00  0.00     0.338 C 
BRANCH  22  23
HETATM   23  C   UNL     1      42.329 -10.087   7.116  1.00  0.00     0.243 C 
HETATM   24  N   UNL     1      42.365 -10.150   8.478  1.00  0.00    -0.354 N 
HETATM   25  H   UNL     1      42.665 -10.981   8.979  1.00  0.00     0.162 HD
HETATM   26  O   UNL     1      41.913  -9.124   6.474  1.00  0.00    -0.272 OA
BRANCH  24  27
HETATM   27  C   UNL     1      41.861  -9.073   9.307  1.00  0.00     0.187 C 
BRANCH  27  28
HETATM   28  C   UNL     1      42.007  -9.445  10.738  1.00  0.00     0.070 A 
HETATM   29  O   UNL     1      40.957  -9.158  11.570  1.00  0.00    -0.325 OA
HETATM   30  C   UNL     1      41.314  -9.570  12.815  1.00  0.00     0.142 A 
HETATM   31  C   UNL     1      42.574 -10.118  12.796  1.00  0.00     0.027 A 
HETATM   32  C   UNL     1      43.023 -10.038  11.457  1.00  0.00     0.036 A 
ENDBRANCH  27  28
ENDBRANCH  24  27
ENDBRANCH  22  23
ENDBRANCH   4  22
TORSDOF 6
ENDMDL
MODEL 7
REMARK VINA RESULT:      -7.9      3.887      8.147
REMARK  6 active torsions:
REMARK  status: ('A' for Active; 'I' for Inactive)
REMARK    1  A    between atoms: C_4  and  N_5 
REMARK       I    between atoms: N_5  and  C_6 
REMARK       I    between atoms: C_6  and  N_7 
REMARK    2  A    between atoms: N_7  and  C_8 
REMARK    3  A    between atoms: N_11  and  C_13 
REMARK    4  A    between atoms: C_13  and  C_14 
REMARK       I    between atoms: C_14  and  N_15 
REMARK    5  A    between atoms: N_15  and  C_16 
REMARK    6  A    between atoms: C_16  and  C_17 
ROOT
HETATM    1  C   UNL     1      41.433 -14.923   4.122  1.00  0.00     0.090 C 
HETATM    2  C   UNL     1      42.105 -13.855   3.243  1.00  0.00     0.058 C 
HETATM    3  C   UNL     1      41.702 -12.406   3.541  1.00  0.00     0.191 C 
HETATM    4  N   UNL     1      40.356 -12.348   4.208  1.00  0.00    -0.054 N 
HETATM    5  H   UNL     1      40.157 -11.335   4.329  1.00  0.00     0.281 HD
HETATM    6  C   UNL     1      40.643 -12.911   5.567  1.00  0.00     0.191 C 
HETATM    7  C   UNL     1      40.910 -14.413   5.480  1.00  0.00     0.058 C 
HETATM    8  C   UNL     1      42.594 -11.795   4.628  1.00  0.00     0.035 C 
HETATM    9  C   UNL     1      41.909 -12.136   5.952  1.00  0.00     0.035 C 
ENDROOT
BRANCH   1  10
HETATM   10  N   UNL     1      42.278 -16.110   4.244  1.00  0.00    -0.338 N 
HETATM   11  C   UNL     1      43.381 -16.086   5.053  1.00  0.00     0.321 C 
HETATM   12  N   UNL     1      44.033 -17.255   5.273  1.00  0.00    -0.309 N 
HETATM   13  O   UNL     1      43.747 -15.066   5.631  1.00  0.00    -0.247 OA
HETATM   14  H   UNL     1      44.704 -17.156   6.026  1.00  0.00     0.170 HD
HETATM   15  H   UNL     1      41.797 -16.998   4.334  1.00  0.00     0.164 HD
BRANCH  12  16
HETATM   16  C   UNL     1      43.981 -18.525   4.668  1.00  0.00     0.036 A 
HETATM   17  C   UNL     1      43.969 -19.737   5.361  1.00  0.00     0.029 A 
HETATM   18  C   UNL     1      43.914 -20.949   4.664  1.00  0.00     0.002 A 
HETATM   19  C   UNL     1      43.855 -20.960   3.272  1.00  0.00     0.000 A 
HETATM   20  C   UNL     1      43.835 -19.757   2.573  1.00  0.00     0.002 A 
HETATM   21  C   UNL     1      43.891 -18.547   3.269  1.00  0.00     0.029 A 
ENDBRANCH  12  16
ENDBRANCH   1  10
BRANCH   4  22
HETATM   22  C   UNL     1      39.124 -12.799   3.445  1.00  0.00     0.338 C 
BRANCH  22  23
HETATM   23  C   UNL     1      39.011 -12.011   2.138  1.00  0.00     0.243 C 
HETATM   24  N   UNL     1      39.039 -12.749   0.992  1.00  0.00    -0.354 N 
HETATM   25  H   UNL     1      39.153 -13.759   0.995  1.00  0.00     0.162 HD
HETATM   26  O   UNL     1      38.940 -10.783   2.175  1.00  0.00    -0.272 OA
BRANCH  24  27
HETATM   27  C   UNL     1      39.030 -12.129  -0.319  1.00  0.00     0.187 C 
BRANCH  27  28
HETATM   28  C   UNL     1      38.834 -13.174  -1.356  1.00  0.00     0.070 A 
HETATM   29  O   UNL     1      37.773 -13.020  -2.208  1.00  0.00    -0.325 OA
HETATM   30  C   UNL     1      37.784 -14.085  -3.051  1.00  0.00     0.142 A 
HETATM   31  C   UNL     1      38.836 -14.920  -2.757  1.00  0.00     0.027 A 
HETATM   32  C   UNL     1      39.515 -14.333  -1.663  1.00  0.00     0.036 A 
ENDBRANCH  27  28
ENDBRANCH  24  27
ENDBRANCH  22  23
ENDBRANCH   4  22
TORSDOF 6
ENDMDL
MODEL 8
REMARK VINA RESULT:      -7.9      3.374      4.441
REMARK  6 active torsions:
REMARK  status: ('A' for Active; 'I' for Inactive)
REMARK    1  A    between atoms: C_4  and  N_5 
REMARK       I    between atoms: N_5  and  C_6 
REMARK       I    between atoms: C_6  and  N_7 
REMARK    2  A    between atoms: N_7  and  C_8 
REMARK    3  A    between atoms: N_11  and  C_13 
REMARK    4  A    between atoms: C_13  and  C_14 
REMARK       I    between atoms: C_14  and  N_15 
REMARK    5  A    between atoms: N_15  and  C_16 
REMARK    6  A    between atoms: C_16  and  C_17 
ROOT
HETATM    1  C   UNL     1      42.958 -11.999   6.464  1.00  0.00     0.090 C 
HETATM    2  C   UNL     1      41.707 -11.320   5.883  1.00  0.00     0.058 C 
HETATM    3  C   UNL     1      40.833 -12.203   4.984  1.00  0.00     0.191 C 
HETATM    4  N   UNL     1      41.633 -13.333   4.399  1.00  0.00    -0.054 N 
HETATM    5  H   UNL     1      40.970 -13.843   3.782  1.00  0.00     0.281 HD
HETATM    6  C   UNL     1      41.888 -14.203   5.593  1.00  0.00     0.191 C 
HETATM    7  C   UNL     1      42.888 -13.538   6.537  1.00  0.00     0.058 C 
HETATM    8  C   UNL     1      39.795 -12.975   5.808  1.00  0.00     0.035 C 
HETATM    9  C   UNL     1      40.489 -14.275   6.216  1.00  0.00     0.035 C 
ENDROOT
BRANCH   1  10
HETATM   10  N   UNL     1      43.350 -11.383   7.730  1.00  0.00    -0.338 N 
HETATM   11  C   UNL     1      44.666 -11.104   7.979  1.00  0.00     0.321 C 
HETATM   12  N   UNL     1      44.964 -10.378   9.085  1.00  0.00    -0.309 N 
HETATM   13  O   UNL     1      45.562 -11.429   7.203  1.00  0.00    -0.247 OA
HETATM   14  H   UNL     1      45.931 -10.073   9.065  1.00  0.00     0.170 HD
HETATM   15  H   UNL     1      42.764 -10.627   8.065  1.00  0.00     0.164 HD
BRANCH  12  16
HETATM   16  C   UNL     1      44.230 -10.000  10.225  1.00  0.00     0.036 A 
HETATM   17  C   UNL     1      43.823 -10.874  11.235  1.00  0.00     0.029 A 
HETATM   18  C   UNL     1      43.095 -10.397  12.331  1.00  0.00     0.002 A 
HETATM   19  C   UNL     1      42.782  -9.043  12.435  1.00  0.00     0.000 A 
HETATM   20  C   UNL     1      43.210  -8.160  11.449  1.00  0.00     0.002 A 
HETATM   21  C   UNL     1      43.935  -8.636  10.354  1.00  0.00     0.029 A 
ENDBRANCH  12  16
ENDBRANCH   1  10
BRANCH   4  22
HETATM   22  C   UNL     1      42.759 -13.027   3.430  1.00  0.00     0.338 C 
BRANCH  22  23
HETATM   23  C   UNL     1      42.239 -12.131   2.303  1.00  0.00     0.243 C 
HETATM   24  N   UNL     1      41.435 -12.737   1.383  1.00  0.00    -0.354 N 
HETATM   25  H   UNL     1      41.210 -13.727   1.422  1.00  0.00     0.162 HD
HETATM   26  O   UNL     1      42.587 -10.952   2.256  1.00  0.00    -0.272 OA
BRANCH  24  27
HETATM   27  C   UNL     1      40.943 -12.033   0.215  1.00  0.00     0.187 C 
BRANCH  27  28
HETATM   28  C   UNL     1      40.216 -12.986  -0.663  1.00  0.00     0.070 A 
HETATM   29  O   UNL     1      39.729 -12.500  -1.848  1.00  0.00    -0.325 OA
HETATM   30  C   UNL     1      39.100 -13.531  -2.470  1.00  0.00     0.142 A 
HETATM   31  C   UNL     1      39.176 -14.671  -1.707  1.00  0.00     0.027 A 
HETATM   32  C   UNL     1      39.896 -14.321  -0.540  1.00  0.00     0.036 A 
ENDBRANCH  27  28
ENDBRANCH  24  27
ENDBRANCH  22  23
ENDBRANCH   4  22
TORSDOF 6
ENDMDL
MODEL 9
REMARK VINA RESULT:      -7.9      1.678      2.399
REMARK  6 active torsions:
REMARK  status: ('A' for Active; 'I' for Inactive)
REMARK    1  A    between atoms: C_4  and  N_5 
REMARK       I    between atoms: N_5  and  C_6 
REMARK       I    between atoms: C_6  and  N_7 
REMARK    2  A    between atoms: N_7  and  C_8 
REMARK    3  A    between atoms: N_11  and  C_13 
REMARK    4  A    between atoms: C_13  and  C_14 
REMARK       I    between atoms: C_14  and  N_15 
REMARK    5  A    between atoms: N_15  and  C_16 
REMARK    6  A    between atoms: C_16  and  C_17 
ROOT
HETATM    1  C   UNL     1      41.911 -12.740   5.894  1.00  0.00     0.090 C 
HETATM    2  C   UNL     1      42.527 -12.616   4.491  1.00  0.00     0.058 C 
HETATM    3  C   UNL     1      41.573 -12.890   3.323  1.00  0.00     0.191 C 
HETATM    4  N   UNL     1      40.424 -13.756   3.759  1.00  0.00    -0.054 N 
HETATM    5  H   UNL     1      39.863 -13.916   2.899  1.00  0.00     0.281 HD
HETATM    6  C   UNL     1      39.636 -12.831   4.637  1.00  0.00     0.191 C 
HETATM    7  C   UNL     1      40.379 -12.574   5.948  1.00  0.00     0.058 C 
HETATM    8  C   UNL     1      40.835 -11.614   2.900  1.00  0.00     0.035 C 
HETATM    9  C   UNL     1      39.576 -11.570   3.768  1.00  0.00     0.035 C 
ENDROOT
BRANCH   1  10
HETATM   10  N   UNL     1      42.612 -11.890   6.854  1.00  0.00    -0.338 N 
HETATM   11  C   UNL     1      43.921 -12.141   7.164  1.00  0.00     0.321 C 
HETATM   12  N   UNL     1      44.581 -11.229   7.921  1.00  0.00    -0.309 N 
HETATM   13  O   UNL     1      44.522 -13.118   6.725  1.00  0.00    -0.247 OA
HETATM   14  H   UNL     1      45.577 -11.419   7.926  1.00  0.00     0.170 HD
HETATM   15  H   UNL     1      42.459 -10.891   6.768  1.00  0.00     0.164 HD
BRANCH  12  16
HETATM   16  C   UNL     1      44.168 -10.126   8.693  1.00  0.00     0.036 A 
HETATM   17  C   UNL     1      43.527 -10.217   9.930  1.00  0.00     0.029 A 
HETATM   18  C   UNL     1      43.157  -9.057  10.621  1.00  0.00     0.002 A 
HETATM   19  C   UNL     1      43.437  -7.800  10.089  1.00  0.00     0.000 A 
HETATM   20  C   UNL     1      44.103  -7.699   8.872  1.00  0.00     0.002 A 
HETATM   21  C   UNL     1      44.472  -8.857   8.182  1.00  0.00     0.029 A 
ENDBRANCH  12  16
ENDBRANCH   1  10
BRANCH   4  22
HETATM   22  C   UNL     1      40.691 -15.181   4.205  1.00  0.00     0.338 C 
BRANCH  22  23
HETATM   23  C   UNL     1      41.269 -15.985   3.039  1.00  0.00     0.243 C 
HETATM   24  N   UNL     1      42.481 -16.571   3.261  1.00  0.00    -0.354 N 
HETATM   25  H   UNL     1      42.987 -16.464   4.135  1.00  0.00     0.162 HD
HETATM   26  O   UNL     1      40.655 -16.037   1.974  1.00  0.00    -0.272 OA
BRANCH  24  27
HETATM   27  C   UNL     1      43.187 -17.288   2.217  1.00  0.00     0.187 C 
BRANCH  27  28
HETATM   28  C   UNL     1      43.471 -18.671   2.677  1.00  0.00     0.070 A 
HETATM   29  O   UNL     1      43.924 -18.826   3.960  1.00  0.00    -0.325 OA
HETATM   30  C   UNL     1      44.124 -20.155   4.153  1.00  0.00     0.142 A 
HETATM   31  C   UNL     1      43.805 -20.859   3.016  1.00  0.00     0.027 A 
HETATM   32  C   UNL     1      43.383 -19.903   2.062  1.00  0.00     0.036 A 
ENDBRANCH  27  28
ENDBRANCH  24  27
ENDBRANCH  22  23
ENDBRANCH   4  22
TORSDOF 6
ENDMDL
MODEL 10
REMARK VINA RESULT:      -7.5     16.451     19.520
REMARK  6 active torsions:
REMARK  status: ('A' for Active; 'I' for Inactive)
REMARK    1  A    between atoms: C_4  and  N_5 
REMARK       I    between atoms: N_5  and  C_6 
REMARK       I    between atoms: C_6  and  N_7 
REMARK    2  A    between atoms: N_7  and  C_8 
REMARK    3  A    between atoms: N_11  and  C_13 
REMARK    4  A    between atoms: C_13  and  C_14 
REMARK       I    between atoms: C_14  and  N_15 
REMARK    5  A    between atoms: N_15  and  C_16 
REMARK    6  A    between atoms: C_16  and  C_17 
ROOT
HETATM    1  C   UNL     1      48.559 -29.965   1.002  1.00  0.00     0.090 C 
HETATM    2  C   UNL     1      49.895 -29.885   0.245  1.00  0.00     0.058 C 
HETATM    3  C   UNL     1      50.960 -30.901   0.676  1.00  0.00     0.191 C 
HETATM    4  N   UNL     1      50.715 -31.374   2.082  1.00  0.00    -0.054 N 
HETATM    5  H   UNL     1      51.503 -32.019   2.291  1.00  0.00     0.281 HD
HETATM    6  C   UNL     1      49.482 -32.211   1.932  1.00  0.00     0.191 C 
HETATM    7  C   UNL     1      48.264 -31.329   1.658  1.00  0.00     0.058 C 
HETATM    8  C   UNL     1      50.820 -32.214  -0.103  1.00  0.00     0.035 C 
HETATM    9  C   UNL     1      49.844 -33.064   0.711  1.00  0.00     0.035 C 
ENDROOT
BRANCH   1  10
HETATM   10  N   UNL     1      47.456 -29.479   0.174  1.00  0.00    -0.338 N 
HETATM   11  C   UNL     1      46.682 -28.437   0.607  1.00  0.00     0.321 C 
HETATM   12  N   UNL     1      45.787 -27.906  -0.264  1.00  0.00    -0.309 N 
HETATM   13  O   UNL     1      46.823 -27.933   1.719  1.00  0.00    -0.247 OA
HETATM   14  H   UNL     1      45.413 -27.033   0.092  1.00  0.00     0.170 HD
HETATM   15  H   UNL     1      47.644 -29.387  -0.818  1.00  0.00     0.164 HD
BRANCH  12  16
HETATM   16  C   UNL     1      45.275 -28.326  -1.506  1.00  0.00     0.036 A 
HETATM   17  C   UNL     1      45.728 -27.873  -2.747  1.00  0.00     0.029 A 
HETATM   18  C   UNL     1      45.152 -28.354  -3.928  1.00  0.00     0.002 A 
HETATM   19  C   UNL     1      44.131 -29.301  -3.880  1.00  0.00     0.000 A 
HETATM   20  C   UNL     1      43.694 -29.781  -2.650  1.00  0.00     0.002 A 
HETATM   21  C   UNL     1      44.268 -29.300  -1.470  1.00  0.00     0.029 A 
ENDBRANCH  12  16
ENDBRANCH   1  10
BRANCH   4  22
HETATM   22  C   UNL     1      50.829 -30.389   3.231  1.00  0.00     0.338 C 
BRANCH  22  23
HETATM   23  C   UNL     1      50.603 -31.118   4.557  1.00  0.00     0.243 C 
HETATM   24  N   UNL     1      51.701 -31.715   5.104  1.00  0.00    -0.354 N 
HETATM   25  H   UNL     1      52.611 -31.703   4.652  1.00  0.00     0.162 HD
HETATM   26  O   UNL     1      49.472 -31.164   5.039  1.00  0.00    -0.272 OA
BRANCH  24  27
HETATM   27  C   UNL     1      51.616 -32.514   6.311  1.00  0.00     0.187 C 
BRANCH  27  28
HETATM   28  C   UNL     1      52.573 -31.988   7.317  1.00  0.00     0.070 A 
HETATM   29  O   UNL     1      53.342 -30.915   6.950  1.00  0.00    -0.325 OA
HETATM   30  C   UNL     1      54.140 -30.618   8.009  1.00  0.00     0.142 A 
HETATM   31  C   UNL     1      53.895 -31.480   9.051  1.00  0.00     0.027 A 
HETATM   32  C   UNL     1      52.884 -32.364   8.606  1.00  0.00     0.036 A 
ENDBRANCH  27  28
ENDBRANCH  24  27
ENDBRANCH  22  23
ENDBRANCH   4  22
TORSDOF 6
ENDMDL
