MODEL 1
REMARK VINA RESULT:      -8.2      0.000      0.000
REMARK  5 active torsions:
REMARK  status: ('A' for Active; 'I' for Inactive)
REMARK    1  A    between atoms: C_2  and  C_3 
REMARK    2  A    between atoms: C_3  and  N_4 
REMARK    3  A    between atoms: C_3  and  C_19 
REMARK       I    between atoms: N_4  and  C_5 
REMARK       I    between atoms: C_5  and  N_6 
REMARK    4  A    between atoms: N_6  and  C_7 
REMARK    5  A    between atoms: C_12  and  C_13 
ROOT
HETATM    1  N   UNL     1      42.643 -13.829   4.684  1.00  0.00    -0.334 N 
HETATM    2  C   UNL     1      42.795 -14.128   3.378  1.00  0.00     0.321 C 
HETATM    3  N   UNL     1      43.219 -15.360   3.008  1.00  0.00    -0.306 N 
HETATM    4  O   UNL     1      42.582 -13.309   2.484  1.00  0.00    -0.247 OA
HETATM    5  H   UNL     1      42.583 -14.596   5.331  1.00  0.00     0.165 HD
HETATM    6  H   UNL     1      43.318 -15.361   1.999  1.00  0.00     0.171 HD
ENDROOT
BRANCH   1   7
HETATM    7  C   UNL     1      42.050 -12.573   5.111  1.00  0.00     0.122 C 
BRANCH   7   8
HETATM    8  C   UNL     1      40.593 -12.764   5.585  1.00  0.00     0.026 C 
HETATM    9  C   UNL     1      40.310 -14.116   6.230  1.00  0.00     0.007 C 
ENDBRANCH   7   8
BRANCH   7  10
HETATM   10  C   UNL     1      42.915 -11.915   6.146  1.00  0.00     0.001 A 
HETATM   11  C   UNL     1      42.991 -10.596   6.558  1.00  0.00     0.122 A 
HETATM   12  N   UNL     1      43.950 -10.545   7.527  1.00  0.00    -0.285 N 
HETATM   13  C   UNL     1      44.381  -9.382   8.264  1.00  0.00     0.179 C 
HETATM   14  N   UNL     1      44.520 -11.734   7.778  1.00  0.00    -0.185 NA
HETATM   15  C   UNL     1      43.887 -12.565   6.950  1.00  0.00     0.149 A 
ENDBRANCH   7  10
ENDBRANCH   1   7
BRANCH   3  16
HETATM   16  C   UNL     1      43.541 -16.573   3.653  1.00  0.00     0.075 A 
HETATM   17  C   UNL     1      43.939 -16.750   4.981  1.00  0.00     0.143 A 
HETATM   18  F   UNL     1      44.043 -15.728   5.837  1.00  0.00    -0.204 F 
HETATM   19  C   UNL     1      44.221 -18.019   5.494  1.00  0.00     0.045 A 
HETATM   20  C   UNL     1      44.100 -19.148   4.687  1.00  0.00     0.019 A 
HETATM   21  C   UNL     1      43.699 -19.013   3.354  1.00  0.00     0.050 A 
HETATM   22  C   UNL     1      43.420 -17.725   2.854  1.00  0.00     0.049 A 
BRANCH  21  23
HETATM   23  C   UNL     1      43.525 -20.222   2.466  1.00  0.00     0.417 C 
HETATM   24  F   UNL     1      44.410 -20.265   1.432  1.00  0.00    -0.166 F 
HETATM   25  F   UNL     1      43.684 -21.388   3.148  1.00  0.00    -0.166 F 
HETATM   26  F   UNL     1      42.287 -20.283   1.901  1.00  0.00    -0.166 F 
ENDBRANCH  21  23
ENDBRANCH   3  16
TORSDOF 5
ENDMDL
MODEL 2
REMARK VINA RESULT:      -7.8      3.048      5.010
REMARK  5 active torsions:
REMARK  status: ('A' for Active; 'I' for Inactive)
REMARK    1  A    between atoms: C_2  and  C_3 
REMARK    2  A    between atoms: C_3  and  N_4 
REMARK    3  A    between atoms: C_3  and  C_19 
REMARK       I    between atoms: N_4  and  C_5 
REMARK       I    between atoms: C_5  and  N_6 
REMARK    4  A    between atoms: N_6  and  C_7 
REMARK    5  A    between atoms: C_12  and  C_13 
ROOT
HETATM    1  N   UNL     1      41.332 -13.489   3.475  1.00  0.00    -0.334 N 
HETATM    2  C   UNL     1      40.597 -13.721   4.581  1.00  0.00     0.321 C 
HETATM    3  N   UNL     1      40.870 -14.789   5.368  1.00  0.00    -0.306 N 
HETATM    4  O   UNL     1      39.650 -13.004   4.906  1.00  0.00    -0.247 OA
HETATM    5  H   UNL     1      42.226 -13.946   3.410  1.00  0.00     0.165 HD
HETATM    6  H   UNL     1      40.175 -14.813   6.106  1.00  0.00     0.171 HD
ENDROOT
BRANCH   1   7
HETATM    7  C   UNL     1      41.165 -12.276   2.692  1.00  0.00     0.122 C 
BRANCH   7   8
HETATM    8  C   UNL     1      42.428 -11.389   2.742  1.00  0.00     0.026 C 
HETATM    9  C   UNL     1      43.638 -12.046   3.396  1.00  0.00     0.007 C 
ENDBRANCH   7   8
BRANCH   7  10
HETATM   10  C   UNL     1      40.750 -12.616   1.291  1.00  0.00     0.001 A 
HETATM   11  C   UNL     1      40.061 -13.707   0.790  1.00  0.00     0.122 A 
HETATM   12  N   UNL     1      39.954 -13.516  -0.557  1.00  0.00    -0.285 N 
HETATM   13  C   UNL     1      39.309 -14.386  -1.510  1.00  0.00     0.179 C 
HETATM   14  N   UNL     1      40.532 -12.382  -0.983  1.00  0.00    -0.185 NA
HETATM   15  C   UNL     1      41.004 -11.832   0.136  1.00  0.00     0.149 A 
ENDBRANCH   7  10
ENDBRANCH   1   7
BRANCH   3  16
HETATM   16  C   UNL     1      41.834 -15.819   5.404  1.00  0.00     0.075 A 
HETATM   17  C   UNL     1      42.451 -16.367   6.531  1.00  0.00     0.143 A 
HETATM   18  F   UNL     1      42.160 -15.961   7.772  1.00  0.00    -0.204 F 
HETATM   19  C   UNL     1      43.390 -17.396   6.419  1.00  0.00     0.045 A 
HETATM   20  C   UNL     1      43.725 -17.912   5.170  1.00  0.00     0.019 A 
HETATM   21  C   UNL     1      43.125 -17.394   4.018  1.00  0.00     0.050 A 
HETATM   22  C   UNL     1      42.182 -16.354   4.150  1.00  0.00     0.049 A 
BRANCH  21  23
HETATM   23  C   UNL     1      43.443 -17.956   2.652  1.00  0.00     0.417 C 
HETATM   24  F   UNL     1      43.615 -16.998   1.700  1.00  0.00    -0.166 F 
HETATM   25  F   UNL     1      44.585 -18.695   2.654  1.00  0.00    -0.166 F 
HETATM   26  F   UNL     1      42.464 -18.778   2.184  1.00  0.00    -0.166 F 
ENDBRANCH  21  23
ENDBRANCH   3  16
TORSDOF 5
ENDMDL
MODEL 3
REMARK VINA RESULT:      -7.7      2.655      3.754
REMARK  5 active torsions:
REMARK  status: ('A' for Active; 'I' for Inactive)
REMARK    1  A    between atoms: C_2  and  C_3 
REMARK    2  A    between atoms: C_3  and  N_4 
REMARK    3  A    between atoms: C_3  and  C_19 
REMARK       I    between atoms: N_4  and  C_5 
REMARK       I    between atoms: C_5  and  N_6 
REMARK    4  A    between atoms: N_6  and  C_7 
REMARK    5  A    between atoms: C_12  and  C_13 
ROOT
HETATM    1  N   UNL     1      41.743 -12.913   5.447  1.00  0.00    -0.334 N 
HETATM    2  C   UNL     1      40.726 -13.700   5.851  1.00  0.00     0.321 C 
HETATM    3  N   UNL     1      40.900 -15.039   5.949  1.00  0.00    -0.306 N 
HETATM    4  O   UNL     1      39.611 -13.251   6.122  1.00  0.00    -0.247 OA
HETATM    5  H   UNL     1      42.671 -13.297   5.493  1.00  0.00     0.165 HD
HETATM    6  H   UNL     1      40.009 -15.447   6.212  1.00  0.00     0.171 HD
ENDROOT
BRANCH   1   7
HETATM    7  C   UNL     1      41.640 -11.463   5.474  1.00  0.00     0.122 C 
BRANCH   7   8
HETATM    8  C   UNL     1      42.749 -10.830   6.341  1.00  0.00     0.026 C 
HETATM    9  C   UNL     1      43.941 -11.742   6.609  1.00  0.00     0.007 C 
ENDBRANCH   7   8
BRANCH   7  10
HETATM   10  C   UNL     1      41.614 -10.919   4.076  1.00  0.00     0.001 A 
HETATM   11  C   UNL     1      40.776  -9.993   3.480  1.00  0.00     0.122 A 
HETATM   12  N   UNL     1      41.193  -9.864   2.187  1.00  0.00    -0.285 N 
HETATM   13  C   UNL     1      40.631  -9.005   1.173  1.00  0.00     0.179 C 
HETATM   14  N   UNL     1      42.240 -10.647   1.883  1.00  0.00    -0.185 NA
HETATM   15  C   UNL     1      42.501 -11.278   3.029  1.00  0.00     0.149 A 
ENDBRANCH   7  10
ENDBRANCH   1   7
BRANCH   3  16
HETATM   16  C   UNL     1      41.961 -15.953   5.779  1.00  0.00     0.075 A 
HETATM   17  C   UNL     1      42.810 -16.463   6.764  1.00  0.00     0.143 A 
HETATM   18  F   UNL     1      42.683 -16.134   8.055  1.00  0.00    -0.204 F 
HETATM   19  C   UNL     1      43.824 -17.373   6.453  1.00  0.00     0.045 A 
HETATM   20  C   UNL     1      44.005 -17.805   5.142  1.00  0.00     0.019 A 
HETATM   21  C   UNL     1      43.172 -17.322   4.127  1.00  0.00     0.050 A 
HETATM   22  C   UNL     1      42.157 -16.403   4.460  1.00  0.00     0.049 A 
BRANCH  21  23
HETATM   23  C   UNL     1      43.322 -17.799   2.702  1.00  0.00     0.417 C 
HETATM   24  F   UNL     1      42.192 -18.369   2.201  1.00  0.00    -0.166 F 
HETATM   25  F   UNL     1      43.642 -16.786   1.853  1.00  0.00    -0.166 F 
HETATM   26  F   UNL     1      44.305 -18.731   2.562  1.00  0.00    -0.166 F 
ENDBRANCH  21  23
ENDBRANCH   3  16
TORSDOF 5
ENDMDL
MODEL 4
REMARK VINA RESULT:      -7.7      1.875      2.930
REMARK  5 active torsions:
REMARK  status: ('A' for Active; 'I' for Inactive)
REMARK    1  A    between atoms: C_2  and  C_3 
REMARK    2  A    between atoms: C_3  and  N_4 
REMARK    3  A    between atoms: C_3  and  C_19 
REMARK       I    between atoms: N_4  and  C_5 
REMARK       I    between atoms: C_5  and  N_6 
REMARK    4  A    between atoms: N_6  and  C_7 
REMARK    5  A    between atoms: C_12  and  C_13 
ROOT
HETATM    1  N   UNL     1      42.603 -12.915   4.744  1.00  0.00    -0.334 N 
HETATM    2  C   UNL     1      42.909 -12.859   3.432  1.00  0.00     0.321 C 
HETATM    3  N   UNL     1      43.207 -13.993   2.755  1.00  0.00    -0.306 N 
HETATM    4  O   UNL     1      42.952 -11.798   2.809  1.00  0.00    -0.247 OA
HETATM    5  H   UNL     1      42.337 -13.809   5.120  1.00  0.00     0.165 HD
HETATM    6  H   UNL     1      43.458 -13.729   1.808  1.00  0.00     0.171 HD
ENDROOT
BRANCH   1   7
HETATM    7  C   UNL     1      42.135 -11.743   5.466  1.00  0.00     0.122 C 
BRANCH   7   8
HETATM    8  C   UNL     1      40.693 -11.934   5.984  1.00  0.00     0.026 C 
HETATM    9  C   UNL     1      40.202 -13.377   5.972  1.00  0.00     0.007 C 
ENDBRANCH   7   8
BRANCH   7  10
HETATM   10  C   UNL     1      43.101 -11.385   6.556  1.00  0.00     0.001 A 
HETATM   11  C   UNL     1      43.081 -10.355   7.481  1.00  0.00     0.122 A 
HETATM   12  N   UNL     1      44.207 -10.491   8.240  1.00  0.00    -0.285 N 
HETATM   13  C   UNL     1      44.621  -9.654   9.340  1.00  0.00     0.179 C 
HETATM   14  N   UNL     1      44.974 -11.530   7.876  1.00  0.00    -0.185 NA
HETATM   15  C   UNL     1      44.300 -12.078   6.864  1.00  0.00     0.149 A 
ENDBRANCH   7  10
ENDBRANCH   1   7
BRANCH   3  16
HETATM   16  C   UNL     1      43.252 -15.375   3.035  1.00  0.00     0.075 A 
HETATM   17  C   UNL     1      43.256 -16.429   2.117  1.00  0.00     0.143 A 
HETATM   18  F   UNL     1      43.238 -16.224   0.795  1.00  0.00    -0.204 F 
HETATM   19  C   UNL     1      43.311 -17.761   2.537  1.00  0.00     0.045 A 
HETATM   20  C   UNL     1      43.375 -18.070   3.894  1.00  0.00     0.019 A 
HETATM   21  C   UNL     1      43.378 -17.044   4.843  1.00  0.00     0.050 A 
HETATM   22  C   UNL     1      43.320 -15.706   4.401  1.00  0.00     0.049 A 
BRANCH  21  23
HETATM   23  C   UNL     1      43.482 -17.346   6.319  1.00  0.00     0.417 C 
HETATM   24  F   UNL     1      42.444 -16.849   7.047  1.00  0.00    -0.166 F 
HETATM   25  F   UNL     1      43.511 -18.683   6.569  1.00  0.00    -0.166 F 
HETATM   26  F   UNL     1      44.612 -16.835   6.881  1.00  0.00    -0.166 F 
ENDBRANCH  21  23
ENDBRANCH   3  16
TORSDOF 5
ENDMDL
MODEL 5
REMARK VINA RESULT:      -7.7      3.840      8.101
REMARK  5 active torsions:
REMARK  status: ('A' for Active; 'I' for Inactive)
REMARK    1  A    between atoms: C_2  and  C_3 
REMARK    2  A    between atoms: C_3  and  N_4 
REMARK    3  A    between atoms: C_3  and  C_19 
REMARK       I    between atoms: N_4  and  C_5 
REMARK       I    between atoms: C_5  and  N_6 
REMARK    4  A    between atoms: N_6  and  C_7 
REMARK    5  A    between atoms: C_12  and  C_13 
ROOT
HETATM    1  N   UNL     1      42.419 -13.764   5.544  1.00  0.00    -0.334 N 
HETATM    2  C   UNL     1      41.665 -12.716   5.933  1.00  0.00     0.321 C 
HETATM    3  N   UNL     1      42.233 -11.675   6.587  1.00  0.00    -0.306 N 
HETATM    4  O   UNL     1      40.450 -12.668   5.737  1.00  0.00    -0.247 OA
HETATM    5  H   UNL     1      43.414 -13.627   5.501  1.00  0.00     0.165 HD
HETATM    6  H   UNL     1      41.494 -11.027   6.836  1.00  0.00     0.171 HD
ENDROOT
BRANCH   1   7
HETATM    7  C   UNL     1      41.875 -14.824   4.712  1.00  0.00     0.122 C 
BRANCH   7   8
HETATM    8  C   UNL     1      41.967 -14.474   3.211  1.00  0.00     0.026 C 
HETATM    9  C   UNL     1      43.209 -13.680   2.822  1.00  0.00     0.007 C 
ENDBRANCH   7   8
BRANCH   7  10
HETATM   10  C   UNL     1      42.531 -16.132   5.044  1.00  0.00     0.001 A 
HETATM   11  C   UNL     1      43.187 -17.047   4.239  1.00  0.00     0.122 A 
HETATM   12  N   UNL     1      43.588 -18.066   5.052  1.00  0.00    -0.285 N 
HETATM   13  C   UNL     1      44.319 -19.249   4.669  1.00  0.00     0.179 C 
HETATM   14  N   UNL     1      43.234 -17.896   6.336  1.00  0.00    -0.185 NA
HETATM   15  C   UNL     1      42.604 -16.721   6.333  1.00  0.00     0.149 A 
ENDBRANCH   7  10
ENDBRANCH   1   7
BRANCH   3  16
HETATM   16  C   UNL     1      43.533 -11.298   6.985  1.00  0.00     0.075 A 
HETATM   17  C   UNL     1      44.700 -11.329   6.217  1.00  0.00     0.143 A 
HETATM   18  F   UNL     1      44.703 -11.724   4.939  1.00  0.00    -0.204 F 
HETATM   19  C   UNL     1      45.928 -10.916   6.741  1.00  0.00     0.045 A 
HETATM   20  C   UNL     1      46.015 -10.450   8.050  1.00  0.00     0.019 A 
HETATM   21  C   UNL     1      44.869 -10.398   8.849  1.00  0.00     0.050 A 
HETATM   22  C   UNL     1      43.639 -10.821   8.304  1.00  0.00     0.049 A 
BRANCH  21  23
HETATM   23  C   UNL     1      44.925  -9.865  10.261  1.00  0.00     0.417 C 
HETATM   24  F   UNL     1      44.031  -8.865  10.497  1.00  0.00    -0.166 F 
HETATM   25  F   UNL     1      44.666 -10.829  11.185  1.00  0.00    -0.166 F 
HETATM   26  F   UNL     1      46.147  -9.357  10.581  1.00  0.00    -0.166 F 
ENDBRANCH  21  23
ENDBRANCH   3  16
TORSDOF 5
ENDMDL
MODEL 6
REMARK VINA RESULT:      -7.6      2.907      4.030
REMARK  5 active torsions:
REMARK  status: ('A' for Active; 'I' for Inactive)
REMARK    1  A    between atoms: C_2  and  C_3 
REMARK    2  A    between atoms: C_3  and  N_4 
REMARK    3  A    between atoms: C_3  and  C_19 
REMARK       I    between atoms: N_4  and  C_5 
REMARK       I    between atoms: C_5  and  N_6 
REMARK    4  A    between atoms: N_6  and  C_7 
REMARK    5  A    between atoms: C_12  and  C_13 
ROOT
HETATM    1  N   UNL     1      41.527 -12.883   5.385  1.00  0.00    -0.334 N 
HETATM    2  C   UNL     1      40.450 -13.633   5.697  1.00  0.00     0.321 C 
HETATM    3  N   UNL     1      40.310 -14.873   5.170  1.00  0.00    -0.306 N 
HETATM    4  O   UNL     1      39.555 -13.226   6.438  1.00  0.00    -0.247 OA
HETATM    5  H   UNL     1      42.324 -13.357   4.997  1.00  0.00     0.165 HD
HETATM    6  H   UNL     1      39.418 -15.240   5.482  1.00  0.00     0.171 HD
ENDROOT
BRANCH   1   7
HETATM    7  C   UNL     1      41.785 -11.614   6.045  1.00  0.00     0.122 C 
BRANCH   7   8
HETATM    8  C   UNL     1      43.220 -11.550   6.612  1.00  0.00     0.026 C 
HETATM    9  C   UNL     1      43.886 -12.907   6.803  1.00  0.00     0.007 C 
ENDBRANCH   7   8
BRANCH   7  10
HETATM   10  C   UNL     1      41.475 -10.475   5.119  1.00  0.00     0.001 A 
HETATM   11  C   UNL     1      41.080 -10.468   3.793  1.00  0.00     0.122 A 
HETATM   12  N   UNL     1      40.938  -9.159   3.435  1.00  0.00    -0.285 N 
HETATM   13  C   UNL     1      40.534  -8.648   2.148  1.00  0.00     0.179 C 
HETATM   14  N   UNL     1      41.222  -8.300   4.427  1.00  0.00    -0.185 NA
HETATM   15  C   UNL     1      41.537  -9.097   5.449  1.00  0.00     0.149 A 
ENDBRANCH   7  10
ENDBRANCH   1   7
BRANCH   3  16
HETATM   16  C   UNL     1      41.063 -15.726   4.336  1.00  0.00     0.075 A 
HETATM   17  C   UNL     1      40.843 -16.006   2.985  1.00  0.00     0.143 A 
HETATM   18  F   UNL     1      39.846 -15.443   2.293  1.00  0.00    -0.204 F 
HETATM   19  C   UNL     1      41.679 -16.872   2.275  1.00  0.00     0.045 A 
HETATM   20  C   UNL     1      42.768 -17.472   2.902  1.00  0.00     0.019 A 
HETATM   21  C   UNL     1      43.025 -17.213   4.252  1.00  0.00     0.050 A 
HETATM   22  C   UNL     1      42.170 -16.339   4.952  1.00  0.00     0.049 A 
BRANCH  21  23
HETATM   23  C   UNL     1      44.219 -17.822   4.950  1.00  0.00     0.417 C 
HETATM   24  F   UNL     1      45.064 -16.897   5.481  1.00  0.00    -0.166 F 
HETATM   25  F   UNL     1      43.853 -18.634   5.978  1.00  0.00    -0.166 F 
HETATM   26  F   UNL     1      44.977 -18.588   4.118  1.00  0.00    -0.166 F 
ENDBRANCH  21  23
ENDBRANCH   3  16
TORSDOF 5
ENDMDL
MODEL 7
REMARK VINA RESULT:      -7.6      4.729      7.372
REMARK  5 active torsions:
REMARK  status: ('A' for Active; 'I' for Inactive)
REMARK    1  A    between atoms: C_2  and  C_3 
REMARK    2  A    between atoms: C_3  and  N_4 
REMARK    3  A    between atoms: C_3  and  C_19 
REMARK       I    between atoms: N_4  and  C_5 
REMARK       I    between atoms: C_5  and  N_6 
REMARK    4  A    between atoms: N_6  and  C_7 
REMARK    5  A    between atoms: C_12  and  C_13 
ROOT
HETATM    1  N   UNL     1      41.559 -15.108   2.707  1.00  0.00    -0.334 N 
HETATM    2  C   UNL     1      42.437 -14.454   1.920  1.00  0.00     0.321 C 
HETATM    3  N   UNL     1      41.991 -13.680   0.901  1.00  0.00    -0.306 N 
HETATM    4  O   UNL     1      43.655 -14.545   2.072  1.00  0.00    -0.247 OA
HETATM    5  H   UNL     1      40.605 -14.794   2.695  1.00  0.00     0.165 HD
HETATM    6  H   UNL     1      42.802 -13.327   0.405  1.00  0.00     0.171 HD
ENDROOT
BRANCH   1   7
HETATM    7  C   UNL     1      41.992 -15.824   3.895  1.00  0.00     0.122 C 
BRANCH   7   8
HETATM    8  C   UNL     1      40.823 -16.055   4.877  1.00  0.00     0.026 C 
HETATM    9  C   UNL     1      41.216 -16.015   6.349  1.00  0.00     0.007 C 
ENDBRANCH   7   8
BRANCH   7  10
HETATM   10  C   UNL     1      42.688 -17.096   3.510  1.00  0.00     0.001 A 
HETATM   11  C   UNL     1      42.416 -18.009   2.506  1.00  0.00     0.122 A 
HETATM   12  N   UNL     1      43.361 -18.988   2.603  1.00  0.00    -0.285 N 
HETATM   13  C   UNL     1      43.495 -20.154   1.764  1.00  0.00     0.179 C 
HETATM   14  N   UNL     1      44.232 -18.794   3.606  1.00  0.00    -0.185 NA
HETATM   15  C   UNL     1      43.831 -17.643   4.149  1.00  0.00     0.149 A 
ENDBRANCH   7  10
ENDBRANCH   1   7
BRANCH   3  16
HETATM   16  C   UNL     1      40.740 -13.274   0.391  1.00  0.00     0.075 A 
HETATM   17  C   UNL     1      39.930 -12.234   0.855  1.00  0.00     0.143 A 
HETATM   18  F   UNL     1      40.289 -11.453   1.881  1.00  0.00    -0.204 F 
HETATM   19  C   UNL     1      38.709 -11.934   0.245  1.00  0.00     0.045 A 
HETATM   20  C   UNL     1      38.272 -12.667  -0.856  1.00  0.00     0.019 A 
HETATM   21  C   UNL     1      39.057 -13.712  -1.353  1.00  0.00     0.050 A 
HETATM   22  C   UNL     1      40.285 -14.000  -0.724  1.00  0.00     0.049 A 
BRANCH  21  23
HETATM   23  C   UNL     1      38.626 -14.501  -2.567  1.00  0.00     0.417 C 
HETATM   24  F   UNL     1      38.665 -15.848  -2.378  1.00  0.00    -0.166 F 
HETATM   25  F   UNL     1      37.352 -14.209  -2.944  1.00  0.00    -0.166 F 
HETATM   26  F   UNL     1      39.406 -14.253  -3.656  1.00  0.00    -0.166 F 
ENDBRANCH  21  23
ENDBRANCH   3  16
TORSDOF 5
ENDMDL
MODEL 8
REMARK VINA RESULT:      -7.6      4.616      6.739
REMARK  5 active torsions:
REMARK  status: ('A' for Active; 'I' for Inactive)
REMARK    1  A    between atoms: C_2  and  C_3 
REMARK    2  A    between atoms: C_3  and  N_4 
REMARK    3  A    between atoms: C_3  and  C_19 
REMARK       I    between atoms: N_4  and  C_5 
REMARK       I    between atoms: C_5  and  N_6 
REMARK    4  A    between atoms: N_6  and  C_7 
REMARK    5  A    between atoms: C_12  and  C_13 
ROOT
HETATM    1  N   UNL     1      41.605 -15.919   2.605  1.00  0.00    -0.334 N 
HETATM    2  C   UNL     1      40.278 -15.700   2.708  1.00  0.00     0.321 C 
HETATM    3  N   UNL     1      39.702 -14.679   2.030  1.00  0.00    -0.306 N 
HETATM    4  O   UNL     1      39.550 -16.387   3.425  1.00  0.00    -0.247 OA
HETATM    5  H   UNL     1      42.083 -15.500   1.826  1.00  0.00     0.165 HD
HETATM    6  H   UNL     1      38.721 -14.655   2.285  1.00  0.00     0.171 HD
ENDROOT
BRANCH   1   7
HETATM    7  C   UNL     1      42.230 -17.089   3.197  1.00  0.00     0.122 C 
BRANCH   7   8
HETATM    8  C   UNL     1      43.279 -17.713   2.252  1.00  0.00     0.026 C 
HETATM    9  C   UNL     1      43.231 -19.234   2.168  1.00  0.00     0.007 C 
ENDBRANCH   7   8
BRANCH   7  10
HETATM   10  C   UNL     1      42.793 -16.751   4.546  1.00  0.00     0.001 A 
HETATM   11  C   UNL     1      42.222 -16.109   5.631  1.00  0.00     0.122 A 
HETATM   12  N   UNL     1      43.177 -16.060   6.603  1.00  0.00    -0.285 N 
HETATM   13  C   UNL     1      43.048 -15.490   7.922  1.00  0.00     0.179 C 
HETATM   14  N   UNL     1      44.343 -16.615   6.235  1.00  0.00    -0.185 NA
HETATM   15  C   UNL     1      44.107 -17.043   4.994  1.00  0.00     0.149 A 
ENDBRANCH   7  10
ENDBRANCH   1   7
BRANCH   3  16
HETATM   16  C   UNL     1      40.117 -13.695   1.108  1.00  0.00     0.075 A 
HETATM   17  C   UNL     1      40.685 -12.450   1.390  1.00  0.00     0.143 A 
HETATM   18  F   UNL     1      40.928 -12.045   2.642  1.00  0.00    -0.204 F 
HETATM   19  C   UNL     1      41.058 -11.571   0.370  1.00  0.00     0.045 A 
HETATM   20  C   UNL     1      40.880 -11.925  -0.965  1.00  0.00     0.019 A 
HETATM   21  C   UNL     1      40.321 -13.165  -1.289  1.00  0.00     0.050 A 
HETATM   22  C   UNL     1      39.949 -14.037  -0.247  1.00  0.00     0.049 A 
BRANCH  21  23
HETATM   23  C   UNL     1      40.149 -13.591  -2.728  1.00  0.00     0.417 C 
HETATM   24  F   UNL     1      39.573 -14.817  -2.864  1.00  0.00    -0.166 F 
HETATM   25  F   UNL     1      39.366 -12.727  -3.430  1.00  0.00    -0.166 F 
HETATM   26  F   UNL     1      41.331 -13.656  -3.400  1.00  0.00    -0.166 F 
ENDBRANCH  21  23
ENDBRANCH   3  16
TORSDOF 5
ENDMDL
MODEL 9
REMARK VINA RESULT:      -7.5      3.098      4.870
REMARK  5 active torsions:
REMARK  status: ('A' for Active; 'I' for Inactive)
REMARK    1  A    between atoms: C_2  and  C_3 
REMARK    2  A    between atoms: C_3  and  N_4 
REMARK    3  A    between atoms: C_3  and  C_19 
REMARK       I    between atoms: N_4  and  C_5 
REMARK       I    between atoms: C_5  and  N_6 
REMARK    4  A    between atoms: N_6  and  C_7 
REMARK    5  A    between atoms: C_12  and  C_13 
ROOT
HETATM    1  N   UNL     1      41.681 -13.798   2.461  1.00  0.00    -0.334 N 
HETATM    2  C   UNL     1      40.692 -14.676   2.724  1.00  0.00     0.321 C 
HETATM    3  N   UNL     1      40.988 -15.934   3.126  1.00  0.00    -0.306 N 
HETATM    4  O   UNL     1      39.502 -14.388   2.591  1.00  0.00    -0.247 OA
HETATM    5  H   UNL     1      42.593 -14.006   2.830  1.00  0.00     0.165 HD
HETATM    6  H   UNL     1      40.115 -16.443   3.215  1.00  0.00     0.171 HD
ENDROOT
BRANCH   1   7
HETATM    7  C   UNL     1      41.402 -12.401   2.174  1.00  0.00     0.122 C 
BRANCH   7   8
HETATM    8  C   UNL     1      42.494 -11.473   2.747  1.00  0.00     0.026 C 
HETATM    9  C   UNL     1      41.971 -10.373   3.665  1.00  0.00     0.007 C 
ENDBRANCH   7   8
BRANCH   7  10
HETATM   10  C   UNL     1      41.190 -12.208   0.701  1.00  0.00     0.001 A 
HETATM   11  C   UNL     1      40.863 -13.112  -0.294  1.00  0.00     0.122 A 
HETATM   12  N   UNL     1      40.797 -12.404  -1.458  1.00  0.00    -0.285 N 
HETATM   13  C   UNL     1      40.481 -12.916  -2.770  1.00  0.00     0.179 C 
HETATM   14  N   UNL     1      41.067 -11.099  -1.306  1.00  0.00    -0.185 NA
HETATM   15  C   UNL     1      41.294 -10.977   0.002  1.00  0.00     0.149 A 
ENDBRANCH   7  10
ENDBRANCH   1   7
BRANCH   3  16
HETATM   16  C   UNL     1      42.154 -16.668   3.431  1.00  0.00     0.075 A 
HETATM   17  C   UNL     1      43.181 -16.306   4.306  1.00  0.00     0.143 A 
HETATM   18  F   UNL     1      43.155 -15.165   5.005  1.00  0.00    -0.204 F 
HETATM   19  C   UNL     1      44.283 -17.139   4.521  1.00  0.00     0.045 A 
HETATM   20  C   UNL     1      44.376 -18.366   3.868  1.00  0.00     0.019 A 
HETATM   21  C   UNL     1      43.366 -18.767   2.989  1.00  0.00     0.050 A 
HETATM   22  C   UNL     1      42.263 -17.912   2.784  1.00  0.00     0.049 A 
BRANCH  21  23
HETATM   23  C   UNL     1      43.422 -20.107   2.295  1.00  0.00     0.417 C 
HETATM   24  F   UNL     1      44.389 -20.181   1.340  1.00  0.00    -0.166 F 
HETATM   25  F   UNL     1      43.669 -21.125   3.162  1.00  0.00    -0.166 F 
HETATM   26  F   UNL     1      42.254 -20.422   1.670  1.00  0.00    -0.166 F 
ENDBRANCH  21  23
ENDBRANCH   3  16
TORSDOF 5
ENDMDL
MODEL 10
REMARK VINA RESULT:      -7.5      5.115      7.522
REMARK  5 active torsions:
REMARK  status: ('A' for Active; 'I' for Inactive)
REMARK    1  A    between atoms: C_2  and  C_3 
REMARK    2  A    between atoms: C_3  and  N_4 
REMARK    3  A    between atoms: C_3  and  C_19 
REMARK       I    between atoms: N_4  and  C_5 
REMARK       I    between atoms: C_5  and  N_6 
REMARK    4  A    between atoms: N_6  and  C_7 
REMARK    5  A    between atoms: C_12  and  C_13 
ROOT
HETATM    1  N   UNL     1      41.511 -14.906   1.515  1.00  0.00    -0.334 N 
HETATM    2  C   UNL     1      40.251 -15.170   1.117  1.00  0.00     0.321 C 
HETATM    3  N   UNL     1      39.725 -14.524   0.050  1.00  0.00    -0.306 N 
HETATM    4  O   UNL     1      39.528 -15.976   1.705  1.00  0.00    -0.247 OA
HETATM    5  H   UNL     1      42.117 -14.447   0.857  1.00  0.00     0.165 HD
HETATM    6  H   UNL     1      38.761 -14.823  -0.047  1.00  0.00     0.171 HD
ENDROOT
BRANCH   1   7
HETATM    7  C   UNL     1      42.158 -15.684   2.558  1.00  0.00     0.122 C 
BRANCH   7   8
HETATM    8  C   UNL     1      43.307 -16.547   1.994  1.00  0.00     0.026 C 
HETATM    9  C   UNL     1      43.191 -18.036   2.304  1.00  0.00     0.007 C 
ENDBRANCH   7   8
BRANCH   7  10
HETATM   10  C   UNL     1      42.601 -14.787   3.676  1.00  0.00     0.001 A 
HETATM   11  C   UNL     1      42.848 -15.058   5.011  1.00  0.00     0.122 A 
HETATM   12  N   UNL     1      43.223 -13.878   5.585  1.00  0.00    -0.285 N 
HETATM   13  C   UNL     1      43.589 -13.659   6.963  1.00  0.00     0.179 C 
HETATM   14  N   UNL     1      43.231 -12.845   4.728  1.00  0.00    -0.185 NA
HETATM   15  C   UNL     1      42.864 -13.397   3.570  1.00  0.00     0.149 A 
ENDBRANCH   7  10
ENDBRANCH   1   7
BRANCH   3  16
HETATM   16  C   UNL     1      40.170 -13.584  -0.904  1.00  0.00     0.075 A 
HETATM   17  C   UNL     1      40.195 -13.729  -2.293  1.00  0.00     0.143 A 
HETATM   18  F   UNL     1      39.751 -14.834  -2.903  1.00  0.00    -0.204 F 
HETATM   19  C   UNL     1      40.659 -12.706  -3.125  1.00  0.00     0.045 A 
HETATM   20  C   UNL     1      41.102 -11.503  -2.581  1.00  0.00     0.019 A 
HETATM   21  C   UNL     1      41.088 -11.316  -1.195  1.00  0.00     0.050 A 
HETATM   22  C   UNL     1      40.618 -12.360  -0.373  1.00  0.00     0.049 A 
BRANCH  21  23
HETATM   23  C   UNL     1      41.530 -10.010  -0.579  1.00  0.00     0.417 C 
HETATM   24  F   UNL     1      40.534  -9.085  -0.501  1.00  0.00    -0.166 F 
HETATM   25  F   UNL     1      41.994 -10.172   0.689  1.00  0.00    -0.166 F 
HETATM   26  F   UNL     1      42.538  -9.417  -1.275  1.00  0.00    -0.166 F 
ENDBRANCH  21  23
ENDBRANCH   3  16
TORSDOF 5
ENDMDL
