MODEL 1
REMARK VINA RESULT:      -8.7      0.000      0.000
REMARK  7 active torsions:
REMARK  status: ('A' for Active; 'I' for Inactive)
REMARK    1  A    between atoms: C_2  and  N_3 
REMARK       I    between atoms: N_3  and  C_4 
REMARK    2  A    between atoms: N_3  and  C_21 
REMARK    3  A    between atoms: C_4  and  C_5 
REMARK    4  A    between atoms: C_14  and  O_15 
REMARK    5  A    between atoms: C_21  and  C_22 
REMARK       I    between atoms: C_22  and  N_23 
REMARK    6  A    between atoms: N_23  and  C_24 
REMARK    7  A    between atoms: C_27  and  N_28 
REMARK       I    between atoms: N_28  and  C_29 
ROOT
HETATM    1  N   UNL     1      38.989 -11.970  -0.135  1.00  0.00    -0.339 N 
HETATM    2  C   UNL     1      39.237 -11.062   0.915  1.00  0.00     0.261 C 
HETATM    3  O   UNL     1      38.494 -10.079   1.008  1.00  0.00    -0.267 OA
ENDROOT
BRANCH   1   4
HETATM    4  C   UNL     1      37.737 -11.801  -0.886  1.00  0.00     0.122 C 
HETATM    5  C   UNL     1      37.707 -12.622  -2.170  1.00  0.00     0.026 C 
ENDBRANCH   1   4
BRANCH   1   6
HETATM    6  C   UNL     1      40.018 -12.791  -0.787  1.00  0.00     0.229 C 
BRANCH   6   7
HETATM    7  C   UNL     1      40.237 -14.175  -0.153  1.00  0.00     0.240 C 
HETATM    8  N   UNL     1      41.302 -14.212   0.726  1.00  0.00    -0.326 N 
HETATM    9  H   UNL     1      41.753 -13.320   0.897  1.00  0.00     0.169 HD
HETATM   10  O   UNL     1      39.562 -15.131  -0.521  1.00  0.00    -0.271 OA
BRANCH   8  11
HETATM   11  C   UNL     1      41.889 -15.338   1.333  1.00  0.00     0.034 A 
HETATM   12  C   UNL     1      43.224 -15.704   1.179  1.00  0.00     0.032 A 
HETATM   13  C   UNL     1      43.740 -16.824   1.846  1.00  0.00     0.032 A 
HETATM   14  C   UNL     1      42.930 -17.596   2.678  1.00  0.00     0.034 A 
HETATM   15  C   UNL     1      41.586 -17.232   2.825  1.00  0.00     0.032 A 
HETATM   16  C   UNL     1      41.070 -16.117   2.156  1.00  0.00     0.032 A 
BRANCH  14  17
HETATM   17  N   UNL     1      43.375 -18.725   3.395  1.00  0.00    -0.328 N 
HETATM   18  C   UNL     1      43.507 -20.020   2.926  1.00  0.00     0.218 C 
HETATM   19  C   UNL     1      44.026 -20.977   3.973  1.00  0.00     0.117 C 
HETATM   20  O   UNL     1      43.259 -20.423   1.795  1.00  0.00    -0.274 OA
HETATM   21  H   UNL     1      43.631 -18.560   4.360  1.00  0.00     0.169 HD
ENDBRANCH  14  17
ENDBRANCH   8  11
ENDBRANCH   6   7
ENDBRANCH   1   6
BRANCH   2  22
HETATM   22  C   UNL     1      40.254 -11.344   1.942  1.00  0.00     0.074 A 
HETATM   23  S   UNL     1      39.778 -12.446   3.195  1.00  0.00    -0.084 SA
HETATM   24  C   UNL     1      41.328 -12.510   3.871  1.00  0.00     0.023 A 
HETATM   25  C   UNL     1      42.198 -11.652   3.234  1.00  0.00    -0.038 A 
HETATM   26  C   UNL     1      41.717 -13.361   5.000  1.00  0.00    -0.012 A 
HETATM   27  C   UNL     1      43.631 -11.552   3.666  1.00  0.00     0.044 C 
HETATM   28  C   UNL     1      41.577 -10.979   2.134  1.00  0.00     0.033 A 
HETATM   29  C   UNL     1      43.809 -11.923   5.151  1.00  0.00     0.044 C 
HETATM   30  C   UNL     1      42.971 -13.108   5.601  1.00  0.00    -0.044 A 
HETATM   31  C   UNL     1      43.398 -13.901   6.677  1.00  0.00     0.044 A 
HETATM   32  C   UNL     1      42.605 -14.950   7.152  1.00  0.00     0.068 A 
HETATM   33  C   UNL     1      41.379 -15.211   6.545  1.00  0.00     0.037 A 
HETATM   34  C   UNL     1      40.936 -14.421   5.478  1.00  0.00     0.016 A 
BRANCH  32  35
HETATM   35  O   UNL     1      43.140 -15.641   8.205  1.00  0.00    -0.356 OA
HETATM   36  C   UNL     1      43.817 -16.853   7.896  1.00  0.00     0.210 C 
ENDBRANCH  32  35
ENDBRANCH   2  22
TORSDOF 7
ENDMDL
MODEL 2
REMARK VINA RESULT:      -8.5      3.004      6.028
REMARK  7 active torsions:
REMARK  status: ('A' for Active; 'I' for Inactive)
REMARK    1  A    between atoms: C_2  and  N_3 
REMARK       I    between atoms: N_3  and  C_4 
REMARK    2  A    between atoms: N_3  and  C_21 
REMARK    3  A    between atoms: C_4  and  C_5 
REMARK    4  A    between atoms: C_14  and  O_15 
REMARK    5  A    between atoms: C_21  and  C_22 
REMARK       I    between atoms: C_22  and  N_23 
REMARK    6  A    between atoms: N_23  and  C_24 
REMARK    7  A    between atoms: C_27  and  N_28 
REMARK       I    between atoms: N_28  and  C_29 
ROOT
HETATM    1  N   UNL     1      39.944 -11.763   1.079  1.00  0.00    -0.339 N 
HETATM    2  C   UNL     1      39.225 -12.304   2.165  1.00  0.00     0.261 C 
HETATM    3  O   UNL     1      38.021 -12.039   2.243  1.00  0.00    -0.267 OA
ENDROOT
BRANCH   1   4
HETATM    4  C   UNL     1      39.162 -11.127   0.008  1.00  0.00     0.122 C 
HETATM    5  C   UNL     1      38.881 -12.071  -1.154  1.00  0.00     0.026 C 
ENDBRANCH   1   4
BRANCH   1   6
HETATM    6  C   UNL     1      41.374 -11.430   1.109  1.00  0.00     0.229 C 
BRANCH   6   7
HETATM    7  C   UNL     1      41.857 -10.776   2.414  1.00  0.00     0.240 C 
HETATM    8  N   UNL     1      42.811 -11.521   3.080  1.00  0.00    -0.326 N 
HETATM    9  H   UNL     1      43.122 -12.356   2.595  1.00  0.00     0.169 HD
HETATM   10  O   UNL     1      41.325  -9.746   2.817  1.00  0.00    -0.271 OA
BRANCH   8  11
HETATM   11  C   UNL     1      43.328 -11.315   4.372  1.00  0.00     0.034 A 
HETATM   12  C   UNL     1      44.656 -11.537   4.727  1.00  0.00     0.032 A 
HETATM   13  C   UNL     1      45.101 -11.275   6.032  1.00  0.00     0.032 A 
HETATM   14  C   UNL     1      44.224 -10.787   7.000  1.00  0.00     0.034 A 
HETATM   15  C   UNL     1      42.888 -10.573   6.643  1.00  0.00     0.032 A 
HETATM   16  C   UNL     1      42.444 -10.838   5.343  1.00  0.00     0.032 A 
BRANCH  14  17
HETATM   17  N   UNL     1      44.594 -10.484   8.326  1.00  0.00    -0.328 N 
HETATM   18  C   UNL     1      45.327  -9.397   8.767  1.00  0.00     0.218 C 
HETATM   19  C   UNL     1      45.526  -9.387  10.264  1.00  0.00     0.117 C 
HETATM   20  O   UNL     1      45.792  -8.494   8.080  1.00  0.00    -0.274 OA
HETATM   21  H   UNL     1      44.278 -11.139   9.030  1.00  0.00     0.169 HD
ENDBRANCH  14  17
ENDBRANCH   8  11
ENDBRANCH   6   7
ENDBRANCH   1   6
BRANCH   2  22
HETATM   22  C   UNL     1      39.854 -13.257   3.095  1.00  0.00     0.074 A 
HETATM   23  S   UNL     1      40.609 -14.639   2.364  1.00  0.00    -0.084 SA
HETATM   24  C   UNL     1      41.273 -15.178   3.825  1.00  0.00     0.023 A 
HETATM   25  C   UNL     1      40.875 -14.394   4.887  1.00  0.00    -0.038 A 
HETATM   26  C   UNL     1      42.159 -16.339   3.967  1.00  0.00    -0.012 A 
HETATM   27  C   UNL     1      41.352 -14.687   6.277  1.00  0.00     0.044 C 
HETATM   28  C   UNL     1      40.056 -13.299   4.466  1.00  0.00     0.033 A 
HETATM   29  C   UNL     1      41.698 -16.178   6.463  1.00  0.00     0.044 C 
HETATM   30  C   UNL     1      42.416 -16.802   5.277  1.00  0.00    -0.044 A 
HETATM   31  C   UNL     1      43.265 -17.901   5.471  1.00  0.00     0.044 A 
HETATM   32  C   UNL     1      43.876 -18.534   4.384  1.00  0.00     0.068 A 
HETATM   33  C   UNL     1      43.638 -18.062   3.095  1.00  0.00     0.037 A 
HETATM   34  C   UNL     1      42.783 -16.974   2.887  1.00  0.00     0.016 A 
BRANCH  32  35
HETATM   35  O   UNL     1      44.679 -19.592   4.714  1.00  0.00    -0.356 OA
HETATM   36  C   UNL     1      44.047 -20.702   5.340  1.00  0.00     0.210 C 
ENDBRANCH  32  35
ENDBRANCH   2  22
TORSDOF 7
ENDMDL
MODEL 3
REMARK VINA RESULT:      -8.4      6.770     11.010
REMARK  7 active torsions:
REMARK  status: ('A' for Active; 'I' for Inactive)
REMARK    1  A    between atoms: C_2  and  N_3 
REMARK       I    between atoms: N_3  and  C_4 
REMARK    2  A    between atoms: N_3  and  C_21 
REMARK    3  A    between atoms: C_4  and  C_5 
REMARK    4  A    between atoms: C_14  and  O_15 
REMARK    5  A    between atoms: C_21  and  C_22 
REMARK       I    between atoms: C_22  and  N_23 
REMARK    6  A    between atoms: N_23  and  C_24 
REMARK    7  A    between atoms: C_27  and  N_28 
REMARK       I    between atoms: N_28  and  C_29 
ROOT
HETATM    1  N   UNL     1      44.770 -10.852   8.009  1.00  0.00    -0.339 N 
HETATM    2  C   UNL     1      45.011 -11.484   6.771  1.00  0.00     0.261 C 
HETATM    3  O   UNL     1      46.102 -11.282   6.228  1.00  0.00    -0.267 OA
ENDROOT
BRANCH   1   4
HETATM    4  C   UNL     1      45.913 -10.198   8.661  1.00  0.00     0.122 C 
HETATM    5  C   UNL     1      45.889  -8.682   8.509  1.00  0.00     0.026 C 
ENDBRANCH   1   4
BRANCH   1   6
HETATM    6  C   UNL     1      43.443 -10.452   8.496  1.00  0.00     0.229 C 
BRANCH   6   7
HETATM    7  C   UNL     1      43.267 -10.527  10.022  1.00  0.00     0.240 C 
HETATM    8  N   UNL     1      42.506  -9.493  10.536  1.00  0.00    -0.326 N 
HETATM    9  H   UNL     1      42.106  -8.867   9.847  1.00  0.00     0.169 HD
HETATM   10  O   UNL     1      43.860 -11.386  10.666  1.00  0.00    -0.271 OA
BRANCH   8  11
HETATM   11  C   UNL     1      42.301  -9.155  11.886  1.00  0.00     0.034 A 
HETATM   12  C   UNL     1      43.131  -8.306  12.615  1.00  0.00     0.032 A 
HETATM   13  C   UNL     1      42.838  -7.992  13.950  1.00  0.00     0.032 A 
HETATM   14  C   UNL     1      41.710  -8.521  14.577  1.00  0.00     0.034 A 
HETATM   15  C   UNL     1      40.882  -9.380  13.846  1.00  0.00     0.032 A 
HETATM   16  C   UNL     1      41.177  -9.697  12.515  1.00  0.00     0.032 A 
BRANCH  14  17
HETATM   17  N   UNL     1      41.338  -8.243  15.907  1.00  0.00    -0.328 N 
HETATM   18  C   UNL     1      40.556  -7.196  16.360  1.00  0.00     0.218 C 
HETATM   19  C   UNL     1      40.351  -7.216  17.857  1.00  0.00     0.117 C 
HETATM   20  O   UNL     1      40.043  -6.312  15.682  1.00  0.00    -0.274 OA
HETATM   21  H   UNL     1      41.680  -8.892  16.604  1.00  0.00     0.169 HD
ENDBRANCH  14  17
ENDBRANCH   8  11
ENDBRANCH   6   7
ENDBRANCH   1   6
BRANCH   2  22
HETATM   22  C   UNL     1      44.054 -12.454   6.212  1.00  0.00     0.074 A 
HETATM   23  S   UNL     1      43.401 -12.058   4.653  1.00  0.00    -0.084 SA
HETATM   24  C   UNL     1      42.611 -13.546   4.492  1.00  0.00     0.023 A 
HETATM   25  C   UNL     1      42.745 -14.321   5.623  1.00  0.00    -0.038 A 
HETATM   26  C   UNL     1      41.862 -13.974   3.305  1.00  0.00    -0.012 A 
HETATM   27  C   UNL     1      42.129 -15.686   5.696  1.00  0.00     0.044 C 
HETATM   28  C   UNL     1      43.567 -13.689   6.611  1.00  0.00     0.033 A 
HETATM   29  C   UNL     1      40.896 -15.808   4.780  1.00  0.00     0.044 C 
HETATM   30  C   UNL     1      41.055 -15.128   3.430  1.00  0.00    -0.044 A 
HETATM   31  C   UNL     1      40.327 -15.589   2.323  1.00  0.00     0.044 A 
HETATM   32  C   UNL     1      40.403 -14.931   1.092  1.00  0.00     0.068 A 
HETATM   33  C   UNL     1      41.216 -13.806   0.966  1.00  0.00     0.037 A 
HETATM   34  C   UNL     1      41.939 -13.330   2.065  1.00  0.00     0.016 A 
BRANCH  32  35
HETATM   35  O   UNL     1      39.643 -15.484   0.098  1.00  0.00    -0.356 OA
HETATM   36  C   UNL     1      39.455 -14.700  -1.074  1.00  0.00     0.210 C 
ENDBRANCH  32  35
ENDBRANCH   2  22
TORSDOF 7
ENDMDL
MODEL 4
REMARK VINA RESULT:      -8.0      5.838      9.190
REMARK  7 active torsions:
REMARK  status: ('A' for Active; 'I' for Inactive)
REMARK    1  A    between atoms: C_2  and  N_3 
REMARK       I    between atoms: N_3  and  C_4 
REMARK    2  A    between atoms: N_3  and  C_21 
REMARK    3  A    between atoms: C_4  and  C_5 
REMARK    4  A    between atoms: C_14  and  O_15 
REMARK    5  A    between atoms: C_21  and  C_22 
REMARK       I    between atoms: C_22  and  N_23 
REMARK    6  A    between atoms: N_23  and  C_24 
REMARK    7  A    between atoms: C_27  and  N_28 
REMARK       I    between atoms: N_28  and  C_29 
ROOT
HETATM    1  N   UNL     1      40.400 -10.622   6.067  1.00  0.00    -0.339 N 
HETATM    2  C   UNL     1      39.869 -11.924   5.956  1.00  0.00     0.261 C 
HETATM    3  O   UNL     1      38.759 -12.134   6.458  1.00  0.00    -0.267 OA
ENDROOT
BRANCH   1   4
HETATM    4  C   UNL     1      39.499  -9.571   6.561  1.00  0.00     0.122 C 
HETATM    5  C   UNL     1      38.941  -8.702   5.441  1.00  0.00     0.026 C 
ENDBRANCH   1   4
BRANCH   1   6
HETATM    6  C   UNL     1      41.834 -10.309   6.118  1.00  0.00     0.229 C 
BRANCH   6   7
HETATM    7  C   UNL     1      42.248  -9.361   7.255  1.00  0.00     0.240 C 
HETATM    8  N   UNL     1      42.340  -9.987   8.484  1.00  0.00    -0.326 N 
HETATM    9  H   UNL     1      42.198 -10.991   8.469  1.00  0.00     0.169 HD
HETATM   10  O   UNL     1      42.362  -8.158   7.040  1.00  0.00    -0.271 OA
BRANCH   8  11
HETATM   11  C   UNL     1      42.513  -9.397   9.749  1.00  0.00     0.034 A 
HETATM   12  C   UNL     1      43.729  -9.335  10.425  1.00  0.00     0.032 A 
HETATM   13  C   UNL     1      43.823  -8.698  11.671  1.00  0.00     0.032 A 
HETATM   14  C   UNL     1      42.704  -8.111  12.259  1.00  0.00     0.034 A 
HETATM   15  C   UNL     1      41.481  -8.180  11.583  1.00  0.00     0.032 A 
HETATM   16  C   UNL     1      41.385  -8.820  10.342  1.00  0.00     0.032 A 
BRANCH  14  17
HETATM   17  N   UNL     1      42.719  -7.439  13.498  1.00  0.00    -0.328 N 
HETATM   18  C   UNL     1      42.140  -7.850  14.685  1.00  0.00     0.218 C 
HETATM   19  C   UNL     1      42.366  -6.881  15.820  1.00  0.00     0.117 C 
HETATM   20  O   UNL     1      41.503  -8.881  14.875  1.00  0.00    -0.274 OA
HETATM   21  H   UNL     1      43.217  -6.558  13.514  1.00  0.00     0.169 HD
ENDBRANCH  14  17
ENDBRANCH   8  11
ENDBRANCH   6   7
ENDBRANCH   1   6
BRANCH   2  22
HETATM   22  C   UNL     1      40.547 -12.958   5.156  1.00  0.00     0.074 A 
HETATM   23  S   UNL     1      41.500 -14.101   6.051  1.00  0.00    -0.084 SA
HETATM   24  C   UNL     1      41.806 -15.064   4.693  1.00  0.00     0.023 A 
HETATM   25  C   UNL     1      41.284 -14.509   3.545  1.00  0.00    -0.038 A 
HETATM   26  C   UNL     1      42.543 -16.332   4.713  1.00  0.00    -0.012 A 
HETATM   27  C   UNL     1      41.433 -15.200   2.223  1.00  0.00     0.044 C 
HETATM   28  C   UNL     1      40.569 -13.298   3.813  1.00  0.00     0.033 A 
HETATM   29  C   UNL     1      42.683 -16.101   2.184  1.00  0.00     0.044 C 
HETATM   30  C   UNL     1      42.930 -16.877   3.468  1.00  0.00    -0.044 A 
HETATM   31  C   UNL     1      43.626 -18.094   3.428  1.00  0.00     0.044 A 
HETATM   32  C   UNL     1      43.927 -18.785   4.606  1.00  0.00     0.068 A 
HETATM   33  C   UNL     1      43.526 -18.256   5.831  1.00  0.00     0.037 A 
HETATM   34  C   UNL     1      42.841 -17.038   5.885  1.00  0.00     0.016 A 
BRANCH  32  35
HETATM   35  O   UNL     1      44.609 -19.957   4.424  1.00  0.00    -0.356 OA
HETATM   36  C   UNL     1      43.933 -20.985   3.709  1.00  0.00     0.210 C 
ENDBRANCH  32  35
ENDBRANCH   2  22
TORSDOF 7
ENDMDL
MODEL 5
REMARK VINA RESULT:      -8.0      2.521      6.079
REMARK  7 active torsions:
REMARK  status: ('A' for Active; 'I' for Inactive)
REMARK    1  A    between atoms: C_2  and  N_3 
REMARK       I    between atoms: N_3  and  C_4 
REMARK    2  A    between atoms: N_3  and  C_21 
REMARK    3  A    between atoms: C_4  and  C_5 
REMARK    4  A    between atoms: C_14  and  O_15 
REMARK    5  A    between atoms: C_21  and  C_22 
REMARK       I    between atoms: C_22  and  N_23 
REMARK    6  A    between atoms: N_23  and  C_24 
REMARK    7  A    between atoms: C_27  and  N_28 
REMARK       I    between atoms: N_28  and  C_29 
ROOT
HETATM    1  N   UNL     1      41.288 -10.524   5.015  1.00  0.00    -0.339 N 
HETATM    2  C   UNL     1      41.230 -11.451   6.077  1.00  0.00     0.261 C 
HETATM    3  O   UNL     1      40.506 -11.172   7.039  1.00  0.00    -0.267 OA
ENDROOT
BRANCH   1   4
HETATM    4  C   UNL     1      40.314  -9.423   5.031  1.00  0.00     0.122 C 
HETATM    5  C   UNL     1      40.951  -8.070   4.739  1.00  0.00     0.026 C 
ENDBRANCH   1   4
BRANCH   1   6
HETATM    6  C   UNL     1      42.452 -10.333   4.139  1.00  0.00     0.229 C 
BRANCH   6   7
HETATM    7  C   UNL     1      42.440 -11.181   2.856  1.00  0.00     0.240 C 
HETATM    8  N   UNL     1      41.219 -11.175   2.207  1.00  0.00    -0.326 N 
HETATM    9  H   UNL     1      40.518 -10.564   2.611  1.00  0.00     0.169 HD
HETATM   10  O   UNL     1      43.420 -11.856   2.557  1.00  0.00    -0.271 OA
BRANCH   8  11
HETATM   11  C   UNL     1      40.807 -11.974   1.125  1.00  0.00     0.034 A 
HETATM   12  C   UNL     1      40.440 -13.313   1.236  1.00  0.00     0.032 A 
HETATM   13  C   UNL     1      40.008 -14.032   0.112  1.00  0.00     0.032 A 
HETATM   14  C   UNL     1      39.935 -13.423  -1.140  1.00  0.00     0.034 A 
HETATM   15  C   UNL     1      40.313 -12.080  -1.252  1.00  0.00     0.032 A 
HETATM   16  C   UNL     1      40.748 -11.364  -0.131  1.00  0.00     0.032 A 
BRANCH  14  17
HETATM   17  N   UNL     1      39.498 -14.070  -2.314  1.00  0.00    -0.328 N 
HETATM   18  C   UNL     1      38.223 -14.068  -2.849  1.00  0.00     0.218 C 
HETATM   19  C   UNL     1      38.119 -14.862  -4.130  1.00  0.00     0.117 C 
HETATM   20  O   UNL     1      37.234 -13.501  -2.397  1.00  0.00    -0.274 OA
HETATM   21  H   UNL     1      40.206 -14.587  -2.820  1.00  0.00     0.169 HD
ENDBRANCH  14  17
ENDBRANCH   8  11
ENDBRANCH   6   7
ENDBRANCH   1   6
BRANCH   2  22
HETATM   22  C   UNL     1      41.897 -12.759   5.983  1.00  0.00     0.074 A 
HETATM   23  S   UNL     1      41.286 -13.834   4.764  1.00  0.00    -0.084 SA
HETATM   24  C   UNL     1      42.513 -14.974   5.007  1.00  0.00     0.023 A 
HETATM   25  C   UNL     1      43.340 -14.619   6.051  1.00  0.00    -0.038 A 
HETATM   26  C   UNL     1      42.687 -16.200   4.221  1.00  0.00    -0.012 A 
HETATM   27  C   UNL     1      44.502 -15.485   6.437  1.00  0.00     0.044 C 
HETATM   28  C   UNL     1      42.980 -13.353   6.613  1.00  0.00     0.033 A 
HETATM   29  C   UNL     1      44.266 -16.961   6.064  1.00  0.00     0.044 C 
HETATM   30  C   UNL     1      43.598 -17.162   4.713  1.00  0.00    -0.044 A 
HETATM   31  C   UNL     1      43.812 -18.347   3.994  1.00  0.00     0.044 A 
HETATM   32  C   UNL     1      43.149 -18.582   2.786  1.00  0.00     0.068 A 
HETATM   33  C   UNL     1      42.267 -17.622   2.292  1.00  0.00     0.037 A 
HETATM   34  C   UNL     1      42.036 -16.440   3.005  1.00  0.00     0.016 A 
BRANCH  32  35
HETATM   35  O   UNL     1      43.448 -19.776   2.189  1.00  0.00    -0.356 OA
HETATM   36  C   UNL     1      43.861 -20.833   3.048  1.00  0.00     0.210 C 
ENDBRANCH  32  35
ENDBRANCH   2  22
TORSDOF 7
ENDMDL
MODEL 6
REMARK VINA RESULT:      -8.0      4.722      7.934
REMARK  7 active torsions:
REMARK  status: ('A' for Active; 'I' for Inactive)
REMARK    1  A    between atoms: C_2  and  N_3 
REMARK       I    between atoms: N_3  and  C_4 
REMARK    2  A    between atoms: N_3  and  C_21 
REMARK    3  A    between atoms: C_4  and  C_5 
REMARK    4  A    between atoms: C_14  and  O_15 
REMARK    5  A    between atoms: C_21  and  C_22 
REMARK       I    between atoms: C_22  and  N_23 
REMARK    6  A    between atoms: N_23  and  C_24 
REMARK    7  A    between atoms: C_27  and  N_28 
REMARK       I    between atoms: N_28  and  C_29 
ROOT
HETATM    1  N   UNL     1      40.662 -10.488   3.793  1.00  0.00    -0.339 N 
HETATM    2  C   UNL     1      41.742 -11.252   3.303  1.00  0.00     0.261 C 
HETATM    3  O   UNL     1      42.373 -10.798   2.343  1.00  0.00    -0.267 OA
ENDROOT
BRANCH   1   4
HETATM    4  C   UNL     1      40.522  -9.118   3.279  1.00  0.00     0.122 C 
HETATM    5  C   UNL     1      39.391  -8.982   2.267  1.00  0.00     0.026 C 
ENDBRANCH   1   4
BRANCH   1   6
HETATM    6  C   UNL     1      39.470 -11.050   4.442  1.00  0.00     0.229 C 
BRANCH   6   7
HETATM    7  C   UNL     1      39.537 -11.102   5.978  1.00  0.00     0.240 C 
HETATM    8  N   UNL     1      39.800  -9.875   6.556  1.00  0.00    -0.326 N 
HETATM    9  H   UNL     1      39.842  -9.094   5.912  1.00  0.00     0.169 HD
HETATM   10  O   UNL     1      39.461 -12.181   6.559  1.00  0.00    -0.271 OA
BRANCH   8  11
HETATM   11  C   UNL     1      40.104  -9.597   7.901  1.00  0.00     0.034 A 
HETATM   12  C   UNL     1      39.161  -9.561   8.926  1.00  0.00     0.032 A 
HETATM   13  C   UNL     1      39.552  -9.308  10.249  1.00  0.00     0.032 A 
HETATM   14  C   UNL     1      40.891  -9.089  10.568  1.00  0.00     0.034 A 
HETATM   15  C   UNL     1      41.837  -9.117   9.537  1.00  0.00     0.032 A 
HETATM   16  C   UNL     1      41.446  -9.364   8.216  1.00  0.00     0.032 A 
BRANCH  14  17
HETATM   17  N   UNL     1      41.367  -8.845  11.873  1.00  0.00    -0.328 N 
HETATM   18  C   UNL     1      41.050  -9.537  13.027  1.00  0.00     0.218 C 
HETATM   19  C   UNL     1      41.759  -9.004  14.249  1.00  0.00     0.117 C 
HETATM   20  O   UNL     1      40.291 -10.495  13.126  1.00  0.00    -0.274 OA
HETATM   21  H   UNL     1      42.020  -8.077  11.965  1.00  0.00     0.169 HD
ENDBRANCH  14  17
ENDBRANCH   8  11
ENDBRANCH   6   7
ENDBRANCH   1   6
BRANCH   2  22
HETATM   22  C   UNL     1      42.183 -12.475   3.992  1.00  0.00     0.074 A 
HETATM   23  S   UNL     1      42.076 -13.942   3.069  1.00  0.00    -0.084 SA
HETATM   24  C   UNL     1      42.869 -14.863   4.248  1.00  0.00     0.023 A 
HETATM   25  C   UNL     1      43.146 -14.120   5.375  1.00  0.00    -0.038 A 
HETATM   26  C   UNL     1      43.221 -16.280   4.109  1.00  0.00    -0.012 A 
HETATM   27  C   UNL     1      43.854 -14.736   6.544  1.00  0.00     0.044 C 
HETATM   28  C   UNL     1      42.745 -12.754   5.228  1.00  0.00     0.033 A 
HETATM   29  C   UNL     1      43.618 -16.257   6.621  1.00  0.00     0.044 C 
HETATM   30  C   UNL     1      43.646 -16.959   5.274  1.00  0.00    -0.044 A 
HETATM   31  C   UNL     1      44.005 -18.313   5.196  1.00  0.00     0.044 A 
HETATM   32  C   UNL     1      43.965 -18.995   3.976  1.00  0.00     0.068 A 
HETATM   33  C   UNL     1      43.566 -18.318   2.825  1.00  0.00     0.037 A 
HETATM   34  C   UNL     1      43.194 -16.971   2.891  1.00  0.00     0.016 A 
BRANCH  32  35
HETATM   35  O   UNL     1      44.340 -20.310   4.042  1.00  0.00    -0.356 OA
HETATM   36  C   UNL     1      44.004 -21.011   5.233  1.00  0.00     0.210 C 
ENDBRANCH  32  35
ENDBRANCH   2  22
TORSDOF 7
ENDMDL
MODEL 7
REMARK VINA RESULT:      -7.9      2.462      6.389
REMARK  7 active torsions:
REMARK  status: ('A' for Active; 'I' for Inactive)
REMARK    1  A    between atoms: C_2  and  N_3 
REMARK       I    between atoms: N_3  and  C_4 
REMARK    2  A    between atoms: N_3  and  C_21 
REMARK    3  A    between atoms: C_4  and  C_5 
REMARK    4  A    between atoms: C_14  and  O_15 
REMARK    5  A    between atoms: C_21  and  C_22 
REMARK       I    between atoms: C_22  and  N_23 
REMARK    6  A    between atoms: N_23  and  C_24 
REMARK    7  A    between atoms: C_27  and  N_28 
REMARK       I    between atoms: N_28  and  C_29 
ROOT
HETATM    1  N   UNL     1      41.242 -10.757   5.772  1.00  0.00    -0.339 N 
HETATM    2  C   UNL     1      41.125  -9.859   4.690  1.00  0.00     0.261 C 
HETATM    3  O   UNL     1      41.832  -8.846   4.708  1.00  0.00    -0.267 OA
ENDROOT
BRANCH   1   4
HETATM    4  C   UNL     1      42.354 -10.536   6.707  1.00  0.00     0.122 C 
HETATM    5  C   UNL     1      43.609 -11.309   6.321  1.00  0.00     0.026 C 
ENDBRANCH   1   4
BRANCH   1   6
HETATM    6  C   UNL     1      40.158 -11.619   6.261  1.00  0.00     0.229 C 
BRANCH   6   7
HETATM    7  C   UNL     1      40.311 -13.108   5.911  1.00  0.00     0.240 C 
HETATM    8  N   UNL     1      41.212 -13.341   4.889  1.00  0.00    -0.326 N 
HETATM    9  H   UNL     1      41.706 -12.522   4.554  1.00  0.00     0.169 HD
HETATM   10  O   UNL     1      39.592 -13.943   6.452  1.00  0.00    -0.271 OA
BRANCH   8  11
HETATM   11  C   UNL     1      41.456 -14.545   4.203  1.00  0.00     0.034 A 
HETATM   12  C   UNL     1      40.979 -14.828   2.925  1.00  0.00     0.032 A 
HETATM   13  C   UNL     1      41.294 -16.041   2.296  1.00  0.00     0.032 A 
HETATM   14  C   UNL     1      42.093 -16.989   2.934  1.00  0.00     0.034 A 
HETATM   15  C   UNL     1      42.564 -16.708   4.221  1.00  0.00     0.032 A 
HETATM   16  C   UNL     1      42.246 -15.499   4.851  1.00  0.00     0.032 A 
BRANCH  14  17
HETATM   17  N   UNL     1      42.468 -18.223   2.366  1.00  0.00    -0.328 N 
HETATM   18  C   UNL     1      43.604 -18.964   2.638  1.00  0.00     0.218 C 
HETATM   19  C   UNL     1      43.675 -20.249   1.847  1.00  0.00     0.117 C 
HETATM   20  O   UNL     1      44.497 -18.679   3.428  1.00  0.00    -0.274 OA
HETATM   21  H   UNL     1      41.824 -18.608   1.686  1.00  0.00     0.169 HD
ENDBRANCH  14  17
ENDBRANCH   8  11
ENDBRANCH   6   7
ENDBRANCH   1   6
BRANCH   2  22
HETATM   22  C   UNL     1      40.292 -10.183   3.520  1.00  0.00     0.074 A 
HETATM   23  S   UNL     1      41.120 -10.916   2.182  1.00  0.00    -0.084 SA
HETATM   24  C   UNL     1      39.691 -11.211   1.325  1.00  0.00     0.023 A 
HETATM   25  C   UNL     1      38.590 -10.695   1.974  1.00  0.00    -0.038 A 
HETATM   26  C   UNL     1      39.612 -11.921   0.043  1.00  0.00    -0.012 A 
HETATM   27  C   UNL     1      37.216 -10.849   1.395  1.00  0.00     0.044 C 
HETATM   28  C   UNL     1      38.939 -10.099   3.228  1.00  0.00     0.033 A 
HETATM   29  C   UNL     1      37.253 -10.988  -0.140  1.00  0.00     0.044 C 
HETATM   30  C   UNL     1      38.386 -11.858  -0.658  1.00  0.00    -0.044 A 
HETATM   31  C   UNL     1      38.252 -12.529  -1.883  1.00  0.00     0.044 A 
HETATM   32  C   UNL     1      39.311 -13.274  -2.411  1.00  0.00     0.068 A 
HETATM   33  C   UNL     1      40.511 -13.351  -1.707  1.00  0.00     0.037 A 
HETATM   34  C   UNL     1      40.662 -12.678  -0.490  1.00  0.00     0.016 A 
BRANCH  32  35
HETATM   35  O   UNL     1      39.046 -13.876  -3.611  1.00  0.00    -0.356 OA
HETATM   36  C   UNL     1      38.133 -14.967  -3.590  1.00  0.00     0.210 C 
ENDBRANCH  32  35
ENDBRANCH   2  22
TORSDOF 7
ENDMDL
MODEL 8
REMARK VINA RESULT:      -7.7      2.579      6.419
REMARK  7 active torsions:
REMARK  status: ('A' for Active; 'I' for Inactive)
REMARK    1  A    between atoms: C_2  and  N_3 
REMARK       I    between atoms: N_3  and  C_4 
REMARK    2  A    between atoms: N_3  and  C_21 
REMARK    3  A    between atoms: C_4  and  C_5 
REMARK    4  A    between atoms: C_14  and  O_15 
REMARK    5  A    between atoms: C_21  and  C_22 
REMARK       I    between atoms: C_22  and  N_23 
REMARK    6  A    between atoms: N_23  and  C_24 
REMARK    7  A    between atoms: C_27  and  N_28 
REMARK       I    between atoms: N_28  and  C_29 
ROOT
HETATM    1  N   UNL     1      41.641 -10.933   6.061  1.00  0.00    -0.339 N 
HETATM    2  C   UNL     1      42.826 -11.594   5.673  1.00  0.00     0.261 C 
HETATM    3  O   UNL     1      43.761 -10.897   5.265  1.00  0.00    -0.267 OA
ENDROOT
BRANCH   1   4
HETATM    4  C   UNL     1      41.695  -9.468   6.170  1.00  0.00     0.122 C 
HETATM    5  C   UNL     1      40.590  -8.903   7.053  1.00  0.00     0.026 C 
ENDBRANCH   1   4
BRANCH   1   6
HETATM    6  C   UNL     1      40.296 -11.517   5.978  1.00  0.00     0.229 C 
BRANCH   6   7
HETATM    7  C   UNL     1      39.703 -11.572   4.560  1.00  0.00     0.240 C 
HETATM    8  N   UNL     1      40.026 -12.729   3.876  1.00  0.00    -0.326 N 
HETATM    9  H   UNL     1      40.543 -13.417   4.411  1.00  0.00     0.169 HD
HETATM   10  O   UNL     1      39.102 -10.602   4.108  1.00  0.00    -0.271 OA
BRANCH   8  11
HETATM   11  C   UNL     1      39.809 -13.023   2.518  1.00  0.00     0.034 A 
HETATM   12  C   UNL     1      39.523 -12.068   1.546  1.00  0.00     0.032 A 
HETATM   13  C   UNL     1      39.352 -12.441   0.204  1.00  0.00     0.032 A 
HETATM   14  C   UNL     1      39.467 -13.774  -0.186  1.00  0.00     0.034 A 
HETATM   15  C   UNL     1      39.747 -14.735   0.793  1.00  0.00     0.032 A 
HETATM   16  C   UNL     1      39.912 -14.363   2.132  1.00  0.00     0.032 A 
BRANCH  14  17
HETATM   17  N   UNL     1      39.326 -14.228  -1.513  1.00  0.00    -0.328 N 
HETATM   18  C   UNL     1      38.271 -13.991  -2.375  1.00  0.00     0.218 C 
HETATM   19  C   UNL     1      38.463 -14.626  -3.732  1.00  0.00     0.117 C 
HETATM   20  O   UNL     1      37.260 -13.339  -2.140  1.00  0.00    -0.274 OA
HETATM   21  H   UNL     1      40.092 -14.785  -1.870  1.00  0.00     0.169 HD
ENDBRANCH  14  17
ENDBRANCH   8  11
ENDBRANCH   6   7
ENDBRANCH   1   6
BRANCH   2  22
HETATM   22  C   UNL     1      42.989 -13.043   5.874  1.00  0.00     0.074 A 
HETATM   23  S   UNL     1      42.807 -14.027   4.455  1.00  0.00    -0.084 SA
HETATM   24  C   UNL     1      43.289 -15.442   5.249  1.00  0.00     0.023 A 
HETATM   25  C   UNL     1      43.507 -15.225   6.592  1.00  0.00    -0.038 A 
HETATM   26  C   UNL     1      43.453 -16.750   4.606  1.00  0.00    -0.012 A 
HETATM   27  C   UNL     1      43.950 -16.343   7.488  1.00  0.00     0.044 C 
HETATM   28  C   UNL     1      43.327 -13.850   6.948  1.00  0.00     0.033 A 
HETATM   29  C   UNL     1      43.493 -17.717   6.958  1.00  0.00     0.044 C 
HETATM   30  C   UNL     1      43.611 -17.872   5.451  1.00  0.00    -0.044 A 
HETATM   31  C   UNL     1      43.783 -19.146   4.889  1.00  0.00     0.044 A 
HETATM   32  C   UNL     1      43.819 -19.318   3.502  1.00  0.00     0.068 A 
HETATM   33  C   UNL     1      43.685 -18.207   2.671  1.00  0.00     0.037 A 
HETATM   34  C   UNL     1      43.501 -16.933   3.219  1.00  0.00     0.016 A 
BRANCH  32  35
HETATM   35  O   UNL     1      43.993 -20.610   3.089  1.00  0.00    -0.356 OA
HETATM   36  C   UNL     1      43.846 -20.860   1.696  1.00  0.00     0.210 C 
ENDBRANCH  32  35
ENDBRANCH   2  22
TORSDOF 7
ENDMDL
MODEL 9
REMARK VINA RESULT:      -7.7     15.944     18.624
REMARK  7 active torsions:
REMARK  status: ('A' for Active; 'I' for Inactive)
REMARK    1  A    between atoms: C_2  and  N_3 
REMARK       I    between atoms: N_3  and  C_4 
REMARK    2  A    between atoms: N_3  and  C_21 
REMARK    3  A    between atoms: C_4  and  C_5 
REMARK    4  A    between atoms: C_14  and  O_15 
REMARK    5  A    between atoms: C_21  and  C_22 
REMARK       I    between atoms: C_22  and  N_23 
REMARK    6  A    between atoms: N_23  and  C_24 
REMARK    7  A    between atoms: C_27  and  N_28 
REMARK       I    between atoms: N_28  and  C_29 
ROOT
HETATM    1  N   UNL     1      49.349 -30.391   1.513  1.00  0.00    -0.339 N 
HETATM    2  C   UNL     1      49.655 -29.917   0.220  1.00  0.00     0.261 C 
HETATM    3  O   UNL     1      50.844 -29.910  -0.119  1.00  0.00    -0.267 OA
ENDROOT
BRANCH   1   4
HETATM    4  C   UNL     1      50.430 -31.050   2.259  1.00  0.00     0.122 C 
HETATM    5  C   UNL     1      50.721 -30.373   3.593  1.00  0.00     0.026 C 
ENDBRANCH   1   4
BRANCH   1   6
HETATM    6  C   UNL     1      48.201 -29.943   2.314  1.00  0.00     0.229 C 
BRANCH   6   7
HETATM    7  C   UNL     1      46.914 -30.759   2.108  1.00  0.00     0.240 C 
HETATM    8  N   UNL     1      45.784 -30.131   2.598  1.00  0.00    -0.326 N 
HETATM    9  H   UNL     1      45.932 -29.195   2.958  1.00  0.00     0.169 HD
HETATM   10  O   UNL     1      46.974 -31.894   1.646  1.00  0.00    -0.271 OA
BRANCH   8  11
HETATM   11  C   UNL     1      44.489 -30.661   2.740  1.00  0.00     0.034 A 
HETATM   12  C   UNL     1      43.394 -30.268   1.975  1.00  0.00     0.032 A 
HETATM   13  C   UNL     1      42.140 -30.870   2.157  1.00  0.00     0.032 A 
HETATM   14  C   UNL     1      41.963 -31.877   3.105  1.00  0.00     0.034 A 
HETATM   15  C   UNL     1      43.063 -32.266   3.879  1.00  0.00     0.032 A 
HETATM   16  C   UNL     1      44.312 -31.662   3.701  1.00  0.00     0.032 A 
BRANCH  14  17
HETATM   17  N   UNL     1      40.743 -32.543   3.338  1.00  0.00    -0.328 N 
HETATM   18  C   UNL     1      39.784 -32.234   4.286  1.00  0.00     0.218 C 
HETATM   19  C   UNL     1      38.591 -33.160   4.243  1.00  0.00     0.117 C 
HETATM   20  O   UNL     1      39.822 -31.320   5.102  1.00  0.00    -0.274 OA
HETATM   21  H   UNL     1      40.551 -33.333   2.735  1.00  0.00     0.169 HD
ENDBRANCH  14  17
ENDBRANCH   8  11
ENDBRANCH   6   7
ENDBRANCH   1   6
BRANCH   2  22
HETATM   22  C   UNL     1      48.591 -29.572  -0.737  1.00  0.00     0.074 A 
HETATM   23  S   UNL     1      48.291 -30.738  -1.987  1.00  0.00    -0.084 SA
HETATM   24  C   UNL     1      46.929 -29.919  -2.568  1.00  0.00     0.023 A 
HETATM   25  C   UNL     1      46.728 -28.728  -1.904  1.00  0.00    -0.038 A 
HETATM   26  C   UNL     1      46.061 -30.396  -3.650  1.00  0.00    -0.012 A 
HETATM   27  C   UNL     1      45.570 -27.841  -2.253  1.00  0.00     0.044 C 
HETATM   28  C   UNL     1      47.687 -28.528  -0.860  1.00  0.00     0.033 A 
HETATM   29  C   UNL     1      45.122 -28.033  -3.716  1.00  0.00     0.044 C 
HETATM   30  C   UNL     1      45.126 -29.479  -4.182  1.00  0.00    -0.044 A 
HETATM   31  C   UNL     1      44.263 -29.887  -5.210  1.00  0.00     0.044 A 
HETATM   32  C   UNL     1      44.303 -31.194  -5.704  1.00  0.00     0.068 A 
HETATM   33  C   UNL     1      45.212 -32.102  -5.162  1.00  0.00     0.037 A 
HETATM   34  C   UNL     1      46.086 -31.705  -4.144  1.00  0.00     0.016 A 
BRANCH  32  35
HETATM   35  O   UNL     1      43.409 -31.457  -6.705  1.00  0.00    -0.356 OA
HETATM   36  C   UNL     1      43.923 -31.479  -8.031  1.00  0.00     0.210 C 
ENDBRANCH  32  35
ENDBRANCH   2  22
TORSDOF 7
ENDMDL
MODEL 10
REMARK VINA RESULT:      -7.7      7.311      9.076
REMARK  7 active torsions:
REMARK  status: ('A' for Active; 'I' for Inactive)
REMARK    1  A    between atoms: C_2  and  N_3 
REMARK       I    between atoms: N_3  and  C_4 
REMARK    2  A    between atoms: N_3  and  C_21 
REMARK    3  A    between atoms: C_4  and  C_5 
REMARK    4  A    between atoms: C_14  and  O_15 
REMARK    5  A    between atoms: C_21  and  C_22 
REMARK       I    between atoms: C_22  and  N_23 
REMARK    6  A    between atoms: N_23  and  C_24 
REMARK    7  A    between atoms: C_27  and  N_28 
REMARK       I    between atoms: N_28  and  C_29 
ROOT
HETATM    1  N   UNL     1      44.130 -10.248   8.332  1.00  0.00    -0.339 N 
HETATM    2  C   UNL     1      43.992 -10.322   9.734  1.00  0.00     0.261 C 
HETATM    3  O   UNL     1      44.859 -10.939  10.362  1.00  0.00    -0.267 OA
ENDROOT
BRANCH   1   4
HETATM    4  C   UNL     1      45.405 -10.705   7.759  1.00  0.00     0.122 C 
HETATM    5  C   UNL     1      46.472  -9.618   7.757  1.00  0.00     0.026 C 
ENDBRANCH   1   4
BRANCH   1   6
HETATM    6  C   UNL     1      43.010 -10.138   7.389  1.00  0.00     0.229 C 
BRANCH   6   7
HETATM    7  C   UNL     1      42.964 -11.234   6.311  1.00  0.00     0.240 C 
HETATM    8  N   UNL     1      42.632 -12.479   6.810  1.00  0.00    -0.326 N 
HETATM    9  H   UNL     1      42.393 -12.500   7.795  1.00  0.00     0.169 HD
HETATM   10  O   UNL     1      43.305 -10.978   5.160  1.00  0.00    -0.271 OA
BRANCH   8  11
HETATM   11  C   UNL     1      42.677 -13.720   6.149  1.00  0.00     0.034 A 
HETATM   12  C   UNL     1      41.748 -14.133   5.196  1.00  0.00     0.032 A 
HETATM   13  C   UNL     1      41.882 -15.374   4.557  1.00  0.00     0.032 A 
HETATM   14  C   UNL     1      42.948 -16.221   4.859  1.00  0.00     0.034 A 
HETATM   15  C   UNL     1      43.875 -15.809   5.823  1.00  0.00     0.032 A 
HETATM   16  C   UNL     1      43.739 -14.572   6.464  1.00  0.00     0.032 A 
BRANCH  14  17
HETATM   17  N   UNL     1      43.163 -17.475   4.252  1.00  0.00    -0.328 N 
HETATM   18  C   UNL     1      43.357 -17.736   2.908  1.00  0.00     0.218 C 
HETATM   19  C   UNL     1      43.569 -19.202   2.616  1.00  0.00     0.117 C 
HETATM   20  O   UNL     1      43.376 -16.918   1.994  1.00  0.00    -0.274 OA
HETATM   21  H   UNL     1      43.182 -18.269   4.880  1.00  0.00     0.169 HD
ENDBRANCH  14  17
ENDBRANCH   8  11
ENDBRANCH   6   7
ENDBRANCH   1   6
BRANCH   2  22
HETATM   22  C   UNL     1      42.932  -9.579  10.434  1.00  0.00     0.074 A 
HETATM   23  S   UNL     1      42.977  -9.651  12.168  1.00  0.00    -0.084 SA
HETATM   24  C   UNL     1      41.736  -8.515  12.351  1.00  0.00     0.023 A 
HETATM   25  C   UNL     1      41.211  -8.132  11.136  1.00  0.00    -0.038 A 
HETATM   26  C   UNL     1      41.257  -7.996  13.637  1.00  0.00    -0.012 A 
HETATM   27  C   UNL     1      40.102  -7.125  11.063  1.00  0.00     0.044 C 
HETATM   28  C   UNL     1      41.893  -8.749  10.040  1.00  0.00     0.033 A 
HETATM   29  C   UNL     1      39.249  -7.118  12.346  1.00  0.00     0.044 C 
HETATM   30  C   UNL     1      40.053  -7.255  13.628  1.00  0.00    -0.044 A 
HETATM   31  C   UNL     1      39.556  -6.724  14.828  1.00  0.00     0.044 A 
HETATM   32  C   UNL     1      40.246  -6.904  16.031  1.00  0.00     0.068 A 
HETATM   33  C   UNL     1      41.443  -7.618  16.033  1.00  0.00     0.037 A 
HETATM   34  C   UNL     1      41.944  -8.161  14.845  1.00  0.00     0.016 A 
BRANCH  32  35
HETATM   35  O   UNL     1      39.651  -6.336  17.124  1.00  0.00    -0.356 OA
HETATM   36  C   UNL     1      40.226  -6.634  18.391  1.00  0.00     0.210 C 
ENDBRANCH  32  35
ENDBRANCH   2  22
TORSDOF 7
ENDMDL
