MODEL 1
REMARK VINA RESULT:      -9.2      0.000      0.000
REMARK  6 active torsions:
REMARK  status: ('A' for Active; 'I' for Inactive)
REMARK    1  A    between atoms: O_2  and  C_3 
REMARK    2  A    between atoms: C_5  and  N_6 
REMARK    3  A    between atoms: C_7  and  O_8 
REMARK    4  A    between atoms: C_7  and  C_9 
REMARK       I    between atoms: C_9  and  N_10 
REMARK    5  A    between atoms: N_10  and  C_11 
REMARK    6  A    between atoms: C_11  and  C_12 
ROOT
HETATM    1  N   UNL     1      40.472 -12.728   1.767  1.00  0.00    -0.254 N 
HETATM    2  C   UNL     1      40.357 -13.918   2.629  1.00  0.00     0.256 C 
HETATM    3  C   UNL     1      40.992 -13.740   3.995  1.00  0.00     0.034 A 
HETATM    4  C   UNL     1      42.001 -12.800   4.132  1.00  0.00     0.048 A 
HETATM    5  N   UNL     1      42.313 -11.999   3.046  1.00  0.00    -0.308 N 
HETATM    6  C   UNL     1      41.589 -11.908   1.895  1.00  0.00     0.330 C 
HETATM    7  O   UNL     1      42.009 -11.128   1.041  1.00  0.00    -0.246 OA
HETATM    8  C   UNL     1      40.679 -14.552   5.100  1.00  0.00     0.015 A 
HETATM    9  C   UNL     1      41.363 -14.403   6.308  1.00  0.00     0.001 A 
HETATM   10  C   UNL     1      42.378 -13.456   6.421  1.00  0.00     0.002 A 
HETATM   11  C   UNL     1      42.705 -12.654   5.329  1.00  0.00     0.030 A 
HETATM   12  H   UNL     1      43.070 -11.329   3.112  1.00  0.00     0.170 HD
ENDROOT
BRANCH   2  13
HETATM   13  O   UNL     1      38.971 -14.171   2.891  1.00  0.00    -0.359 OA
HETATM   14  H   UNL     1      38.811 -15.073   2.553  1.00  0.00     0.213 HD
ENDBRANCH   2  13
BRANCH   2  15
HETATM   15  C   UNL     1      41.020 -15.179   1.933  1.00  0.00     0.279 C 
HETATM   16  N   UNL     1      42.386 -15.317   2.043  1.00  0.00    -0.352 N 
HETATM   17  H   UNL     1      42.936 -14.513   2.318  1.00  0.00     0.162 HD
HETATM   18  O   UNL     1      40.312 -16.031   1.386  1.00  0.00    -0.268 OA
BRANCH  16  19
HETATM   19  C   UNL     1      43.085 -16.421   1.434  1.00  0.00     0.161 C 
BRANCH  19  20
HETATM   20  C   UNL     1      43.354 -17.495   2.454  1.00  0.00    -0.040 A 
HETATM   21  C   UNL     1      43.592 -17.153   3.794  1.00  0.00     0.010 A 
HETATM   22  C   UNL     1      43.878 -18.142   4.738  1.00  0.00     0.024 A 
HETATM   23  C   UNL     1      43.935 -19.478   4.344  1.00  0.00     0.034 A 
HETATM   24 CL   UNL     1      44.290 -20.696   5.506  1.00  0.00    -0.084 Cl
HETATM   25  C   UNL     1      43.714 -19.831   3.015  1.00  0.00     0.024 A 
HETATM   26  C   UNL     1      43.427 -18.842   2.072  1.00  0.00     0.010 A 
ENDBRANCH  19  20
ENDBRANCH  16  19
ENDBRANCH   2  15
BRANCH   1  27
HETATM   27  C   UNL     1      39.558 -12.532   0.660  1.00  0.00     0.045 A 
HETATM   28  C   UNL     1      39.757 -13.211  -0.558  1.00  0.00     0.066 A 
HETATM   29  C   UNL     1      38.911 -13.035  -1.661  1.00  0.00     0.070 A 
HETATM   30  C   UNL     1      37.838 -12.156  -1.567  1.00  0.00     0.037 A 
HETATM   31  C   UNL     1      37.620 -11.464  -0.378  1.00  0.00     0.005 A 
HETATM   32  C   UNL     1      38.471 -11.647   0.719  1.00  0.00     0.030 A 
BRANCH  29  33
HETATM   33  O   UNL     1      39.254 -13.766  -2.766  1.00  0.00    -0.356 OA
HETATM   34  C   UNL     1      38.241 -14.578  -3.344  1.00  0.00     0.210 C 
ENDBRANCH  29  33
ENDBRANCH   1  27
TORSDOF 6
ENDMDL
MODEL 2
REMARK VINA RESULT:      -8.8      1.082      1.846
REMARK  6 active torsions:
REMARK  status: ('A' for Active; 'I' for Inactive)
REMARK    1  A    between atoms: O_2  and  C_3 
REMARK    2  A    between atoms: C_5  and  N_6 
REMARK    3  A    between atoms: C_7  and  O_8 
REMARK    4  A    between atoms: C_7  and  C_9 
REMARK       I    between atoms: C_9  and  N_10 
REMARK    5  A    between atoms: N_10  and  C_11 
REMARK    6  A    between atoms: C_11  and  C_12 
ROOT
HETATM    1  N   UNL     1      40.499 -12.593   1.985  1.00  0.00    -0.254 N 
HETATM    2  C   UNL     1      40.379 -13.830   2.776  1.00  0.00     0.256 C 
HETATM    3  C   UNL     1      41.044 -13.746   4.138  1.00  0.00     0.034 A 
HETATM    4  C   UNL     1      42.072 -12.833   4.310  1.00  0.00     0.048 A 
HETATM    5  N   UNL     1      42.378 -11.974   3.268  1.00  0.00    -0.308 N 
HETATM    6  C   UNL     1      41.634 -11.801   2.139  1.00  0.00     0.330 C 
HETATM    7  O   UNL     1      42.052 -10.978   1.325  1.00  0.00    -0.246 OA
HETATM    8  C   UNL     1      40.736 -14.617   5.198  1.00  0.00     0.015 A 
HETATM    9  C   UNL     1      41.446 -14.553   6.399  1.00  0.00     0.001 A 
HETATM   10  C   UNL     1      42.480 -13.632   6.548  1.00  0.00     0.002 A 
HETATM   11  C   UNL     1      42.801 -12.772   5.500  1.00  0.00     0.030 A 
HETATM   12  H   UNL     1      43.148 -11.322   3.359  1.00  0.00     0.170 HD
ENDROOT
BRANCH   2  13
HETATM   13  O   UNL     1      38.994 -14.075   3.051  1.00  0.00    -0.359 OA
HETATM   14  H   UNL     1      38.509 -13.557   2.379  1.00  0.00     0.213 HD
ENDBRANCH   2  13
BRANCH   2  15
HETATM   15  C   UNL     1      41.006 -15.058   1.993  1.00  0.00     0.279 C 
HETATM   16  N   UNL     1      42.342 -15.324   2.197  1.00  0.00    -0.352 N 
HETATM   17  H   UNL     1      42.924 -14.604   2.608  1.00  0.00     0.162 HD
HETATM   18  O   UNL     1      40.288 -15.781   1.294  1.00  0.00    -0.268 OA
BRANCH  16  19
HETATM   19  C   UNL     1      43.009 -16.408   1.521  1.00  0.00     0.161 C 
BRANCH  19  20
HETATM   20  C   UNL     1      43.322 -17.514   2.493  1.00  0.00    -0.040 A 
HETATM   21  C   UNL     1      43.620 -17.215   3.831  1.00  0.00     0.010 A 
HETATM   22  C   UNL     1      43.948 -18.233   4.729  1.00  0.00     0.024 A 
HETATM   23  C   UNL     1      43.988 -19.555   4.291  1.00  0.00     0.034 A 
HETATM   24 CL   UNL     1      44.394 -20.810   5.396  1.00  0.00    -0.084 Cl
HETATM   25  C   UNL     1      43.707 -19.866   2.962  1.00  0.00     0.024 A 
HETATM   26  C   UNL     1      43.379 -18.848   2.065  1.00  0.00     0.010 A 
ENDBRANCH  19  20
ENDBRANCH  16  19
ENDBRANCH   2  15
BRANCH   1  27
HETATM   27  C   UNL     1      39.568 -12.315   0.910  1.00  0.00     0.045 A 
HETATM   28  C   UNL     1      38.443 -11.499   1.135  1.00  0.00     0.066 A 
HETATM   29  C   UNL     1      37.506 -11.222   0.130  1.00  0.00     0.070 A 
HETATM   30  C   UNL     1      37.677 -11.771  -1.135  1.00  0.00     0.037 A 
HETATM   31  C   UNL     1      38.775 -12.590  -1.385  1.00  0.00     0.005 A 
HETATM   32  C   UNL     1      39.707 -12.860  -0.375  1.00  0.00     0.030 A 
BRANCH  29  33
HETATM   33  O   UNL     1      36.470 -10.417   0.523  1.00  0.00    -0.356 OA
HETATM   34  C   UNL     1      36.805  -9.123   1.007  1.00  0.00     0.210 C 
ENDBRANCH  29  33
ENDBRANCH   1  27
TORSDOF 6
ENDMDL
MODEL 3
REMARK VINA RESULT:      -8.5      3.433      7.089
REMARK  6 active torsions:
REMARK  status: ('A' for Active; 'I' for Inactive)
REMARK    1  A    between atoms: O_2  and  C_3 
REMARK    2  A    between atoms: C_5  and  N_6 
REMARK    3  A    between atoms: C_7  and  O_8 
REMARK    4  A    between atoms: C_7  and  C_9 
REMARK       I    between atoms: C_9  and  N_10 
REMARK    5  A    between atoms: N_10  and  C_11 
REMARK    6  A    between atoms: C_11  and  C_12 
ROOT
HETATM    1  N   UNL     1      41.519 -15.131   4.574  1.00  0.00    -0.254 N 
HETATM    2  C   UNL     1      41.330 -14.100   3.538  1.00  0.00     0.256 C 
HETATM    3  C   UNL     1      40.697 -12.824   4.062  1.00  0.00     0.034 A 
HETATM    4  C   UNL     1      39.920 -12.900   5.208  1.00  0.00     0.048 A 
HETATM    5  N   UNL     1      39.839 -14.110   5.875  1.00  0.00    -0.308 N 
HETATM    6  C   UNL     1      40.610 -15.206   5.625  1.00  0.00     0.330 C 
HETATM    7  O   UNL     1      40.410 -16.193   6.333  1.00  0.00    -0.246 OA
HETATM    8  C   UNL     1      40.777 -11.593   3.387  1.00  0.00     0.015 A 
HETATM    9  C   UNL     1      40.096 -10.473   3.868  1.00  0.00     0.001 A 
HETATM   10  C   UNL     1      39.315 -10.574   5.018  1.00  0.00     0.002 A 
HETATM   11  C   UNL     1      39.221 -11.791   5.689  1.00  0.00     0.030 A 
HETATM   12  H   UNL     1      39.250 -14.198   6.695  1.00  0.00     0.170 HD
ENDROOT
BRANCH   2  13
HETATM   13  O   UNL     1      42.612 -13.702   3.037  1.00  0.00    -0.359 OA
HETATM   14  H   UNL     1      43.168 -13.585   3.832  1.00  0.00     0.213 HD
ENDBRANCH   2  13
BRANCH   2  15
HETATM   15  C   UNL     1      40.428 -14.652   2.357  1.00  0.00     0.279 C 
HETATM   16  N   UNL     1      40.857 -14.414   1.069  1.00  0.00    -0.352 N 
HETATM   17  H   UNL     1      41.554 -13.697   0.914  1.00  0.00     0.162 HD
HETATM   18  O   UNL     1      39.428 -15.334   2.605  1.00  0.00    -0.268 OA
BRANCH  16  19
HETATM   19  C   UNL     1      40.100 -14.862  -0.073  1.00  0.00     0.161 C 
BRANCH  19  20
HETATM   20  C   UNL     1      39.743 -13.694  -0.953  1.00  0.00    -0.040 A 
HETATM   21  C   UNL     1      40.116 -13.688  -2.305  1.00  0.00     0.010 A 
HETATM   22  C   UNL     1      39.820 -12.591  -3.118  1.00  0.00     0.024 A 
HETATM   23  C   UNL     1      39.156 -11.491  -2.579  1.00  0.00     0.034 A 
HETATM   24 CL   UNL     1      38.793 -10.139  -3.578  1.00  0.00    -0.084 Cl
HETATM   25  C   UNL     1      38.791 -11.477  -1.235  1.00  0.00     0.024 A 
HETATM   26  C   UNL     1      39.087 -12.574  -0.423  1.00  0.00     0.010 A 
ENDBRANCH  19  20
ENDBRANCH  16  19
ENDBRANCH   2  15
BRANCH   1  27
HETATM   27  C   UNL     1      42.497 -16.185   4.391  1.00  0.00     0.045 A 
HETATM   28  C   UNL     1      42.363 -17.105   3.334  1.00  0.00     0.066 A 
HETATM   29  C   UNL     1      43.273 -18.153   3.132  1.00  0.00     0.070 A 
HETATM   30  C   UNL     1      44.344 -18.305   4.004  1.00  0.00     0.037 A 
HETATM   31  C   UNL     1      44.498 -17.415   5.065  1.00  0.00     0.005 A 
HETATM   32  C   UNL     1      43.584 -16.371   5.257  1.00  0.00     0.030 A 
BRANCH  29  33
HETATM   33  O   UNL     1      42.989 -18.958   2.061  1.00  0.00    -0.356 OA
HETATM   34  C   UNL     1      43.512 -20.279   2.089  1.00  0.00     0.210 C 
ENDBRANCH  29  33
ENDBRANCH   1  27
TORSDOF 6
ENDMDL
MODEL 4
REMARK VINA RESULT:      -8.5      3.422      7.337
REMARK  6 active torsions:
REMARK  status: ('A' for Active; 'I' for Inactive)
REMARK    1  A    between atoms: O_2  and  C_3 
REMARK    2  A    between atoms: C_5  and  N_6 
REMARK    3  A    between atoms: C_7  and  O_8 
REMARK    4  A    between atoms: C_7  and  C_9 
REMARK       I    between atoms: C_9  and  N_10 
REMARK    5  A    between atoms: N_10  and  C_11 
REMARK    6  A    between atoms: C_11  and  C_12 
ROOT
HETATM    1  N   UNL     1      42.717 -12.457   4.612  1.00  0.00    -0.254 N 
HETATM    2  C   UNL     1      41.644 -13.452   4.433  1.00  0.00     0.256 C 
HETATM    3  C   UNL     1      42.056 -14.641   3.585  1.00  0.00     0.034 A 
HETATM    4  C   UNL     1      43.094 -14.474   2.680  1.00  0.00     0.048 A 
HETATM    5  N   UNL     1      43.770 -13.266   2.663  1.00  0.00    -0.308 N 
HETATM    6  C   UNL     1      43.644 -12.274   3.590  1.00  0.00     0.330 C 
HETATM    7  O   UNL     1      44.341 -11.273   3.423  1.00  0.00    -0.246 OA
HETATM    8  C   UNL     1      41.371 -15.869   3.599  1.00  0.00     0.015 A 
HETATM    9  C   UNL     1      41.737 -16.898   2.728  1.00  0.00     0.001 A 
HETATM   10  C   UNL     1      42.779 -16.706   1.823  1.00  0.00     0.002 A 
HETATM   11  C   UNL     1      43.457 -15.489   1.793  1.00  0.00     0.030 A 
HETATM   12  H   UNL     1      44.508 -13.109   1.988  1.00  0.00     0.170 HD
ENDROOT
BRANCH   2  13
HETATM   13  O   UNL     1      41.304 -14.005   5.711  1.00  0.00    -0.359 OA
HETATM   14  H   UNL     1      40.731 -13.334   6.130  1.00  0.00     0.213 HD
ENDBRANCH   2  13
BRANCH   2  15
HETATM   15  C   UNL     1      40.368 -12.786   3.768  1.00  0.00     0.279 C 
HETATM   16  N   UNL     1      40.453 -12.448   2.436  1.00  0.00    -0.352 N 
HETATM   17  H   UNL     1      41.367 -12.386   2.006  1.00  0.00     0.162 HD
HETATM   18  O   UNL     1      39.325 -12.657   4.418  1.00  0.00    -0.268 OA
BRANCH  16  19
HETATM   19  C   UNL     1      39.352 -11.824   1.744  1.00  0.00     0.161 C 
BRANCH  19  20
HETATM   20  C   UNL     1      39.116 -12.504   0.421  1.00  0.00    -0.040 A 
HETATM   21  C   UNL     1      38.167 -11.990  -0.476  1.00  0.00     0.010 A 
HETATM   22  C   UNL     1      37.917 -12.637  -1.689  1.00  0.00     0.024 A 
HETATM   23  C   UNL     1      38.607 -13.805  -2.006  1.00  0.00     0.034 A 
HETATM   24 CL   UNL     1      38.296 -14.604  -3.497  1.00  0.00    -0.084 Cl
HETATM   25  C   UNL     1      39.542 -14.334  -1.118  1.00  0.00     0.024 A 
HETATM   26  C   UNL     1      39.793 -13.687   0.094  1.00  0.00     0.010 A 
ENDBRANCH  19  20
ENDBRANCH  16  19
ENDBRANCH   2  15
BRANCH   1  27
HETATM   27  C   UNL     1      42.683 -11.533   5.727  1.00  0.00     0.045 A 
HETATM   28  C   UNL     1      43.566 -11.694   6.812  1.00  0.00     0.066 A 
HETATM   29  C   UNL     1      43.554 -10.837   7.922  1.00  0.00     0.070 A 
HETATM   30  C   UNL     1      42.638  -9.792   7.969  1.00  0.00     0.037 A 
HETATM   31  C   UNL     1      41.746  -9.614   6.914  1.00  0.00     0.005 A 
HETATM   32  C   UNL     1      41.767 -10.474   5.809  1.00  0.00     0.030 A 
BRANCH  29  33
HETATM   33  O   UNL     1      44.474 -11.142   8.889  1.00  0.00    -0.356 OA
HETATM   34  C   UNL     1      45.208 -10.060   9.446  1.00  0.00     0.210 C 
ENDBRANCH  29  33
ENDBRANCH   1  27
TORSDOF 6
ENDMDL
MODEL 5
REMARK VINA RESULT:      -8.5      1.163      1.282
REMARK  6 active torsions:
REMARK  status: ('A' for Active; 'I' for Inactive)
REMARK    1  A    between atoms: O_2  and  C_3 
REMARK    2  A    between atoms: C_5  and  N_6 
REMARK    3  A    between atoms: C_7  and  O_8 
REMARK    4  A    between atoms: C_7  and  C_9 
REMARK       I    between atoms: C_9  and  N_10 
REMARK    5  A    between atoms: N_10  and  C_11 
REMARK    6  A    between atoms: C_11  and  C_12 
ROOT
HETATM    1  N   UNL     1      40.267 -11.850   0.921  1.00  0.00    -0.254 N 
HETATM    2  C   UNL     1      40.204 -12.885   1.968  1.00  0.00     0.256 C 
HETATM    3  C   UNL     1      40.829 -12.455   3.283  1.00  0.00     0.034 A 
HETATM    4  C   UNL     1      41.794 -11.461   3.257  1.00  0.00     0.048 A 
HETATM    5  N   UNL     1      42.071 -10.837   2.052  1.00  0.00    -0.308 N 
HETATM    6  C   UNL     1      41.345 -10.970   0.906  1.00  0.00     0.330 C 
HETATM    7  O   UNL     1      41.731 -10.323  -0.068  1.00  0.00    -0.246 OA
HETATM    8  C   UNL     1      40.550 -13.087   4.508  1.00  0.00     0.015 A 
HETATM    9  C   UNL     1      41.225 -12.710   5.671  1.00  0.00     0.001 A 
HETATM   10  C   UNL     1      42.196 -11.713   5.620  1.00  0.00     0.002 A 
HETATM   11  C   UNL     1      42.488 -11.088   4.409  1.00  0.00     0.030 A 
HETATM   12  H   UNL     1      42.796 -10.132   2.002  1.00  0.00     0.170 HD
ENDROOT
BRANCH   2  13
HETATM   13  O   UNL     1      38.831 -13.153   2.276  1.00  0.00    -0.359 OA
HETATM   14  H   UNL     1      38.774 -14.126   2.349  1.00  0.00     0.213 HD
ENDBRANCH   2  13
BRANCH   2  15
HETATM   15  C   UNL     1      40.925 -14.212   1.486  1.00  0.00     0.279 C 
HETATM   16  N   UNL     1      42.281 -14.312   1.707  1.00  0.00    -0.352 N 
HETATM   17  H   UNL     1      42.804 -13.470   1.914  1.00  0.00     0.162 HD
HETATM   18  O   UNL     1      40.265 -15.139   1.004  1.00  0.00    -0.268 OA
BRANCH  16  19
HETATM   19  C   UNL     1      43.031 -15.471   1.293  1.00  0.00     0.161 C 
BRANCH  19  20
HETATM   20  C   UNL     1      43.195 -16.426   2.446  1.00  0.00    -0.040 A 
HETATM   21  C   UNL     1      43.191 -15.946   3.765  1.00  0.00     0.010 A 
HETATM   22  C   UNL     1      43.379 -16.821   4.838  1.00  0.00     0.024 A 
HETATM   23  C   UNL     1      43.581 -18.178   4.596  1.00  0.00     0.034 A 
HETATM   24 CL   UNL     1      43.816 -19.256   5.916  1.00  0.00    -0.084 Cl
HETATM   25  C   UNL     1      43.600 -18.667   3.291  1.00  0.00     0.024 A 
HETATM   26  C   UNL     1      43.411 -17.792   2.219  1.00  0.00     0.010 A 
ENDBRANCH  19  20
ENDBRANCH  16  19
ENDBRANCH   2  15
BRANCH   1  27
HETATM   27  C   UNL     1      39.347 -11.880  -0.198  1.00  0.00     0.045 A 
HETATM   28  C   UNL     1      39.588 -12.728  -1.296  1.00  0.00     0.066 A 
HETATM   29  C   UNL     1      38.737 -12.774  -2.409  1.00  0.00     0.070 A 
HETATM   30  C   UNL     1      37.616 -11.953  -2.446  1.00  0.00     0.037 A 
HETATM   31  C   UNL     1      37.355 -11.098  -1.379  1.00  0.00     0.005 A 
HETATM   32  C   UNL     1      38.211 -11.060  -0.271  1.00  0.00     0.030 A 
BRANCH  29  33
HETATM   33  O   UNL     1      39.125 -13.648  -3.389  1.00  0.00    -0.356 OA
HETATM   34  C   UNL     1      38.253 -14.736  -3.667  1.00  0.00     0.210 C 
ENDBRANCH  29  33
ENDBRANCH   1  27
TORSDOF 6
ENDMDL
MODEL 6
REMARK VINA RESULT:      -8.4      2.788      4.924
REMARK  6 active torsions:
REMARK  status: ('A' for Active; 'I' for Inactive)
REMARK    1  A    between atoms: O_2  and  C_3 
REMARK    2  A    between atoms: C_5  and  N_6 
REMARK    3  A    between atoms: C_7  and  O_8 
REMARK    4  A    between atoms: C_7  and  C_9 
REMARK       I    between atoms: C_9  and  N_10 
REMARK    5  A    between atoms: N_10  and  C_11 
REMARK    6  A    between atoms: C_11  and  C_12 
ROOT
HETATM    1  N   UNL     1      40.795 -14.279   1.900  1.00  0.00    -0.254 N 
HETATM    2  C   UNL     1      42.108 -14.854   2.243  1.00  0.00     0.256 C 
HETATM    3  C   UNL     1      42.088 -15.702   3.501  1.00  0.00     0.034 A 
HETATM    4  C   UNL     1      41.098 -15.459   4.441  1.00  0.00     0.048 A 
HETATM    5  N   UNL     1      40.118 -14.527   4.145  1.00  0.00    -0.308 N 
HETATM    6  C   UNL     1      39.913 -13.952   2.926  1.00  0.00     0.330 C 
HETATM    7  O   UNL     1      38.979 -13.155   2.844  1.00  0.00    -0.246 OA
HETATM    8  C   UNL     1      43.082 -16.649   3.805  1.00  0.00     0.015 A 
HETATM    9  C   UNL     1      43.063 -17.333   5.022  1.00  0.00     0.001 A 
HETATM   10  C   UNL     1      42.063 -17.068   5.955  1.00  0.00     0.002 A 
HETATM   11  C   UNL     1      41.079 -16.124   5.668  1.00  0.00     0.030 A 
HETATM   12  H   UNL     1      39.405 -14.307   4.831  1.00  0.00     0.170 HD
ENDROOT
BRANCH   2  13
HETATM   13  O   UNL     1      42.513 -15.747   1.197  1.00  0.00    -0.359 OA
HETATM   14  H   UNL     1      41.795 -15.703   0.537  1.00  0.00     0.213 HD
ENDBRANCH   2  13
BRANCH   2  15
HETATM   15  C   UNL     1      43.187 -13.708   2.433  1.00  0.00     0.279 C 
HETATM   16  N   UNL     1      42.943 -12.763   3.405  1.00  0.00    -0.352 N 
HETATM   17  H   UNL     1      42.003 -12.672   3.769  1.00  0.00     0.162 HD
HETATM   18  O   UNL     1      44.235 -13.727   1.777  1.00  0.00    -0.268 OA
BRANCH  16  19
HETATM   19  C   UNL     1      43.856 -11.674   3.645  1.00  0.00     0.161 C 
BRANCH  19  20
HETATM   20  C   UNL     1      43.910 -11.353   5.115  1.00  0.00    -0.040 A 
HETATM   21  C   UNL     1      45.061 -11.652   5.861  1.00  0.00     0.010 A 
HETATM   22  C   UNL     1      45.103 -11.391   7.232  1.00  0.00     0.024 A 
HETATM   23  C   UNL     1      43.992 -10.838   7.866  1.00  0.00     0.034 A 
HETATM   24 CL   UNL     1      44.044 -10.519   9.556  1.00  0.00    -0.084 Cl
HETATM   25  C   UNL     1      42.838 -10.549   7.141  1.00  0.00     0.024 A 
HETATM   26  C   UNL     1      42.796 -10.809   5.770  1.00  0.00     0.010 A 
ENDBRANCH  19  20
ENDBRANCH  16  19
ENDBRANCH   2  15
BRANCH   1  27
HETATM   27  C   UNL     1      40.509 -13.858   0.543  1.00  0.00     0.045 A 
HETATM   28  C   UNL     1      39.763 -14.685  -0.317  1.00  0.00     0.066 A 
HETATM   29  C   UNL     1      39.481 -14.327  -1.643  1.00  0.00     0.070 A 
HETATM   30  C   UNL     1      39.956 -13.119  -2.141  1.00  0.00     0.037 A 
HETATM   31  C   UNL     1      40.705 -12.284  -1.315  1.00  0.00     0.005 A 
HETATM   32  C   UNL     1      40.980 -12.650   0.008  1.00  0.00     0.030 A 
BRANCH  29  33
HETATM   33  O   UNL     1      38.750 -15.251  -2.341  1.00  0.00    -0.356 OA
HETATM   34  C   UNL     1      38.212 -14.839  -3.591  1.00  0.00     0.210 C 
ENDBRANCH  29  33
ENDBRANCH   1  27
TORSDOF 6
ENDMDL
MODEL 7
REMARK VINA RESULT:      -8.4      2.230      2.967
REMARK  6 active torsions:
REMARK  status: ('A' for Active; 'I' for Inactive)
REMARK    1  A    between atoms: O_2  and  C_3 
REMARK    2  A    between atoms: C_5  and  N_6 
REMARK    3  A    between atoms: C_7  and  O_8 
REMARK    4  A    between atoms: C_7  and  C_9 
REMARK       I    between atoms: C_9  and  N_10 
REMARK    5  A    between atoms: N_10  and  C_11 
REMARK    6  A    between atoms: C_11  and  C_12 
ROOT
HETATM    1  N   UNL     1      40.982 -11.819   2.572  1.00  0.00    -0.254 N 
HETATM    2  C   UNL     1      40.895 -12.254   3.977  1.00  0.00     0.256 C 
HETATM    3  C   UNL     1      40.763 -11.106   4.961  1.00  0.00     0.034 A 
HETATM    4  C   UNL     1      41.237  -9.860   4.581  1.00  0.00     0.048 A 
HETATM    5  N   UNL     1      41.714  -9.696   3.292  1.00  0.00    -0.308 N 
HETATM    6  C   UNL     1      41.588 -10.601   2.279  1.00  0.00     0.330 C 
HETATM    7  O   UNL     1      42.061 -10.277   1.190  1.00  0.00    -0.246 OA
HETATM    8  C   UNL     1      40.280 -11.269   6.271  1.00  0.00     0.015 A 
HETATM    9  C   UNL     1      40.268 -10.194   7.163  1.00  0.00     0.001 A 
HETATM   10  C   UNL     1      40.755  -8.952   6.762  1.00  0.00     0.002 A 
HETATM   11  C   UNL     1      41.247  -8.783   5.469  1.00  0.00     0.030 A 
HETATM   12  H   UNL     1      42.097  -8.804   3.003  1.00  0.00     0.170 HD
ENDROOT
BRANCH   2  13
HETATM   13  O   UNL     1      39.705 -13.034   4.151  1.00  0.00    -0.359 OA
HETATM   14  H   UNL     1      39.490 -13.366   3.258  1.00  0.00     0.213 HD
ENDBRANCH   2  13
BRANCH   2  15
HETATM   15  C   UNL     1      42.170 -13.108   4.377  1.00  0.00     0.279 C 
HETATM   16  N   UNL     1      41.953 -14.359   4.910  1.00  0.00    -0.352 N 
HETATM   17  H   UNL     1      41.032 -14.583   5.266  1.00  0.00     0.162 HD
HETATM   18  O   UNL     1      43.304 -12.679   4.140  1.00  0.00    -0.268 OA
BRANCH  16  19
HETATM   19  C   UNL     1      43.045 -15.206   5.319  1.00  0.00     0.161 C 
BRANCH  19  20
HETATM   20  C   UNL     1      43.112 -16.430   4.444  1.00  0.00    -0.040 A 
HETATM   21  C   UNL     1      44.043 -17.443   4.719  1.00  0.00     0.010 A 
HETATM   22  C   UNL     1      44.135 -18.564   3.890  1.00  0.00     0.024 A 
HETATM   23  C   UNL     1      43.302 -18.672   2.777  1.00  0.00     0.034 A 
HETATM   24 CL   UNL     1      43.418 -20.050   1.754  1.00  0.00    -0.084 Cl
HETATM   25  C   UNL     1      42.383 -17.667   2.485  1.00  0.00     0.024 A 
HETATM   26  C   UNL     1      42.291 -16.547   3.314  1.00  0.00     0.010 A 
ENDBRANCH  19  20
ENDBRANCH  16  19
ENDBRANCH   2  15
BRANCH   1  27
HETATM   27  C   UNL     1      40.644 -12.731   1.497  1.00  0.00     0.045 A 
HETATM   28  C   UNL     1      39.603 -12.421   0.601  1.00  0.00     0.066 A 
HETATM   29  C   UNL     1      39.228 -13.284  -0.438  1.00  0.00     0.070 A 
HETATM   30  C   UNL     1      39.894 -14.494  -0.596  1.00  0.00     0.037 A 
HETATM   31  C   UNL     1      40.921 -14.831   0.281  1.00  0.00     0.005 A 
HETATM   32  C   UNL     1      41.289 -13.962   1.316  1.00  0.00     0.030 A 
BRANCH  29  33
HETATM   33  O   UNL     1      38.193 -12.830  -1.212  1.00  0.00    -0.356 OA
HETATM   34  C   UNL     1      37.944 -13.522  -2.428  1.00  0.00     0.210 C 
ENDBRANCH  29  33
ENDBRANCH   1  27
TORSDOF 6
ENDMDL
MODEL 8
REMARK VINA RESULT:      -8.4      4.543      8.323
REMARK  6 active torsions:
REMARK  status: ('A' for Active; 'I' for Inactive)
REMARK    1  A    between atoms: O_2  and  C_3 
REMARK    2  A    between atoms: C_5  and  N_6 
REMARK    3  A    between atoms: C_7  and  O_8 
REMARK    4  A    between atoms: C_7  and  C_9 
REMARK       I    between atoms: C_9  and  N_10 
REMARK    5  A    between atoms: N_10  and  C_11 
REMARK    6  A    between atoms: C_11  and  C_12 
ROOT
HETATM    1  N   UNL     1      43.629 -12.682   5.003  1.00  0.00    -0.254 N 
HETATM    2  C   UNL     1      43.001 -13.981   5.304  1.00  0.00     0.256 C 
HETATM    3  C   UNL     1      43.053 -14.961   4.147  1.00  0.00     0.034 A 
HETATM    4  C   UNL     1      43.168 -14.454   2.862  1.00  0.00     0.048 A 
HETATM    5  N   UNL     1      43.330 -13.089   2.701  1.00  0.00    -0.308 N 
HETATM    6  C   UNL     1      43.585 -12.197   3.700  1.00  0.00     0.330 C 
HETATM    7  O   UNL     1      43.718 -11.020   3.366  1.00  0.00    -0.246 OA
HETATM    8  C   UNL     1      42.887 -16.348   4.308  1.00  0.00     0.015 A 
HETATM    9  C   UNL     1      42.851 -17.193   3.196  1.00  0.00     0.001 A 
HETATM   10  C   UNL     1      42.962 -16.661   1.914  1.00  0.00     0.002 A 
HETATM   11  C   UNL     1      43.115 -15.286   1.743  1.00  0.00     0.030 A 
HETATM   12  H   UNL     1      43.382 -12.692   1.770  1.00  0.00     0.170 HD
ENDROOT
BRANCH   2  13
HETATM   13  O   UNL     1      43.727 -14.615   6.365  1.00  0.00    -0.359 OA
HETATM   14  H   UNL     1      43.495 -15.561   6.298  1.00  0.00     0.213 HD
ENDBRANCH   2  13
BRANCH   2  15
HETATM   15  C   UNL     1      41.484 -13.785   5.722  1.00  0.00     0.279 C 
HETATM   16  N   UNL     1      40.742 -12.874   5.003  1.00  0.00    -0.352 N 
HETATM   17  H   UNL     1      41.228 -12.191   4.434  1.00  0.00     0.162 HD
HETATM   18  O   UNL     1      40.988 -14.488   6.608  1.00  0.00    -0.268 OA
BRANCH  16  19
HETATM   19  C   UNL     1      39.359 -12.613   5.313  1.00  0.00     0.161 C 
BRANCH  19  20
HETATM   20  C   UNL     1      39.166 -11.159   5.652  1.00  0.00    -0.040 A 
HETATM   21  C   UNL     1      38.722 -10.259   4.671  1.00  0.00     0.010 A 
HETATM   22  C   UNL     1      38.576  -8.902   4.969  1.00  0.00     0.024 A 
HETATM   23  C   UNL     1      38.881  -8.437   6.246  1.00  0.00     0.034 A 
HETATM   24 CL   UNL     1      38.704  -6.766   6.613  1.00  0.00    -0.084 Cl
HETATM   25  C   UNL     1      39.335  -9.317   7.227  1.00  0.00     0.024 A 
HETATM   26  C   UNL     1      39.481 -10.674   6.929  1.00  0.00     0.010 A 
ENDBRANCH  19  20
ENDBRANCH  16  19
ENDBRANCH   2  15
BRANCH   1  27
HETATM   27  C   UNL     1      44.090 -11.823   6.076  1.00  0.00     0.045 A 
HETATM   28  C   UNL     1      43.170 -11.073   6.833  1.00  0.00     0.066 A 
HETATM   29  C   UNL     1      43.573 -10.214   7.865  1.00  0.00     0.070 A 
HETATM   30  C   UNL     1      44.926 -10.081   8.155  1.00  0.00     0.037 A 
HETATM   31  C   UNL     1      45.860 -10.803   7.416  1.00  0.00     0.005 A 
HETATM   32  C   UNL     1      45.448 -11.660   6.389  1.00  0.00     0.030 A 
BRANCH  29  33
HETATM   33  O   UNL     1      42.549  -9.557   8.494  1.00  0.00    -0.356 OA
HETATM   34  C   UNL     1      42.632  -9.435   9.908  1.00  0.00     0.210 C 
ENDBRANCH  29  33
ENDBRANCH   1  27
TORSDOF 6
ENDMDL
MODEL 9
REMARK VINA RESULT:      -8.3      3.032      5.017
REMARK  6 active torsions:
REMARK  status: ('A' for Active; 'I' for Inactive)
REMARK    1  A    between atoms: O_2  and  C_3 
REMARK    2  A    between atoms: C_5  and  N_6 
REMARK    3  A    between atoms: C_7  and  O_8 
REMARK    4  A    between atoms: C_7  and  C_9 
REMARK       I    between atoms: C_9  and  N_10 
REMARK    5  A    between atoms: N_10  and  C_11 
REMARK    6  A    between atoms: C_11  and  C_12 
ROOT
HETATM    1  N   UNL     1      40.560 -14.133   2.194  1.00  0.00    -0.254 N 
HETATM    2  C   UNL     1      41.782 -14.757   2.733  1.00  0.00     0.256 C 
HETATM    3  C   UNL     1      41.612 -15.309   4.137  1.00  0.00     0.034 A 
HETATM    4  C   UNL     1      40.620 -14.766   4.939  1.00  0.00     0.048 A 
HETATM    5  N   UNL     1      39.769 -13.821   4.393  1.00  0.00    -0.308 N 
HETATM    6  C   UNL     1      39.682 -13.502   3.071  1.00  0.00     0.330 C 
HETATM    7  O   UNL     1      38.852 -12.646   2.764  1.00  0.00    -0.246 OA
HETATM    8  C   UNL     1      42.475 -16.268   4.694  1.00  0.00     0.015 A 
HETATM    9  C   UNL     1      42.327 -16.671   6.023  1.00  0.00     0.001 A 
HETATM   10  C   UNL     1      41.328 -16.107   6.814  1.00  0.00     0.002 A 
HETATM   11  C   UNL     1      40.474 -15.147   6.274  1.00  0.00     0.030 A 
HETATM   12  H   UNL     1      39.059 -13.385   4.970  1.00  0.00     0.170 HD
ENDROOT
BRANCH   2  13
HETATM   13  O   UNL     1      42.122 -15.891   1.924  1.00  0.00    -0.359 OA
HETATM   14  H   UNL     1      42.672 -15.529   1.203  1.00  0.00     0.213 HD
ENDBRANCH   2  13
BRANCH   2  15
HETATM   15  C   UNL     1      42.980 -13.718   2.749  1.00  0.00     0.279 C 
HETATM   16  N   UNL     1      42.939 -12.720   3.697  1.00  0.00    -0.352 N 
HETATM   17  H   UNL     1      42.060 -12.523   4.158  1.00  0.00     0.162 HD
HETATM   18  O   UNL     1      43.939 -13.864   1.984  1.00  0.00    -0.268 OA
BRANCH  16  19
HETATM   19  C   UNL     1      43.973 -11.719   3.785  1.00  0.00     0.161 C 
BRANCH  19  20
HETATM   20  C   UNL     1      44.209 -11.338   5.222  1.00  0.00    -0.040 A 
HETATM   21  C   UNL     1      45.492 -11.451   5.780  1.00  0.00     0.010 A 
HETATM   22  C   UNL     1      45.711 -11.134   7.123  1.00  0.00     0.024 A 
HETATM   23  C   UNL     1      44.646 -10.711   7.916  1.00  0.00     0.034 A 
HETATM   24 CL   UNL     1      44.914 -10.323   9.570  1.00  0.00    -0.084 Cl
HETATM   25  C   UNL     1      43.365 -10.606   7.379  1.00  0.00     0.024 A 
HETATM   26  C   UNL     1      43.146 -10.923   6.036  1.00  0.00     0.010 A 
ENDBRANCH  19  20
ENDBRANCH  16  19
ENDBRANCH   2  15
BRANCH   1  27
HETATM   27  C   UNL     1      40.381 -13.984   0.764  1.00  0.00     0.045 A 
HETATM   28  C   UNL     1      40.900 -12.860   0.094  1.00  0.00     0.066 A 
HETATM   29  C   UNL     1      40.732 -12.664  -1.284  1.00  0.00     0.070 A 
HETATM   30  C   UNL     1      40.022 -13.602  -2.026  1.00  0.00     0.037 A 
HETATM   31  C   UNL     1      39.489 -14.720  -1.389  1.00  0.00     0.005 A 
HETATM   32  C   UNL     1      39.664 -14.907  -0.012  1.00  0.00     0.030 A 
BRANCH  29  33
HETATM   33  O   UNL     1      41.295 -11.515  -1.770  1.00  0.00    -0.356 OA
HETATM   34  C   UNL     1      40.571 -10.308  -1.575  1.00  0.00     0.210 C 
ENDBRANCH  29  33
ENDBRANCH   1  27
TORSDOF 6
ENDMDL
MODEL 10
REMARK VINA RESULT:      -8.3      3.022      6.112
REMARK  6 active torsions:
REMARK  status: ('A' for Active; 'I' for Inactive)
REMARK    1  A    between atoms: O_2  and  C_3 
REMARK    2  A    between atoms: C_5  and  N_6 
REMARK    3  A    between atoms: C_7  and  O_8 
REMARK    4  A    between atoms: C_7  and  C_9 
REMARK       I    between atoms: C_9  and  N_10 
REMARK    5  A    between atoms: N_10  and  C_11 
REMARK    6  A    between atoms: C_11  and  C_12 
ROOT
HETATM    1  N   UNL     1      41.100 -11.573   5.081  1.00  0.00    -0.254 N 
HETATM    2  C   UNL     1      42.018 -12.187   4.106  1.00  0.00     0.256 C 
HETATM    3  C   UNL     1      41.307 -12.923   2.985  1.00  0.00     0.034 A 
HETATM    4  C   UNL     1      40.024 -13.393   3.220  1.00  0.00     0.048 A 
HETATM    5  N   UNL     1      39.415 -13.084   4.424  1.00  0.00    -0.308 N 
HETATM    6  C   UNL     1      39.880 -12.190   5.341  1.00  0.00     0.330 C 
HETATM    7  O   UNL     1      39.194 -12.029   6.351  1.00  0.00    -0.246 OA
HETATM    8  C   UNL     1      41.923 -13.239   1.762  1.00  0.00     0.015 A 
HETATM    9  C   UNL     1      41.251 -14.000   0.803  1.00  0.00     0.001 A 
HETATM   10  C   UNL     1      39.964 -14.468   1.062  1.00  0.00     0.002 A 
HETATM   11  C   UNL     1      39.348 -14.170   2.277  1.00  0.00     0.030 A 
HETATM   12  H   UNL     1      38.491 -13.446   4.631  1.00  0.00     0.170 HD
ENDROOT
BRANCH   2  13
HETATM   13  O   UNL     1      42.768 -11.153   3.457  1.00  0.00    -0.359 OA
HETATM   14  H   UNL     1      42.958 -11.502   2.565  1.00  0.00     0.213 HD
ENDBRANCH   2  13
BRANCH   2  15
HETATM   15  C   UNL     1      42.999 -13.205   4.824  1.00  0.00     0.279 C 
HETATM   16  N   UNL     1      42.643 -14.535   4.823  1.00  0.00    -0.352 N 
HETATM   17  H   UNL     1      41.684 -14.782   4.612  1.00  0.00     0.162 HD
HETATM   18  O   UNL     1      44.072 -12.808   5.292  1.00  0.00    -0.268 OA
BRANCH  16  19
HETATM   19  C   UNL     1      43.459 -15.537   5.462  1.00  0.00     0.161 C 
BRANCH  19  20
HETATM   20  C   UNL     1      43.546 -16.767   4.599  1.00  0.00    -0.040 A 
HETATM   21  C   UNL     1      44.189 -17.920   5.076  1.00  0.00     0.010 A 
HETATM   22  C   UNL     1      44.305 -19.053   4.267  1.00  0.00     0.024 A 
HETATM   23  C   UNL     1      43.787 -19.035   2.973  1.00  0.00     0.034 A 
HETATM   24 CL   UNL     1      43.932 -20.428   1.975  1.00  0.00    -0.084 Cl
HETATM   25  C   UNL     1      43.158 -17.893   2.481  1.00  0.00     0.024 A 
HETATM   26  C   UNL     1      43.041 -16.761   3.291  1.00  0.00     0.010 A 
ENDBRANCH  19  20
ENDBRANCH  16  19
ENDBRANCH   2  15
BRANCH   1  27
HETATM   27  C   UNL     1      41.543 -10.474   5.916  1.00  0.00     0.045 A 
HETATM   28  C   UNL     1      42.418 -10.707   6.994  1.00  0.00     0.066 A 
HETATM   29  C   UNL     1      42.855  -9.678   7.840  1.00  0.00     0.070 A 
HETATM   30  C   UNL     1      42.410  -8.379   7.623  1.00  0.00     0.037 A 
HETATM   31  C   UNL     1      41.537  -8.120   6.570  1.00  0.00     0.005 A 
HETATM   32  C   UNL     1      41.107  -9.154   5.730  1.00  0.00     0.030 A 
BRANCH  29  33
HETATM   33  O   UNL     1      43.698 -10.081   8.842  1.00  0.00    -0.356 OA
HETATM   34  C   UNL     1      44.970 -10.581   8.453  1.00  0.00     0.210 C 
ENDBRANCH  29  33
ENDBRANCH   1  27
TORSDOF 6
ENDMDL
