MODEL 1
REMARK VINA RESULT:      -7.8      0.000      0.000
REMARK  8 active torsions:
REMARK  status: ('A' for Active; 'I' for Inactive)
REMARK    1  A    between atoms: C_2  and  N_3 
REMARK    2  A    between atoms: N_3  and  C_5 
REMARK    3  A    between atoms: N_3  and  C_29 
REMARK    4  A    between atoms: C_5  and  C_6 
REMARK    5  A    between atoms: C_6  and  N_7 
REMARK       I    between atoms: N_7  and  C_8 
REMARK    6  A    between atoms: C_8  and  C_9 
REMARK    7  A    between atoms: C_9  and  O_10 
REMARK    8  A    between atoms: N_11  and  C_12 
ROOT
HETATM    1  C   UNL     1      42.569 -13.854   5.159  1.00  0.00     0.256 C 
HETATM    2  N   UNL     1      43.322 -12.620   4.903  1.00  0.00    -0.254 N 
HETATM    3  C   UNL     1      43.537 -12.220   3.594  1.00  0.00     0.330 C 
HETATM    4  O   UNL     1      43.775 -11.064   3.246  1.00  0.00    -0.246 OA
HETATM    5  N   UNL     1      43.468 -13.182   2.626  1.00  0.00    -0.308 N 
HETATM    6  C   UNL     1      43.292 -14.539   2.871  1.00  0.00     0.048 A 
HETATM    7  C   UNL     1      42.880 -14.934   4.142  1.00  0.00     0.034 A 
HETATM    8  C   UNL     1      43.490 -15.465   1.849  1.00  0.00     0.030 A 
HETATM    9  C   UNL     1      43.285 -16.820   2.105  1.00  0.00     0.002 A 
HETATM   10  C   UNL     1      42.878 -17.237   3.371  1.00  0.00     0.001 A 
HETATM   11  C   UNL     1      42.670 -16.301   4.385  1.00  0.00     0.015 A 
HETATM   12  H   UNL     1      43.774 -12.872   1.709  1.00  0.00     0.170 HD
ENDROOT
BRANCH   1  13
HETATM   13  C   UNL     1      41.014 -13.507   5.144  1.00  0.00     0.279 C 
HETATM   14  N   UNL     1      40.583 -12.423   4.386  1.00  0.00    -0.355 N 
HETATM   15  H   UNL     1      41.217 -12.123   3.649  1.00  0.00     0.162 HD
HETATM   16  O   UNL     1      40.204 -14.119   5.846  1.00  0.00    -0.268 OA
BRANCH  14  17
HETATM   17  C   UNL     1      39.159 -12.263   4.102  1.00  0.00     0.150 C 
BRANCH  17  18
HETATM   18  C   UNL     1      38.763 -12.600   2.654  1.00  0.00     0.254 C 
BRANCH  18  19
HETATM   19  N   UNL     1      39.985 -12.976   1.819  1.00  0.00    -0.070 N 
HETATM   20  H   UNL     1      40.753 -13.038   2.505  1.00  0.00     0.279 HD
BRANCH  19  21
HETATM   21  C   UNL     1      40.381 -11.886   0.840  1.00  0.00     0.230 C 
HETATM   22  C   UNL     1      40.817 -12.485  -0.486  1.00  0.00     0.034 C 
ENDBRANCH  19  21
BRANCH  19  23
HETATM   23  C   UNL     1      39.929 -14.344   1.172  1.00  0.00     0.230 C 
HETATM   24  C   UNL     1      39.748 -15.463   2.181  1.00  0.00     0.034 C 
ENDBRANCH  19  23
ENDBRANCH  18  19
ENDBRANCH  17  18
ENDBRANCH  14  17
ENDBRANCH   1  13
BRANCH   1  25
HETATM   25  O   UNL     1      42.935 -14.395   6.426  1.00  0.00    -0.359 OA
HETATM   26  H   UNL     1      42.243 -15.032   6.671  1.00  0.00     0.213 HD
ENDBRANCH   1  25
BRANCH   2  27
HETATM   27  C   UNL     1      43.828 -11.802   5.964  1.00  0.00     0.043 A 
HETATM   28  C   UNL     1      43.006 -11.011   6.777  1.00  0.00     0.031 A 
HETATM   29  C   UNL     1      43.546 -10.277   7.841  1.00  0.00     0.026 A 
HETATM   30  C   UNL     1      44.911 -10.334   8.109  1.00  0.00     0.034 A 
HETATM   31 CL   UNL     1      45.562  -9.451   9.431  1.00  0.00    -0.084 Cl
HETATM   32  C   UNL     1      45.746 -11.104   7.308  1.00  0.00     0.026 A 
HETATM   33  C   UNL     1      45.208 -11.822   6.235  1.00  0.00     0.031 A 
ENDBRANCH   2  27
TORSDOF 8
ENDMDL
MODEL 2
REMARK VINA RESULT:      -7.5      3.427      6.050
REMARK  8 active torsions:
REMARK  status: ('A' for Active; 'I' for Inactive)
REMARK    1  A    between atoms: C_2  and  N_3 
REMARK    2  A    between atoms: N_3  and  C_5 
REMARK    3  A    between atoms: N_3  and  C_29 
REMARK    4  A    between atoms: C_5  and  C_6 
REMARK    5  A    between atoms: C_6  and  N_7 
REMARK       I    between atoms: N_7  and  C_8 
REMARK    6  A    between atoms: C_8  and  C_9 
REMARK    7  A    between atoms: C_9  and  O_10 
REMARK    8  A    between atoms: N_11  and  C_12 
ROOT
HETATM    1  C   UNL     1      42.272 -14.395   3.021  1.00  0.00     0.256 C 
HETATM    2  N   UNL     1      42.142 -15.579   3.878  1.00  0.00    -0.254 N 
HETATM    3  C   UNL     1      41.397 -15.491   5.043  1.00  0.00     0.330 C 
HETATM    4  O   UNL     1      40.882 -16.450   5.618  1.00  0.00    -0.246 OA
HETATM    5  N   UNL     1      41.218 -14.247   5.580  1.00  0.00    -0.308 N 
HETATM    6  C   UNL     1      41.807 -13.085   5.094  1.00  0.00     0.048 A 
HETATM    7  C   UNL     1      42.387 -13.116   3.828  1.00  0.00     0.034 A 
HETATM    8  C   UNL     1      41.774 -11.916   5.851  1.00  0.00     0.030 A 
HETATM    9  C   UNL     1      42.345 -10.753   5.338  1.00  0.00     0.002 A 
HETATM   10  C   UNL     1      42.937 -10.763   4.076  1.00  0.00     0.001 A 
HETATM   11  C   UNL     1      42.954 -11.936   3.320  1.00  0.00     0.015 A 
HETATM   12  H   UNL     1      40.796 -14.249   6.502  1.00  0.00     0.170 HD
ENDROOT
BRANCH   1  13
HETATM   13  C   UNL     1      41.005 -14.330   2.056  1.00  0.00     0.279 C 
HETATM   14  N   UNL     1      41.193 -14.562   0.697  1.00  0.00    -0.355 N 
HETATM   15  H   UNL     1      42.042 -15.066   0.451  1.00  0.00     0.162 HD
HETATM   16  O   UNL     1      39.890 -14.000   2.469  1.00  0.00    -0.268 OA
BRANCH  14  17
HETATM   17  C   UNL     1      40.035 -14.813  -0.157  1.00  0.00     0.150 C 
BRANCH  17  18
HETATM   18  C   UNL     1      39.800 -13.735  -1.230  1.00  0.00     0.254 C 
BRANCH  18  19
HETATM   19  N   UNL     1      38.346 -13.267  -1.236  1.00  0.00    -0.070 N 
HETATM   20  H   UNL     1      37.860 -13.938  -0.622  1.00  0.00     0.279 HD
BRANCH  19  21
HETATM   21  C   UNL     1      37.696 -13.396  -2.601  1.00  0.00     0.230 C 
HETATM   22  C   UNL     1      38.266 -14.582  -3.360  1.00  0.00     0.034 C 
ENDBRANCH  19  21
BRANCH  19  23
HETATM   23  C   UNL     1      38.102 -11.913  -0.604  1.00  0.00     0.230 C 
HETATM   24  C   UNL     1      37.258 -11.001  -1.477  1.00  0.00     0.034 C 
ENDBRANCH  19  23
ENDBRANCH  18  19
ENDBRANCH  17  18
ENDBRANCH  14  17
ENDBRANCH   1  13
BRANCH   1  25
HETATM   25  O   UNL     1      43.468 -14.478   2.250  1.00  0.00    -0.359 OA
HETATM   26  H   UNL     1      44.185 -14.704   2.866  1.00  0.00     0.213 HD
ENDBRANCH   1  25
BRANCH   2  27
HETATM   27  C   UNL     1      42.745 -16.833   3.540  1.00  0.00     0.043 A 
HETATM   28  C   UNL     1      43.794 -17.399   4.277  1.00  0.00     0.031 A 
HETATM   29  C   UNL     1      44.308 -18.658   3.940  1.00  0.00     0.026 A 
HETATM   30  C   UNL     1      43.772 -19.368   2.869  1.00  0.00     0.034 A 
HETATM   31 CL   UNL     1      44.390 -20.922   2.477  1.00  0.00    -0.084 Cl
HETATM   32  C   UNL     1      42.739 -18.820   2.117  1.00  0.00     0.026 A 
HETATM   33  C   UNL     1      42.240 -17.555   2.444  1.00  0.00     0.031 A 
ENDBRANCH   2  27
TORSDOF 8
ENDMDL
MODEL 3
REMARK VINA RESULT:      -7.1      1.772      3.037
REMARK  8 active torsions:
REMARK  status: ('A' for Active; 'I' for Inactive)
REMARK    1  A    between atoms: C_2  and  N_3 
REMARK    2  A    between atoms: N_3  and  C_5 
REMARK    3  A    between atoms: N_3  and  C_29 
REMARK    4  A    between atoms: C_5  and  C_6 
REMARK    5  A    between atoms: C_6  and  N_7 
REMARK       I    between atoms: N_7  and  C_8 
REMARK    6  A    between atoms: C_8  and  C_9 
REMARK    7  A    between atoms: C_9  and  O_10 
REMARK    8  A    between atoms: N_11  and  C_12 
ROOT
HETATM    1  C   UNL     1      42.524 -13.822   5.135  1.00  0.00     0.256 C 
HETATM    2  N   UNL     1      43.298 -12.602   4.879  1.00  0.00    -0.254 N 
HETATM    3  C   UNL     1      43.508 -12.197   3.570  1.00  0.00     0.330 C 
HETATM    4  O   UNL     1      43.765 -11.043   3.228  1.00  0.00    -0.246 OA
HETATM    5  N   UNL     1      43.409 -13.150   2.596  1.00  0.00    -0.308 N 
HETATM    6  C   UNL     1      43.209 -14.505   2.834  1.00  0.00     0.048 A 
HETATM    7  C   UNL     1      42.802 -14.901   4.106  1.00  0.00     0.034 A 
HETATM    8  C   UNL     1      43.377 -15.428   1.804  1.00  0.00     0.030 A 
HETATM    9  C   UNL     1      43.147 -16.780   2.052  1.00  0.00     0.002 A 
HETATM   10  C   UNL     1      42.746 -17.199   3.319  1.00  0.00     0.001 A 
HETATM   11  C   UNL     1      42.567 -16.266   4.342  1.00  0.00     0.015 A 
HETATM   12  H   UNL     1      43.711 -12.840   1.679  1.00  0.00     0.170 HD
ENDROOT
BRANCH   1  13
HETATM   13  C   UNL     1      40.976 -13.445   5.138  1.00  0.00     0.279 C 
HETATM   14  N   UNL     1      40.409 -12.978   6.319  1.00  0.00    -0.355 N 
HETATM   15  H   UNL     1      41.064 -12.604   7.002  1.00  0.00     0.162 HD
HETATM   16  O   UNL     1      40.258 -13.635   4.152  1.00  0.00    -0.268 OA
BRANCH  14  17
HETATM   17  C   UNL     1      39.095 -12.340   6.285  1.00  0.00     0.150 C 
BRANCH  17  18
HETATM   18  C   UNL     1      39.073 -10.912   6.856  1.00  0.00     0.254 C 
BRANCH  18  19
HETATM   19  N   UNL     1      39.595  -9.899   5.839  1.00  0.00    -0.070 N 
HETATM   20  H   UNL     1      40.616 -10.051   5.830  1.00  0.00     0.279 HD
BRANCH  19  21
HETATM   21  C   UNL     1      39.386  -8.464   6.283  1.00  0.00     0.230 C 
HETATM   22  C   UNL     1      40.122  -8.189   7.583  1.00  0.00     0.034 C 
ENDBRANCH  19  21
BRANCH  19  23
HETATM   23  C   UNL     1      39.155 -10.134   4.409  1.00  0.00     0.230 C 
HETATM   24  C   UNL     1      40.315 -10.129   3.430  1.00  0.00     0.034 C 
ENDBRANCH  19  23
ENDBRANCH  18  19
ENDBRANCH  17  18
ENDBRANCH  14  17
ENDBRANCH   1  13
BRANCH   1  25
HETATM   25  O   UNL     1      42.892 -14.380   6.393  1.00  0.00    -0.359 OA
HETATM   26  H   UNL     1      42.090 -14.778   6.771  1.00  0.00     0.213 HD
ENDBRANCH   1  25
BRANCH   2  27
HETATM   27  C   UNL     1      43.832 -11.802   5.940  1.00  0.00     0.043 A 
HETATM   28  C   UNL     1      45.157 -11.905   6.381  1.00  0.00     0.031 A 
HETATM   29  C   UNL     1      45.646 -11.055   7.383  1.00  0.00     0.026 A 
HETATM   30  C   UNL     1      44.817 -10.089   7.946  1.00  0.00     0.034 A 
HETATM   31 CL   UNL     1      45.430  -9.034   9.156  1.00  0.00    -0.084 Cl
HETATM   32  C   UNL     1      43.495  -9.978   7.531  1.00  0.00     0.026 A 
HETATM   33  C   UNL     1      43.004 -10.839   6.544  1.00  0.00     0.031 A 
ENDBRANCH   2  27
TORSDOF 8
ENDMDL
MODEL 4
REMARK VINA RESULT:      -6.9      3.104      6.820
REMARK  8 active torsions:
REMARK  status: ('A' for Active; 'I' for Inactive)
REMARK    1  A    between atoms: C_2  and  N_3 
REMARK    2  A    between atoms: N_3  and  C_5 
REMARK    3  A    between atoms: N_3  and  C_29 
REMARK    4  A    between atoms: C_5  and  C_6 
REMARK    5  A    between atoms: C_6  and  N_7 
REMARK       I    between atoms: N_7  and  C_8 
REMARK    6  A    between atoms: C_8  and  C_9 
REMARK    7  A    between atoms: C_9  and  O_10 
REMARK    8  A    between atoms: N_11  and  C_12 
ROOT
HETATM    1  C   UNL     1      42.448 -13.932   2.996  1.00  0.00     0.256 C 
HETATM    2  N   UNL     1      41.111 -13.553   2.523  1.00  0.00    -0.254 N 
HETATM    3  C   UNL     1      40.057 -13.536   3.421  1.00  0.00     0.330 C 
HETATM    4  O   UNL     1      39.026 -12.880   3.278  1.00  0.00    -0.246 OA
HETATM    5  N   UNL     1      40.183 -14.297   4.549  1.00  0.00    -0.308 N 
HETATM    6  C   UNL     1      41.246 -15.154   4.810  1.00  0.00     0.048 A 
HETATM    7  C   UNL     1      42.395 -15.039   4.030  1.00  0.00     0.034 A 
HETATM    8  C   UNL     1      41.164 -16.073   5.853  1.00  0.00     0.030 A 
HETATM    9  C   UNL     1      42.249 -16.907   6.118  1.00  0.00     0.002 A 
HETATM   10  C   UNL     1      43.406 -16.813   5.346  1.00  0.00     0.001 A 
HETATM   11  C   UNL     1      43.484 -15.880   4.311  1.00  0.00     0.015 A 
HETATM   12  H   UNL     1      39.334 -14.368   5.100  1.00  0.00     0.170 HD
ENDROOT
BRANCH   1  13
HETATM   13  C   UNL     1      43.152 -12.638   3.603  1.00  0.00     0.279 C 
HETATM   14  N   UNL     1      43.228 -12.511   4.986  1.00  0.00    -0.355 N 
HETATM   15  H   UNL     1      43.127 -13.376   5.513  1.00  0.00     0.162 HD
HETATM   16  O   UNL     1      43.553 -11.718   2.885  1.00  0.00    -0.268 OA
BRANCH  14  17
HETATM   17  C   UNL     1      44.121 -11.513   5.571  1.00  0.00     0.150 C 
BRANCH  17  18
HETATM   18  C   UNL     1      44.751 -11.938   6.908  1.00  0.00     0.254 C 
BRANCH  18  19
HETATM   19  N   UNL     1      44.346 -10.994   8.038  1.00  0.00    -0.070 N 
HETATM   20  H   UNL     1      43.869 -11.604   8.721  1.00  0.00     0.279 HD
BRANCH  19  21
HETATM   21  C   UNL     1      43.318  -9.967   7.600  1.00  0.00     0.230 C 
HETATM   22  C   UNL     1      42.544  -9.436   8.794  1.00  0.00     0.034 C 
ENDBRANCH  19  21
BRANCH  19  23
HETATM   23  C   UNL     1      45.494 -10.373   8.805  1.00  0.00     0.230 C 
HETATM   24  C   UNL     1      46.248  -9.334   7.993  1.00  0.00     0.034 C 
ENDBRANCH  19  23
ENDBRANCH  18  19
ENDBRANCH  17  18
ENDBRANCH  14  17
ENDBRANCH   1  13
BRANCH   1  25
HETATM   25  O   UNL     1      43.222 -14.446   1.914  1.00  0.00    -0.359 OA
HETATM   26  H   UNL     1      42.603 -14.632   1.188  1.00  0.00     0.213 HD
ENDBRANCH   1  25
BRANCH   2  27
HETATM   27  C   UNL     1      40.862 -13.181   1.163  1.00  0.00     0.043 A 
HETATM   28  C   UNL     1      41.120 -11.898   0.662  1.00  0.00     0.031 A 
HETATM   29  C   UNL     1      40.916 -11.604  -0.693  1.00  0.00     0.026 A 
HETATM   30  C   UNL     1      40.460 -12.592  -1.561  1.00  0.00     0.034 A 
HETATM   31 CL   UNL     1      40.235 -12.230  -3.226  1.00  0.00    -0.084 Cl
HETATM   32  C   UNL     1      40.186 -13.868  -1.084  1.00  0.00     0.026 A 
HETATM   33  C   UNL     1      40.374 -14.155   0.272  1.00  0.00     0.031 A 
ENDBRANCH   2  27
TORSDOF 8
ENDMDL
MODEL 5
REMARK VINA RESULT:      -6.9      1.361      2.110
REMARK  8 active torsions:
REMARK  status: ('A' for Active; 'I' for Inactive)
REMARK    1  A    between atoms: C_2  and  N_3 
REMARK    2  A    between atoms: N_3  and  C_5 
REMARK    3  A    between atoms: N_3  and  C_29 
REMARK    4  A    between atoms: C_5  and  C_6 
REMARK    5  A    between atoms: C_6  and  N_7 
REMARK       I    between atoms: N_7  and  C_8 
REMARK    6  A    between atoms: C_8  and  C_9 
REMARK    7  A    between atoms: C_9  and  O_10 
REMARK    8  A    between atoms: N_11  and  C_12 
ROOT
HETATM    1  C   UNL     1      42.650 -13.853   5.214  1.00  0.00     0.256 C 
HETATM    2  N   UNL     1      43.394 -12.616   4.949  1.00  0.00    -0.254 N 
HETATM    3  C   UNL     1      43.522 -12.171   3.643  1.00  0.00     0.330 C 
HETATM    4  O   UNL     1      43.745 -11.005   3.320  1.00  0.00    -0.246 OA
HETATM    5  N   UNL     1      43.379 -13.098   2.649  1.00  0.00    -0.308 N 
HETATM    6  C   UNL     1      43.209 -14.462   2.859  1.00  0.00     0.048 A 
HETATM    7  C   UNL     1      42.881 -14.899   4.141  1.00  0.00     0.034 A 
HETATM    8  C   UNL     1      43.329 -15.353   1.795  1.00  0.00     0.030 A 
HETATM    9  C   UNL     1      43.130 -16.714   2.017  1.00  0.00     0.002 A 
HETATM   10  C   UNL     1      42.808 -17.174   3.293  1.00  0.00     0.001 A 
HETATM   11  C   UNL     1      42.677 -16.272   4.350  1.00  0.00     0.015 A 
HETATM   12  H   UNL     1      43.624 -12.758   1.726  1.00  0.00     0.170 HD
ENDROOT
BRANCH   1  13
HETATM   13  C   UNL     1      41.101 -13.497   5.317  1.00  0.00     0.279 C 
HETATM   14  N   UNL     1      40.631 -12.377   4.640  1.00  0.00    -0.355 N 
HETATM   15  H   UNL     1      41.217 -12.047   3.878  1.00  0.00     0.162 HD
HETATM   16  O   UNL     1      40.334 -14.136   6.043  1.00  0.00    -0.268 OA
BRANCH  14  17
HETATM   17  C   UNL     1      39.192 -12.195   4.460  1.00  0.00     0.150 C 
BRANCH  17  18
HETATM   18  C   UNL     1      38.769 -10.739   4.200  1.00  0.00     0.254 C 
BRANCH  18  19
HETATM   19  N   UNL     1      38.793 -10.412   2.709  1.00  0.00    -0.070 N 
HETATM   20  H   UNL     1      38.108  -9.647   2.604  1.00  0.00     0.279 HD
BRANCH  19  21
HETATM   21  C   UNL     1      38.283 -11.555   1.851  1.00  0.00     0.230 C 
HETATM   22  C   UNL     1      37.015 -11.155   1.117  1.00  0.00     0.034 C 
ENDBRANCH  19  21
BRANCH  19  23
HETATM   23  C   UNL     1      40.097  -9.839   2.194  1.00  0.00     0.230 C 
HETATM   24  C   UNL     1      40.778  -8.931   3.203  1.00  0.00     0.034 C 
ENDBRANCH  19  23
ENDBRANCH  18  19
ENDBRANCH  17  18
ENDBRANCH  14  17
ENDBRANCH   1  13
BRANCH   1  25
HETATM   25  O   UNL     1      43.098 -14.441   6.433  1.00  0.00    -0.359 OA
HETATM   26  H   UNL     1      42.753 -15.349   6.451  1.00  0.00     0.213 HD
ENDBRANCH   1  25
BRANCH   2  27
HETATM   27  C   UNL     1      43.978 -11.839   6.001  1.00  0.00     0.043 A 
HETATM   28  C   UNL     1      45.351 -11.841   6.280  1.00  0.00     0.031 A 
HETATM   29  C   UNL     1      45.880 -11.015   7.281  1.00  0.00     0.026 A 
HETATM   30  C   UNL     1      45.042 -10.172   8.006  1.00  0.00     0.034 A 
HETATM   31 CL   UNL     1      45.700  -9.144   9.215  1.00  0.00    -0.084 Cl
HETATM   32  C   UNL     1      43.675 -10.163   7.754  1.00  0.00     0.026 A 
HETATM   33  C   UNL     1      43.147 -11.001   6.767  1.00  0.00     0.031 A 
ENDBRANCH   2  27
TORSDOF 8
ENDMDL
MODEL 6
REMARK VINA RESULT:      -6.9      3.124      5.711
REMARK  8 active torsions:
REMARK  status: ('A' for Active; 'I' for Inactive)
REMARK    1  A    between atoms: C_2  and  N_3 
REMARK    2  A    between atoms: N_3  and  C_5 
REMARK    3  A    between atoms: N_3  and  C_29 
REMARK    4  A    between atoms: C_5  and  C_6 
REMARK    5  A    between atoms: C_6  and  N_7 
REMARK       I    between atoms: N_7  and  C_8 
REMARK    6  A    between atoms: C_8  and  C_9 
REMARK    7  A    between atoms: C_9  and  O_10 
REMARK    8  A    between atoms: N_11  and  C_12 
ROOT
HETATM    1  C   UNL     1      42.718 -14.217   4.281  1.00  0.00     0.256 C 
HETATM    2  N   UNL     1      42.679 -15.552   4.891  1.00  0.00    -0.254 N 
HETATM    3  C   UNL     1      42.399 -15.669   6.243  1.00  0.00     0.330 C 
HETATM    4  O   UNL     1      41.948 -16.680   6.779  1.00  0.00    -0.246 OA
HETATM    5  N   UNL     1      42.633 -14.575   7.028  1.00  0.00    -0.308 N 
HETATM    6  C   UNL     1      43.217 -13.394   6.585  1.00  0.00     0.048 A 
HETATM    7  C   UNL     1      43.321 -13.182   5.211  1.00  0.00     0.034 A 
HETATM    8  C   UNL     1      43.647 -12.438   7.502  1.00  0.00     0.030 A 
HETATM    9  C   UNL     1      44.206 -11.248   7.041  1.00  0.00     0.002 A 
HETATM   10  C   UNL     1      44.326 -11.019   5.671  1.00  0.00     0.001 A 
HETATM   11  C   UNL     1      43.881 -11.976   4.758  1.00  0.00     0.015 A 
HETATM   12  H   UNL     1      42.553 -14.752   8.024  1.00  0.00     0.170 HD
ENDROOT
BRANCH   1  13
HETATM   13  C   UNL     1      41.233 -13.804   3.880  1.00  0.00     0.279 C 
HETATM   14  N   UNL     1      40.914 -13.701   2.529  1.00  0.00    -0.355 N 
HETATM   15  H   UNL     1      41.534 -14.197   1.893  1.00  0.00     0.162 HD
HETATM   16  O   UNL     1      40.391 -13.494   4.728  1.00  0.00    -0.268 OA
BRANCH  14  17
HETATM   17  C   UNL     1      39.513 -13.629   2.123  1.00  0.00     0.150 C 
BRANCH  17  18
HETATM   18  C   UNL     1      39.189 -12.455   1.182  1.00  0.00     0.254 C 
BRANCH  18  19
HETATM   19  N   UNL     1      38.981 -12.934  -0.252  1.00  0.00    -0.070 N 
HETATM   20  H   UNL     1      38.708 -13.925  -0.152  1.00  0.00     0.279 HD
BRANCH  19  21
HETATM   21  C   UNL     1      40.264 -12.930  -1.062  1.00  0.00     0.230 C 
HETATM   22  C   UNL     1      41.102 -11.705  -0.739  1.00  0.00     0.034 C 
ENDBRANCH  19  21
BRANCH  19  23
HETATM   23  C   UNL     1      37.828 -12.285  -0.989  1.00  0.00     0.230 C 
HETATM   24  C   UNL     1      37.457 -10.929  -0.418  1.00  0.00     0.034 C 
ENDBRANCH  19  23
ENDBRANCH  18  19
ENDBRANCH  17  18
ENDBRANCH  14  17
ENDBRANCH   1  13
BRANCH   1  25
HETATM   25  O   UNL     1      43.550 -14.232   3.124  1.00  0.00    -0.359 OA
HETATM   26  H   UNL     1      44.466 -14.135   3.434  1.00  0.00     0.213 HD
ENDBRANCH   1  25
BRANCH   2  27
HETATM   27  C   UNL     1      42.904 -16.743   4.130  1.00  0.00     0.043 A 
HETATM   28  C   UNL     1      42.130 -17.095   3.017  1.00  0.00     0.031 A 
HETATM   29  C   UNL     1      42.431 -18.242   2.269  1.00  0.00     0.026 A 
HETATM   30  C   UNL     1      43.514 -19.042   2.622  1.00  0.00     0.034 A 
HETATM   31 CL   UNL     1      43.892 -20.433   1.687  1.00  0.00    -0.084 Cl
HETATM   32  C   UNL     1      44.288 -18.718   3.730  1.00  0.00     0.026 A 
HETATM   33  C   UNL     1      43.975 -17.583   4.486  1.00  0.00     0.031 A 
ENDBRANCH   2  27
TORSDOF 8
ENDMDL
MODEL 7
REMARK VINA RESULT:      -6.7      3.107      5.515
REMARK  8 active torsions:
REMARK  status: ('A' for Active; 'I' for Inactive)
REMARK    1  A    between atoms: C_2  and  N_3 
REMARK    2  A    between atoms: N_3  and  C_5 
REMARK    3  A    between atoms: N_3  and  C_29 
REMARK    4  A    between atoms: C_5  and  C_6 
REMARK    5  A    between atoms: C_6  and  N_7 
REMARK       I    between atoms: N_7  and  C_8 
REMARK    6  A    between atoms: C_8  and  C_9 
REMARK    7  A    between atoms: C_9  and  O_10 
REMARK    8  A    between atoms: N_11  and  C_12 
ROOT
HETATM    1  C   UNL     1      41.811 -13.082   3.987  1.00  0.00     0.256 C 
HETATM    2  N   UNL     1      41.657 -14.229   4.890  1.00  0.00    -0.254 N 
HETATM    3  C   UNL     1      40.698 -14.179   5.888  1.00  0.00     0.330 C 
HETATM    4  O   UNL     1      40.197 -15.166   6.427  1.00  0.00    -0.246 OA
HETATM    5  N   UNL     1      40.276 -12.943   6.290  1.00  0.00    -0.308 N 
HETATM    6  C   UNL     1      40.807 -11.741   5.837  1.00  0.00     0.048 A 
HETATM    7  C   UNL     1      41.619 -11.761   4.705  1.00  0.00     0.034 A 
HETATM    8  C   UNL     1      40.494 -10.549   6.487  1.00  0.00     0.030 A 
HETATM    9  C   UNL     1      41.014  -9.349   6.004  1.00  0.00     0.002 A 
HETATM   10  C   UNL     1      41.834  -9.348   4.877  1.00  0.00     0.001 A 
HETATM   11  C   UNL     1      42.132 -10.545   4.225  1.00  0.00     0.015 A 
HETATM   12  H   UNL     1      39.687 -12.953   7.116  1.00  0.00     0.170 HD
ENDROOT
BRANCH   1  13
HETATM   13  C   UNL     1      40.754 -13.229   2.803  1.00  0.00     0.279 C 
HETATM   14  N   UNL     1      41.223 -13.530   1.528  1.00  0.00    -0.355 N 
HETATM   15  H   UNL     1      42.148 -13.950   1.489  1.00  0.00     0.162 HD
HETATM   16  O   UNL     1      39.553 -13.001   2.972  1.00  0.00    -0.268 OA
BRANCH  14  17
HETATM   17  C   UNL     1      40.282 -13.969   0.500  1.00  0.00     0.150 C 
BRANCH  17  18
HETATM   18  C   UNL     1      40.081 -12.959  -0.642  1.00  0.00     0.254 C 
BRANCH  18  19
HETATM   19  N   UNL     1      40.494 -13.552  -1.987  1.00  0.00    -0.070 N 
HETATM   20  H   UNL     1      41.278 -14.183  -1.757  1.00  0.00     0.279 HD
BRANCH  19  21
HETATM   21  C   UNL     1      41.057 -12.510  -2.936  1.00  0.00     0.230 C 
HETATM   22  C   UNL     1      41.188 -11.165  -2.244  1.00  0.00     0.034 C 
ENDBRANCH  19  21
BRANCH  19  23
HETATM   23  C   UNL     1      39.460 -14.439  -2.647  1.00  0.00     0.230 C 
HETATM   24  C   UNL     1      38.102 -13.771  -2.762  1.00  0.00     0.034 C 
ENDBRANCH  19  23
ENDBRANCH  18  19
ENDBRANCH  17  18
ENDBRANCH  14  17
ENDBRANCH   1  13
BRANCH   1  25
HETATM   25  O   UNL     1      43.134 -13.050   3.458  1.00  0.00    -0.359 OA
HETATM   26  H   UNL     1      43.348 -12.117   3.290  1.00  0.00     0.213 HD
ENDBRANCH   1  25
BRANCH   2  27
HETATM   27  C   UNL     1      42.456 -15.411   4.762  1.00  0.00     0.043 A 
HETATM   28  C   UNL     1      43.476 -15.744   5.663  1.00  0.00     0.031 A 
HETATM   29  C   UNL     1      44.187 -16.944   5.527  1.00  0.00     0.026 A 
HETATM   30  C   UNL     1      43.879 -17.826   4.495  1.00  0.00     0.034 A 
HETATM   31 CL   UNL     1      44.739 -19.307   4.350  1.00  0.00    -0.084 Cl
HETATM   32  C   UNL     1      42.879 -17.510   3.583  1.00  0.00     0.026 A 
HETATM   33  C   UNL     1      42.182 -16.304   3.710  1.00  0.00     0.031 A 
ENDBRANCH   2  27
TORSDOF 8
ENDMDL
MODEL 8
REMARK VINA RESULT:      -6.6      2.843      4.175
REMARK  8 active torsions:
REMARK  status: ('A' for Active; 'I' for Inactive)
REMARK    1  A    between atoms: C_2  and  N_3 
REMARK    2  A    between atoms: N_3  and  C_5 
REMARK    3  A    between atoms: N_3  and  C_29 
REMARK    4  A    between atoms: C_5  and  C_6 
REMARK    5  A    between atoms: C_6  and  N_7 
REMARK       I    between atoms: N_7  and  C_8 
REMARK    6  A    between atoms: C_8  and  C_9 
REMARK    7  A    between atoms: C_9  and  O_10 
REMARK    8  A    between atoms: N_11  and  C_12 
ROOT
HETATM    1  C   UNL     1      40.567 -13.403   2.562  1.00  0.00     0.256 C 
HETATM    2  N   UNL     1      41.334 -12.328   3.202  1.00  0.00    -0.254 N 
HETATM    3  C   UNL     1      42.695 -12.235   2.963  1.00  0.00     0.330 C 
HETATM    4  O   UNL     1      43.358 -11.205   3.086  1.00  0.00    -0.246 OA
HETATM    5  N   UNL     1      43.338 -13.368   2.550  1.00  0.00    -0.308 N 
HETATM    6  C   UNL     1      42.743 -14.620   2.447  1.00  0.00     0.048 A 
HETATM    7  C   UNL     1      41.353 -14.698   2.488  1.00  0.00     0.034 A 
HETATM    8  C   UNL     1      43.530 -15.755   2.268  1.00  0.00     0.030 A 
HETATM    9  C   UNL     1      42.917 -17.000   2.140  1.00  0.00     0.002 A 
HETATM   10  C   UNL     1      41.527 -17.102   2.185  1.00  0.00     0.001 A 
HETATM   11  C   UNL     1      40.746 -15.957   2.352  1.00  0.00     0.015 A 
HETATM   12  H   UNL     1      44.349 -13.289   2.530  1.00  0.00     0.170 HD
ENDROOT
BRANCH   1  13
HETATM   13  C   UNL     1      40.149 -12.924   1.102  1.00  0.00     0.279 C 
HETATM   14  N   UNL     1      38.846 -12.481   0.896  1.00  0.00    -0.355 N 
HETATM   15  H   UNL     1      38.345 -12.188   1.731  1.00  0.00     0.162 HD
HETATM   16  O   UNL     1      40.919 -13.014   0.142  1.00  0.00    -0.268 OA
BRANCH  14  17
HETATM   17  C   UNL     1      38.517 -11.756  -0.329  1.00  0.00     0.150 C 
BRANCH  17  18
HETATM   18  C   UNL     1      37.834 -12.617  -1.406  1.00  0.00     0.254 C 
BRANCH  18  19
HETATM   19  N   UNL     1      38.645 -12.632  -2.700  1.00  0.00    -0.070 N 
HETATM   20  H   UNL     1      37.935 -12.564  -3.446  1.00  0.00     0.279 HD
BRANCH  19  21
HETATM   21  C   UNL     1      39.366 -13.949  -2.923  1.00  0.00     0.230 C 
HETATM   22  C   UNL     1      38.377 -15.060  -3.230  1.00  0.00     0.034 C 
ENDBRANCH  19  21
BRANCH  19  23
HETATM   23  C   UNL     1      39.547 -11.434  -2.912  1.00  0.00     0.230 C 
HETATM   24  C   UNL     1      41.000 -11.824  -3.117  1.00  0.00     0.034 C 
ENDBRANCH  19  23
ENDBRANCH  18  19
ENDBRANCH  17  18
ENDBRANCH  14  17
ENDBRANCH   1  13
BRANCH   1  25
HETATM   25  O   UNL     1      39.403 -13.698   3.331  1.00  0.00    -0.359 OA
HETATM   26  H   UNL     1      38.901 -12.870   3.410  1.00  0.00     0.213 HD
ENDBRANCH   1  25
BRANCH   2  27
HETATM   27  C   UNL     1      40.717 -11.356   4.054  1.00  0.00     0.043 A 
HETATM   28  C   UNL     1      40.750 -11.435   5.452  1.00  0.00     0.031 A 
HETATM   29  C   UNL     1      40.183 -10.425   6.240  1.00  0.00     0.026 A 
HETATM   30  C   UNL     1      39.586  -9.321   5.638  1.00  0.00     0.034 A 
HETATM   31 CL   UNL     1      38.915  -8.073   6.610  1.00  0.00    -0.084 Cl
HETATM   32  C   UNL     1      39.531  -9.227   4.252  1.00  0.00     0.026 A 
HETATM   33  C   UNL     1      40.082 -10.246   3.467  1.00  0.00     0.031 A 
ENDBRANCH   2  27
TORSDOF 8
ENDMDL
MODEL 9
REMARK VINA RESULT:      -6.5      3.742      6.896
REMARK  8 active torsions:
REMARK  status: ('A' for Active; 'I' for Inactive)
REMARK    1  A    between atoms: C_2  and  N_3 
REMARK    2  A    between atoms: N_3  and  C_5 
REMARK    3  A    between atoms: N_3  and  C_29 
REMARK    4  A    between atoms: C_5  and  C_6 
REMARK    5  A    between atoms: C_6  and  N_7 
REMARK       I    between atoms: N_7  and  C_8 
REMARK    6  A    between atoms: C_8  and  C_9 
REMARK    7  A    between atoms: C_9  and  O_10 
REMARK    8  A    between atoms: N_11  and  C_12 
ROOT
HETATM    1  C   UNL     1      40.547 -12.322   3.720  1.00  0.00     0.256 C 
HETATM    2  N   UNL     1      40.759 -11.825   2.355  1.00  0.00    -0.254 N 
HETATM    3  C   UNL     1      41.504 -10.672   2.165  1.00  0.00     0.330 C 
HETATM    4  O   UNL     1      42.084 -10.379   1.120  1.00  0.00    -0.246 OA
HETATM    5  N   UNL     1      41.605  -9.810   3.221  1.00  0.00    -0.308 N 
HETATM    6  C   UNL     1      40.939  -9.962   4.431  1.00  0.00     0.048 A 
HETATM    7  C   UNL     1      40.354 -11.195   4.715  1.00  0.00     0.034 A 
HETATM    8  C   UNL     1      40.901  -8.912   5.345  1.00  0.00     0.030 A 
HETATM    9  C   UNL     1      40.252  -9.089   6.566  1.00  0.00     0.002 A 
HETATM   10  C   UNL     1      39.654 -10.312   6.867  1.00  0.00     0.001 A 
HETATM   11  C   UNL     1      39.709 -11.363   5.951  1.00  0.00     0.015 A 
HETATM   12  H   UNL     1      42.033  -8.920   2.991  1.00  0.00     0.170 HD
ENDROOT
BRANCH   1  13
HETATM   13  C   UNL     1      41.800 -13.216   4.130  1.00  0.00     0.279 C 
HETATM   14  N   UNL     1      41.567 -14.471   4.685  1.00  0.00    -0.355 N 
HETATM   15  H   UNL     1      40.649 -14.869   4.501  1.00  0.00     0.162 HD
HETATM   16  O   UNL     1      42.956 -12.793   4.046  1.00  0.00    -0.268 OA
BRANCH  14  17
HETATM   17  C   UNL     1      42.666 -15.429   4.786  1.00  0.00     0.150 C 
BRANCH  17  18
HETATM   18  C   UNL     1      42.296 -16.858   4.354  1.00  0.00     0.254 C 
BRANCH  18  19
HETATM   19  N   UNL     1      43.464 -17.544   3.648  1.00  0.00    -0.070 N 
HETATM   20  H   UNL     1      44.144 -16.784   3.484  1.00  0.00     0.279 HD
BRANCH  19  21
HETATM   21  C   UNL     1      43.087 -18.076   2.278  1.00  0.00     0.230 C 
HETATM   22  C   UNL     1      43.259 -19.583   2.219  1.00  0.00     0.034 C 
ENDBRANCH  19  21
BRANCH  19  23
HETATM   23  C   UNL     1      44.213 -18.563   4.480  1.00  0.00     0.230 C 
HETATM   24  C   UNL     1      43.625 -18.734   5.869  1.00  0.00     0.034 C 
ENDBRANCH  19  23
ENDBRANCH  18  19
ENDBRANCH  17  18
ENDBRANCH  14  17
ENDBRANCH   1  13
BRANCH   1  25
HETATM   25  O   UNL     1      39.353 -13.100   3.776  1.00  0.00    -0.359 OA
HETATM   26  H   UNL     1      38.958 -13.075   2.889  1.00  0.00     0.213 HD
ENDBRANCH   1  25
BRANCH   2  27
HETATM   27  C   UNL     1      40.236 -12.503   1.208  1.00  0.00     0.043 A 
HETATM   28  C   UNL     1      39.200 -11.984   0.421  1.00  0.00     0.031 A 
HETATM   29  C   UNL     1      38.766 -12.660  -0.728  1.00  0.00     0.026 A 
HETATM   30  C   UNL     1      39.371 -13.855  -1.106  1.00  0.00     0.034 A 
HETATM   31 CL   UNL     1      38.851 -14.665  -2.529  1.00  0.00    -0.084 Cl
HETATM   32  C   UNL     1      40.393 -14.394  -0.333  1.00  0.00     0.026 A 
HETATM   33  C   UNL     1      40.812 -13.727   0.823  1.00  0.00     0.031 A 
ENDBRANCH   2  27
TORSDOF 8
ENDMDL
MODEL 10
REMARK VINA RESULT:      -6.5     16.848     18.812
REMARK  8 active torsions:
REMARK  status: ('A' for Active; 'I' for Inactive)
REMARK    1  A    between atoms: C_2  and  N_3 
REMARK    2  A    between atoms: N_3  and  C_5 
REMARK    3  A    between atoms: N_3  and  C_29 
REMARK    4  A    between atoms: C_5  and  C_6 
REMARK    5  A    between atoms: C_6  and  N_7 
REMARK       I    between atoms: N_7  and  C_8 
REMARK    6  A    between atoms: C_8  and  C_9 
REMARK    7  A    between atoms: C_9  and  O_10 
REMARK    8  A    between atoms: N_11  and  C_12 
ROOT
HETATM    1  C   UNL     1      44.849 -29.691  -0.191  1.00  0.00     0.256 C 
HETATM    2  N   UNL     1      44.017 -30.839   0.191  1.00  0.00    -0.254 N 
HETATM    3  C   UNL     1      43.913 -31.916  -0.674  1.00  0.00     0.330 C 
HETATM    4  O   UNL     1      43.608 -33.059  -0.335  1.00  0.00    -0.246 OA
HETATM    5  N   UNL     1      44.181 -31.686  -1.995  1.00  0.00    -0.308 N 
HETATM    6  C   UNL     1      44.454 -30.437  -2.540  1.00  0.00     0.048 A 
HETATM    7  C   UNL     1      44.758 -29.389  -1.674  1.00  0.00     0.034 A 
HETATM    8  C   UNL     1      44.461 -30.263  -3.922  1.00  0.00     0.030 A 
HETATM    9  C   UNL     1      44.763 -29.011  -4.453  1.00  0.00     0.002 A 
HETATM   10  C   UNL     1      45.063 -27.946  -3.604  1.00  0.00     0.001 A 
HETATM   11  C   UNL     1      45.067 -28.133  -2.221  1.00  0.00     0.015 A 
HETATM   12  H   UNL     1      43.952 -32.462  -2.606  1.00  0.00     0.170 HD
ENDROOT
BRANCH   1  13
HETATM   13  C   UNL     1      46.356 -30.004   0.220  1.00  0.00     0.279 C 
HETATM   14  N   UNL     1      46.969 -29.189   1.167  1.00  0.00    -0.355 N 
HETATM   15  H   UNL     1      46.339 -28.661   1.765  1.00  0.00     0.162 HD
HETATM   16  O   UNL     1      47.012 -30.889  -0.337  1.00  0.00    -0.268 OA
BRANCH  14  17
HETATM   17  C   UNL     1      48.220 -29.620   1.786  1.00  0.00     0.150 C 
BRANCH  17  18
HETATM   18  C   UNL     1      48.530 -28.929   3.126  1.00  0.00     0.254 C 
BRANCH  18  19
HETATM   19  N   UNL     1      49.056 -29.926   4.156  1.00  0.00    -0.070 N 
HETATM   20  H   UNL     1      48.995 -29.421   5.054  1.00  0.00     0.279 HD
BRANCH  19  21
HETATM   21  C   UNL     1      50.524 -30.254   3.955  1.00  0.00     0.230 C 
HETATM   22  C   UNL     1      51.079 -31.001   5.155  1.00  0.00     0.034 C 
ENDBRANCH  19  21
BRANCH  19  23
HETATM   23  C   UNL     1      48.207 -31.165   4.348  1.00  0.00     0.230 C 
HETATM   24  C   UNL     1      47.003 -30.919   5.240  1.00  0.00     0.034 C 
ENDBRANCH  19  23
ENDBRANCH  18  19
ENDBRANCH  17  18
ENDBRANCH  14  17
ENDBRANCH   1  13
BRANCH   1  25
HETATM   25  O   UNL     1      44.396 -28.516   0.476  1.00  0.00    -0.359 OA
HETATM   26  H   UNL     1      43.960 -28.806   1.294  1.00  0.00     0.213 HD
ENDBRANCH   1  25
BRANCH   2  27
HETATM   27  C   UNL     1      43.320 -30.892   1.441  1.00  0.00     0.043 A 
HETATM   28  C   UNL     1      41.959 -30.590   1.570  1.00  0.00     0.031 A 
HETATM   29  C   UNL     1      41.311 -30.717   2.806  1.00  0.00     0.026 A 
HETATM   30  C   UNL     1      42.017 -31.155   3.923  1.00  0.00     0.034 A 
HETATM   31 CL   UNL     1      41.211 -31.332   5.430  1.00  0.00    -0.084 Cl
HETATM   32  C   UNL     1      43.372 -31.449   3.821  1.00  0.00     0.026 A 
HETATM   33  C   UNL     1      44.020 -31.304   2.590  1.00  0.00     0.031 A 
ENDBRANCH   2  27
TORSDOF 8
ENDMDL
