MODEL 1
REMARK VINA RESULT:      -7.6      0.000      0.000
REMARK  4 active torsions:
REMARK  status: ('A' for Active; 'I' for Inactive)
REMARK    1  A    between atoms: S_2  and  N_3 
REMARK    2  A    between atoms: N_3  and  N_4 
REMARK    3  A    between atoms: C_10  and  C_11 
REMARK    4  A    between atoms: C_13  and  O_14 
ROOT
HETATM    1  N   UNL     1      42.750 -14.285   5.712  1.00  0.00    -0.241 N 
HETATM    2  C   UNL     1      43.533 -15.434   5.806  1.00  0.00     0.272 C 
HETATM    3  O   UNL     1      44.376 -15.633   6.678  1.00  0.00    -0.266 OA
HETATM    4  C   UNL     1      43.344 -16.417   4.710  1.00  0.00     0.054 A 
HETATM    5  C   UNL     1      42.466 -16.095   3.662  1.00  0.00     0.026 A 
HETATM    6  N   UNL     1      41.756 -14.877   3.651  1.00  0.00    -0.265 NA
HETATM    7  C   UNL     1      41.479 -14.385   5.001  1.00  0.00     0.217 C 
HETATM    8  C   UNL     1      44.069 -17.615   4.700  1.00  0.00     0.019 A 
HETATM    9  C   UNL     1      43.958 -18.478   3.612  1.00  0.00     0.001 A 
HETATM   10  C   UNL     1      43.148 -18.133   2.532  1.00  0.00     0.002 A 
HETATM   11  C   UNL     1      42.416 -16.942   2.550  1.00  0.00     0.024 A 
HETATM   12  H   UNL     1      40.912 -14.932   3.088  1.00  0.00     0.130 HD
ENDROOT
BRANCH   7  13
HETATM   13  C   UNL     1      40.699 -13.084   4.919  1.00  0.00    -0.017 A 
HETATM   14  C   UNL     1      39.768 -12.770   5.926  1.00  0.00     0.047 A 
HETATM   15  C   UNL     1      39.077 -11.563   5.886  1.00  0.00     0.066 A 
HETATM   16  C   UNL     1      39.282 -10.660   4.852  1.00  0.00     0.036 A 
HETATM   17  C   UNL     1      40.206 -10.954   3.850  1.00  0.00     0.003 A 
HETATM   18  C   UNL     1      40.917 -12.154   3.887  1.00  0.00     0.011 A 
BRANCH  15  19
HETATM   19  O   UNL     1      38.185 -11.226   6.859  1.00  0.00    -0.361 OA
HETATM   20  H   UNL     1      38.606 -11.353   7.726  1.00  0.00     0.217 HD
ENDBRANCH  15  19
ENDBRANCH   7  13
BRANCH   1  21
HETATM   21  N   UNL     1      42.812 -13.313   6.851  1.00  0.00    -0.123 NA
HETATM   22  H   UNL     1      43.089 -13.731   7.749  1.00  0.00     0.165 HD
BRANCH  21  23
HETATM   23  S   UNL     1      43.784 -11.930   6.637  1.00  0.00     0.222 S 
HETATM   24  C   UNL     1      42.630 -10.602   6.920  1.00  0.00     0.181 C 
HETATM   25  O   UNL     1      44.267 -11.910   5.271  1.00  0.00    -0.210 OA
HETATM   26  O   UNL     1      44.724 -11.965   7.737  1.00  0.00    -0.210 OA
ENDBRANCH  21  23
ENDBRANCH   1  21
TORSDOF 4
ENDMDL
MODEL 2
REMARK VINA RESULT:      -7.5      1.540      1.969
REMARK  4 active torsions:
REMARK  status: ('A' for Active; 'I' for Inactive)
REMARK    1  A    between atoms: S_2  and  N_3 
REMARK    2  A    between atoms: N_3  and  N_4 
REMARK    3  A    between atoms: C_10  and  C_11 
REMARK    4  A    between atoms: C_13  and  O_14 
ROOT
HETATM    1  N   UNL     1      42.714 -14.214   5.461  1.00  0.00    -0.241 N 
HETATM    2  C   UNL     1      43.282 -15.402   5.917  1.00  0.00     0.272 C 
HETATM    3  O   UNL     1      43.707 -15.578   7.058  1.00  0.00    -0.266 OA
HETATM    4  C   UNL     1      43.424 -16.468   4.893  1.00  0.00     0.054 A 
HETATM    5  C   UNL     1      43.046 -16.184   3.571  1.00  0.00     0.026 A 
HETATM    6  N   UNL     1      42.520 -14.925   3.215  1.00  0.00    -0.265 NA
HETATM    7  C   UNL     1      41.803 -14.291   4.321  1.00  0.00     0.217 C 
HETATM    8  C   UNL     1      43.974 -17.709   5.235  1.00  0.00     0.019 A 
HETATM    9  C   UNL     1      44.197 -18.661   4.242  1.00  0.00     0.001 A 
HETATM   10  C   UNL     1      43.896 -18.361   2.914  1.00  0.00     0.002 A 
HETATM   11  C   UNL     1      43.335 -17.125   2.578  1.00  0.00     0.024 A 
HETATM   12  H   UNL     1      41.951 -14.973   2.374  1.00  0.00     0.130 HD
ENDROOT
BRANCH   7  13
HETATM   13  C   UNL     1      41.248 -12.951   3.868  1.00  0.00    -0.017 A 
HETATM   14  C   UNL     1      42.004 -12.148   2.994  1.00  0.00     0.047 A 
HETATM   15  C   UNL     1      41.490 -10.938   2.538  1.00  0.00     0.066 A 
HETATM   16  C   UNL     1      40.237 -10.499   2.945  1.00  0.00     0.036 A 
HETATM   17  C   UNL     1      39.473 -11.287   3.806  1.00  0.00     0.003 A 
HETATM   18  C   UNL     1      39.971 -12.510   4.259  1.00  0.00     0.011 A 
BRANCH  15  19
HETATM   19  O   UNL     1      42.192 -10.152   1.676  1.00  0.00    -0.361 OA
HETATM   20  H   UNL     1      42.595 -10.716   0.995  1.00  0.00     0.217 HD
ENDBRANCH  15  19
ENDBRANCH   7  13
BRANCH   1  21
HETATM   21  N   UNL     1      42.437 -13.147   6.476  1.00  0.00    -0.123 NA
HETATM   22  H   UNL     1      42.276 -13.501   7.428  1.00  0.00     0.165 HD
BRANCH  21  23
HETATM   23  S   UNL     1      43.581 -11.891   6.610  1.00  0.00     0.222 S 
HETATM   24  C   UNL     1      42.556 -10.434   6.579  1.00  0.00     0.181 C 
HETATM   25  O   UNL     1      44.452 -11.933   5.454  1.00  0.00    -0.210 OA
HETATM   26  O   UNL     1      44.134 -12.036   7.940  1.00  0.00    -0.210 OA
ENDBRANCH  21  23
ENDBRANCH   1  21
TORSDOF 4
ENDMDL
MODEL 3
REMARK VINA RESULT:      -7.4      2.722      3.347
REMARK  4 active torsions:
REMARK  status: ('A' for Active; 'I' for Inactive)
REMARK    1  A    between atoms: S_2  and  N_3 
REMARK    2  A    between atoms: N_3  and  N_4 
REMARK    3  A    between atoms: C_10  and  C_11 
REMARK    4  A    between atoms: C_13  and  O_14 
ROOT
HETATM    1  N   UNL     1      43.165 -16.132   4.086  1.00  0.00    -0.241 N 
HETATM    2  C   UNL     1      43.797 -17.192   4.733  1.00  0.00     0.272 C 
HETATM    3  O   UNL     1      44.433 -17.089   5.781  1.00  0.00    -0.266 OA
HETATM    4  C   UNL     1      43.727 -18.495   4.025  1.00  0.00     0.054 A 
HETATM    5  C   UNL     1      43.105 -18.544   2.767  1.00  0.00     0.026 A 
HETATM    6  N   UNL     1      42.534 -17.392   2.189  1.00  0.00    -0.265 NA
HETATM    7  C   UNL     1      42.051 -16.447   3.196  1.00  0.00     0.217 C 
HETATM    8  C   UNL     1      44.319 -19.635   4.582  1.00  0.00     0.019 A 
HETATM    9  C   UNL     1      44.336 -20.826   3.857  1.00  0.00     0.001 A 
HETATM   10  C   UNL     1      43.788 -20.866   2.576  1.00  0.00     0.002 A 
HETATM   11  C   UNL     1      43.187 -19.729   2.029  1.00  0.00     0.024 A 
HETATM   12  H   UNL     1      41.813 -17.623   1.511  1.00  0.00     0.130 HD
ENDROOT
BRANCH   7  13
HETATM   13  C   UNL     1      41.433 -15.241   2.508  1.00  0.00    -0.017 A 
HETATM   14  C   UNL     1      40.142 -14.820   2.875  1.00  0.00     0.047 A 
HETATM   15  C   UNL     1      39.580 -13.693   2.284  1.00  0.00     0.066 A 
HETATM   16  C   UNL     1      40.274 -12.976   1.319  1.00  0.00     0.036 A 
HETATM   17  C   UNL     1      41.558 -13.376   0.949  1.00  0.00     0.003 A 
HETATM   18  C   UNL     1      42.139 -14.497   1.546  1.00  0.00     0.011 A 
BRANCH  15  19
HETATM   19  O   UNL     1      38.340 -13.253   2.636  1.00  0.00    -0.361 OA
HETATM   20  H   UNL     1      38.399 -12.805   3.497  1.00  0.00     0.217 HD
ENDBRANCH  15  19
ENDBRANCH   7  13
BRANCH   1  21
HETATM   21  N   UNL     1      43.101 -14.821   4.810  1.00  0.00    -0.123 NA
HETATM   22  H   UNL     1      42.914 -14.011   4.204  1.00  0.00     0.165 HD
BRANCH  21  23
HETATM   23  S   UNL     1      42.015 -14.712   6.118  1.00  0.00     0.222 S 
HETATM   24  C   UNL     1      43.110 -14.545   7.513  1.00  0.00     0.181 C 
HETATM   25  O   UNL     1      41.262 -15.947   6.199  1.00  0.00    -0.210 OA
HETATM   26  O   UNL     1      41.325 -13.455   5.921  1.00  0.00    -0.210 OA
ENDBRANCH  21  23
ENDBRANCH   1  21
TORSDOF 4
ENDMDL
MODEL 4
REMARK VINA RESULT:      -7.4      2.942      3.921
REMARK  4 active torsions:
REMARK  status: ('A' for Active; 'I' for Inactive)
REMARK    1  A    between atoms: S_2  and  N_3 
REMARK    2  A    between atoms: N_3  and  N_4 
REMARK    3  A    between atoms: C_10  and  C_11 
REMARK    4  A    between atoms: C_13  and  O_14 
ROOT
HETATM    1  N   UNL     1      42.602 -15.665   3.235  1.00  0.00    -0.241 N 
HETATM    2  C   UNL     1      43.064 -16.889   2.755  1.00  0.00     0.272 C 
HETATM    3  O   UNL     1      43.116 -17.196   1.565  1.00  0.00    -0.266 OA
HETATM    4  C   UNL     1      43.437 -17.876   3.799  1.00  0.00     0.054 A 
HETATM    5  C   UNL     1      43.240 -17.535   5.147  1.00  0.00     0.026 A 
HETATM    6  N   UNL     1      42.723 -16.275   5.514  1.00  0.00    -0.265 NA
HETATM    7  C   UNL     1      43.068 -15.232   4.549  1.00  0.00     0.217 C 
HETATM    8  C   UNL     1      43.922 -19.139   3.438  1.00  0.00     0.019 A 
HETATM    9  C   UNL     1      44.167 -20.091   4.426  1.00  0.00     0.001 A 
HETATM   10  C   UNL     1      43.904 -19.788   5.762  1.00  0.00     0.002 A 
HETATM   11  C   UNL     1      43.431 -18.522   6.119  1.00  0.00     0.024 A 
HETATM   12  H   UNL     1      42.986 -16.017   6.461  1.00  0.00     0.130 HD
ENDROOT
BRANCH   7  13
HETATM   13  C   UNL     1      42.498 -13.901   5.012  1.00  0.00    -0.017 A 
HETATM   14  C   UNL     1      41.239 -13.867   5.638  1.00  0.00     0.047 A 
HETATM   15  C   UNL     1      40.724 -12.662   6.104  1.00  0.00     0.066 A 
HETATM   16  C   UNL     1      41.432 -11.478   5.948  1.00  0.00     0.036 A 
HETATM   17  C   UNL     1      42.685 -11.497   5.336  1.00  0.00     0.003 A 
HETATM   18  C   UNL     1      43.220 -12.702   4.878  1.00  0.00     0.011 A 
BRANCH  15  19
HETATM   19  O   UNL     1      39.516 -12.604   6.732  1.00  0.00    -0.361 OA
HETATM   20  H   UNL     1      38.835 -12.368   6.079  1.00  0.00     0.217 HD
ENDBRANCH  15  19
ENDBRANCH   7  13
BRANCH   1  21
HETATM   21  N   UNL     1      42.325 -14.589   2.228  1.00  0.00    -0.123 NA
HETATM   22  H   UNL     1      42.899 -14.649   1.377  1.00  0.00     0.165 HD
BRANCH  21  23
HETATM   23  S   UNL     1      40.711 -14.407   1.716  1.00  0.00     0.222 S 
HETATM   24  C   UNL     1      40.367 -12.708   2.130  1.00  0.00     0.181 C 
HETATM   25  O   UNL     1      39.875 -15.304   2.488  1.00  0.00    -0.210 OA
HETATM   26  O   UNL     1      40.765 -14.527   0.274  1.00  0.00    -0.210 OA
ENDBRANCH  21  23
ENDBRANCH   1  21
TORSDOF 4
ENDMDL
MODEL 5
REMARK VINA RESULT:      -7.3      2.419      3.169
REMARK  4 active torsions:
REMARK  status: ('A' for Active; 'I' for Inactive)
REMARK    1  A    between atoms: S_2  and  N_3 
REMARK    2  A    between atoms: N_3  and  N_4 
REMARK    3  A    between atoms: C_10  and  C_11 
REMARK    4  A    between atoms: C_13  and  O_14 
ROOT
HETATM    1  N   UNL     1      42.498 -14.703   4.071  1.00  0.00    -0.241 N 
HETATM    2  C   UNL     1      43.189 -15.627   4.852  1.00  0.00     0.272 C 
HETATM    3  O   UNL     1      43.708 -15.371   5.938  1.00  0.00    -0.266 OA
HETATM    4  C   UNL     1      43.340 -16.975   4.250  1.00  0.00     0.054 A 
HETATM    5  C   UNL     1      42.847 -17.190   2.953  1.00  0.00     0.026 A 
HETATM    6  N   UNL     1      42.199 -16.163   2.237  1.00  0.00    -0.265 NA
HETATM    7  C   UNL     1      41.516 -15.217   3.120  1.00  0.00     0.217 C 
HETATM    8  C   UNL     1      44.010 -17.990   4.944  1.00  0.00     0.019 A 
HETATM    9  C   UNL     1      44.235 -19.217   4.323  1.00  0.00     0.001 A 
HETATM   10  C   UNL     1      43.816 -19.416   3.008  1.00  0.00     0.002 A 
HETATM   11  C   UNL     1      43.137 -18.404   2.322  1.00  0.00     0.024 A 
HETATM   12  H   UNL     1      41.576 -16.530   1.522  1.00  0.00     0.130 HD
ENDROOT
BRANCH   7  13
HETATM   13  C   UNL     1      40.826 -14.150   2.288  1.00  0.00    -0.017 A 
HETATM   14  C   UNL     1      41.348 -13.809   1.027  1.00  0.00     0.047 A 
HETATM   15  C   UNL     1      40.703 -12.863   0.237  1.00  0.00     0.066 A 
HETATM   16  C   UNL     1      39.548 -12.234   0.682  1.00  0.00     0.036 A 
HETATM   17  C   UNL     1      39.014 -12.566   1.926  1.00  0.00     0.003 A 
HETATM   18  C   UNL     1      39.643 -13.524   2.722  1.00  0.00     0.011 A 
BRANCH  15  19
HETATM   19  O   UNL     1      41.176 -12.530  -0.996  1.00  0.00    -0.361 OA
HETATM   20  H   UNL     1      40.954 -13.241  -1.620  1.00  0.00     0.217 HD
ENDBRANCH  15  19
ENDBRANCH   7  13
BRANCH   1  21
HETATM   21  N   UNL     1      42.212 -13.363   4.679  1.00  0.00    -0.123 NA
HETATM   22  H   UNL     1      42.184 -13.361   5.706  1.00  0.00     0.165 HD
BRANCH  21  23
HETATM   23  S   UNL     1      43.224 -12.073   4.217  1.00  0.00     0.222 S 
HETATM   24  C   UNL     1      42.057 -10.765   3.895  1.00  0.00     0.181 C 
HETATM   25  O   UNL     1      43.928 -12.446   3.006  1.00  0.00    -0.210 OA
HETATM   26  O   UNL     1      43.968 -11.741   5.414  1.00  0.00    -0.210 OA
ENDBRANCH  21  23
ENDBRANCH   1  21
TORSDOF 4
ENDMDL
MODEL 6
REMARK VINA RESULT:      -7.2      4.124      5.973
REMARK  4 active torsions:
REMARK  status: ('A' for Active; 'I' for Inactive)
REMARK    1  A    between atoms: S_2  and  N_3 
REMARK    2  A    between atoms: N_3  and  N_4 
REMARK    3  A    between atoms: C_10  and  C_11 
REMARK    4  A    between atoms: C_13  and  O_14 
ROOT
HETATM    1  N   UNL     1      41.304 -13.036   1.260  1.00  0.00    -0.241 N 
HETATM    2  C   UNL     1      41.033 -12.299   0.109  1.00  0.00     0.272 C 
HETATM    3  O   UNL     1      41.286 -11.103  -0.028  1.00  0.00    -0.266 OA
HETATM    4  C   UNL     1      40.323 -13.040  -0.964  1.00  0.00     0.054 A 
HETATM    5  C   UNL     1      39.935 -14.368  -0.719  1.00  0.00     0.026 A 
HETATM    6  N   UNL     1      40.228 -15.001   0.507  1.00  0.00    -0.265 NA
HETATM    7  C   UNL     1      41.450 -14.483   1.120  1.00  0.00     0.217 C 
HETATM    8  C   UNL     1      40.004 -12.406  -2.170  1.00  0.00     0.019 A 
HETATM    9  C   UNL     1      39.246 -13.083  -3.124  1.00  0.00     0.001 A 
HETATM   10  C   UNL     1      38.791 -14.375  -2.861  1.00  0.00     0.002 A 
HETATM   11  C   UNL     1      39.123 -15.008  -1.659  1.00  0.00     0.024 A 
HETATM   12  H   UNL     1      40.249 -16.013   0.417  1.00  0.00     0.130 HD
ENDROOT
BRANCH   7  13
HETATM   13  C   UNL     1      41.718 -15.217   2.423  1.00  0.00    -0.017 A 
HETATM   14  C   UNL     1      40.651 -15.479   3.302  1.00  0.00     0.047 A 
HETATM   15  C   UNL     1      40.874 -16.187   4.479  1.00  0.00     0.066 A 
HETATM   16  C   UNL     1      42.146 -16.632   4.811  1.00  0.00     0.036 A 
HETATM   17  C   UNL     1      43.212 -16.386   3.947  1.00  0.00     0.003 A 
HETATM   18  C   UNL     1      42.999 -15.691   2.756  1.00  0.00     0.011 A 
BRANCH  15  19
HETATM   19  O   UNL     1      39.855 -16.471   5.337  1.00  0.00    -0.361 OA
HETATM   20  H   UNL     1      39.037 -16.071   4.996  1.00  0.00     0.217 HD
ENDBRANCH  15  19
ENDBRANCH   7  13
BRANCH   1  21
HETATM   21  N   UNL     1      42.122 -12.374   2.327  1.00  0.00    -0.123 NA
HETATM   22  H   UNL     1      42.784 -11.670   1.976  1.00  0.00     0.165 HD
BRANCH  21  23
HETATM   23  S   UNL     1      41.274 -11.649   3.614  1.00  0.00     0.222 S 
HETATM   24  C   UNL     1      41.984 -12.447   5.040  1.00  0.00     0.181 C 
HETATM   25  O   UNL     1      39.869 -11.977   3.486  1.00  0.00    -0.210 OA
HETATM   26  O   UNL     1      41.698 -10.265   3.602  1.00  0.00    -0.210 OA
ENDBRANCH  21  23
ENDBRANCH   1  21
TORSDOF 4
ENDMDL
MODEL 7
REMARK VINA RESULT:      -7.2      4.757      5.819
REMARK  4 active torsions:
REMARK  status: ('A' for Active; 'I' for Inactive)
REMARK    1  A    between atoms: S_2  and  N_3 
REMARK    2  A    between atoms: N_3  and  N_4 
REMARK    3  A    between atoms: C_10  and  C_11 
REMARK    4  A    between atoms: C_13  and  O_14 
ROOT
HETATM    1  N   UNL     1      40.071 -13.726   1.733  1.00  0.00    -0.241 N 
HETATM    2  C   UNL     1      40.315 -14.316   2.972  1.00  0.00     0.272 C 
HETATM    3  O   UNL     1      39.777 -13.975   4.024  1.00  0.00    -0.266 OA
HETATM    4  C   UNL     1      41.359 -15.372   2.973  1.00  0.00     0.054 A 
HETATM    5  C   UNL     1      42.043 -15.641   1.777  1.00  0.00     0.026 A 
HETATM    6  N   UNL     1      41.739 -14.947   0.588  1.00  0.00    -0.265 NA
HETATM    7  C   UNL     1      40.341 -14.520   0.538  1.00  0.00     0.217 C 
HETATM    8  C   UNL     1      41.686 -16.042   4.158  1.00  0.00     0.019 A 
HETATM    9  C   UNL     1      42.739 -16.955   4.165  1.00  0.00     0.001 A 
HETATM   10  C   UNL     1      43.474 -17.175   3.000  1.00  0.00     0.002 A 
HETATM   11  C   UNL     1      43.136 -16.512   1.817  1.00  0.00     0.024 A 
HETATM   12  H   UNL     1      42.003 -15.475  -0.240  1.00  0.00     0.130 HD
ENDROOT
BRANCH   7  13
HETATM   13  C   UNL     1      40.075 -13.798  -0.772  1.00  0.00    -0.017 A 
HETATM   14  C   UNL     1      39.036 -14.243  -1.610  1.00  0.00     0.047 A 
HETATM   15  C   UNL     1      38.755 -13.565  -2.792  1.00  0.00     0.066 A 
HETATM   16  C   UNL     1      39.497 -12.454  -3.170  1.00  0.00     0.036 A 
HETATM   17  C   UNL     1      40.525 -11.997  -2.346  1.00  0.00     0.003 A 
HETATM   18  C   UNL     1      40.808 -12.659  -1.150  1.00  0.00     0.011 A 
BRANCH  15  19
HETATM   19  O   UNL     1      37.741 -13.963  -3.612  1.00  0.00    -0.361 OA
HETATM   20  H   UNL     1      36.978 -13.378  -3.471  1.00  0.00     0.217 HD
ENDBRANCH  15  19
ENDBRANCH   7  13
BRANCH   1  21
HETATM   21  N   UNL     1      38.946 -12.739   1.649  1.00  0.00    -0.123 NA
HETATM   22  H   UNL     1      38.128 -12.979   2.223  1.00  0.00     0.165 HD
BRANCH  21  23
HETATM   23  S   UNL     1      39.319 -11.111   1.988  1.00  0.00     0.222 S 
HETATM   24  C   UNL     1      38.571 -10.253   0.618  1.00  0.00     0.181 C 
HETATM   25  O   UNL     1      40.759 -10.952   1.973  1.00  0.00    -0.210 OA
HETATM   26  O   UNL     1      38.569 -10.804   3.188  1.00  0.00    -0.210 OA
ENDBRANCH  21  23
ENDBRANCH   1  21
TORSDOF 4
ENDMDL
MODEL 8
REMARK VINA RESULT:      -7.0      2.567      4.853
REMARK  4 active torsions:
REMARK  status: ('A' for Active; 'I' for Inactive)
REMARK    1  A    between atoms: S_2  and  N_3 
REMARK    2  A    between atoms: N_3  and  N_4 
REMARK    3  A    between atoms: C_10  and  C_11 
REMARK    4  A    between atoms: C_13  and  O_14 
ROOT
HETATM    1  N   UNL     1      43.071 -12.407   5.725  1.00  0.00    -0.241 N 
HETATM    2  C   UNL     1      42.625 -13.476   4.950  1.00  0.00     0.272 C 
HETATM    3  O   UNL     1      42.060 -13.361   3.864  1.00  0.00    -0.266 OA
HETATM    4  C   UNL     1      42.805 -14.817   5.562  1.00  0.00     0.054 A 
HETATM    5  C   UNL     1      43.336 -14.898   6.859  1.00  0.00     0.026 A 
HETATM    6  N   UNL     1      43.714 -13.739   7.568  1.00  0.00    -0.265 NA
HETATM    7  C   UNL     1      44.147 -12.662   6.678  1.00  0.00     0.217 C 
HETATM    8  C   UNL     1      42.403 -15.968   4.874  1.00  0.00     0.019 A 
HETATM    9  C   UNL     1      42.482 -17.209   5.504  1.00  0.00     0.001 A 
HETATM   10  C   UNL     1      42.936 -17.292   6.819  1.00  0.00     0.002 A 
HETATM   11  C   UNL     1      43.348 -16.142   7.498  1.00  0.00     0.024 A 
HETATM   12  H   UNL     1      44.407 -13.939   8.284  1.00  0.00     0.130 HD
ENDROOT
BRANCH   7  13
HETATM   13  C   UNL     1      44.558 -11.453   7.502  1.00  0.00    -0.017 A 
HETATM   14  C   UNL     1      45.716 -10.736   7.151  1.00  0.00     0.047 A 
HETATM   15  C   UNL     1      46.081  -9.603   7.872  1.00  0.00     0.066 A 
HETATM   16  C   UNL     1      45.321  -9.171   8.950  1.00  0.00     0.036 A 
HETATM   17  C   UNL     1      44.166  -9.867   9.306  1.00  0.00     0.003 A 
HETATM   18  C   UNL     1      43.781 -10.997   8.582  1.00  0.00     0.011 A 
BRANCH  15  19
HETATM   19  O   UNL     1      47.186  -8.879   7.540  1.00  0.00    -0.361 OA
HETATM   20  H   UNL     1      47.862  -9.483   7.189  1.00  0.00     0.217 HD
ENDBRANCH  15  19
ENDBRANCH   7  13
BRANCH   1  21
HETATM   21  N   UNL     1      43.023 -11.042   5.109  1.00  0.00    -0.123 NA
HETATM   22  H   UNL     1      43.114 -11.036   4.085  1.00  0.00     0.165 HD
BRANCH  21  23
HETATM   23  S   UNL     1      41.673 -10.071   5.483  1.00  0.00     0.222 S 
HETATM   24  C   UNL     1      41.015  -9.692   3.872  1.00  0.00     0.181 C 
HETATM   25  O   UNL     1      42.137  -8.869   6.147  1.00  0.00    -0.210 OA
HETATM   26  O   UNL     1      40.754 -10.963   6.158  1.00  0.00    -0.210 OA
ENDBRANCH  21  23
ENDBRANCH   1  21
TORSDOF 4
ENDMDL
MODEL 9
REMARK VINA RESULT:      -6.7      7.718     11.820
REMARK  4 active torsions:
REMARK  status: ('A' for Active; 'I' for Inactive)
REMARK    1  A    between atoms: S_2  and  N_3 
REMARK    2  A    between atoms: N_3  and  N_4 
REMARK    3  A    between atoms: C_10  and  C_11 
REMARK    4  A    between atoms: C_13  and  O_14 
ROOT
HETATM    1  N   UNL     1      39.940  -7.784  12.772  1.00  0.00    -0.241 N 
HETATM    2  C   UNL     1      38.909  -7.178  13.487  1.00  0.00     0.272 C 
HETATM    3  O   UNL     1      37.722  -7.220  13.169  1.00  0.00    -0.266 OA
HETATM    4  C   UNL     1      39.341  -6.379  14.661  1.00  0.00     0.054 A 
HETATM    5  C   UNL     1      40.716  -6.247  14.915  1.00  0.00     0.026 A 
HETATM    6  N   UNL     1      41.675  -6.875  14.094  1.00  0.00    -0.265 NA
HETATM    7  C   UNL     1      41.168  -8.108  13.493  1.00  0.00     0.217 C 
HETATM    8  C   UNL     1      38.394  -5.729  15.462  1.00  0.00     0.019 A 
HETATM    9  C   UNL     1      38.821  -4.898  16.497  1.00  0.00     0.001 A 
HETATM   10  C   UNL     1      40.185  -4.701  16.710  1.00  0.00     0.002 A 
HETATM   11  C   UNL     1      41.127  -5.361  15.916  1.00  0.00     0.024 A 
HETATM   12  H   UNL     1      42.554  -7.025  14.580  1.00  0.00     0.130 HD
ENDROOT
BRANCH   7  13
HETATM   13  C   UNL     1      42.252  -8.742  12.638  1.00  0.00    -0.017 A 
HETATM   14  C   UNL     1      42.478 -10.128  12.720  1.00  0.00     0.047 A 
HETATM   15  C   UNL     1      43.439 -10.728  11.913  1.00  0.00     0.066 A 
HETATM   16  C   UNL     1      44.196  -9.973  11.027  1.00  0.00     0.036 A 
HETATM   17  C   UNL     1      43.979  -8.599  10.929  1.00  0.00     0.003 A 
HETATM   18  C   UNL     1      43.007  -7.987  11.723  1.00  0.00     0.011 A 
BRANCH  15  19
HETATM   19  O   UNL     1      43.663 -12.071  11.959  1.00  0.00    -0.361 OA
HETATM   20  H   UNL     1      44.272 -12.262  12.692  1.00  0.00     0.217 HD
ENDBRANCH  15  19
ENDBRANCH   7  13
BRANCH   1  21
HETATM   21  N   UNL     1      39.555  -8.699  11.648  1.00  0.00    -0.123 NA
HETATM   22  H   UNL     1      38.649  -9.167  11.776  1.00  0.00     0.165 HD
BRANCH  21  23
HETATM   23  S   UNL     1      39.544  -8.035  10.079  1.00  0.00     0.222 S 
HETATM   24  C   UNL     1      40.641  -9.124   9.194  1.00  0.00     0.181 C 
HETATM   25  O   UNL     1      40.088  -6.693  10.140  1.00  0.00    -0.210 OA
HETATM   26  O   UNL     1      38.195  -8.249   9.598  1.00  0.00    -0.210 OA
ENDBRANCH  21  23
ENDBRANCH   1  21
TORSDOF 4
ENDMDL
MODEL 10
REMARK VINA RESULT:      -6.7      2.584      4.348
REMARK  4 active torsions:
REMARK  status: ('A' for Active; 'I' for Inactive)
REMARK    1  A    between atoms: S_2  and  N_3 
REMARK    2  A    between atoms: N_3  and  N_4 
REMARK    3  A    between atoms: C_10  and  C_11 
REMARK    4  A    between atoms: C_13  and  O_14 
ROOT
HETATM    1  N   UNL     1      42.713 -12.212   4.867  1.00  0.00    -0.241 N 
HETATM    2  C   UNL     1      42.154 -12.961   3.833  1.00  0.00     0.272 C 
HETATM    3  O   UNL     1      41.421 -12.503   2.958  1.00  0.00    -0.266 OA
HETATM    4  C   UNL     1      42.436 -14.418   3.886  1.00  0.00     0.054 A 
HETATM    5  C   UNL     1      43.167 -14.922   4.973  1.00  0.00     0.026 A 
HETATM    6  N   UNL     1      43.649 -14.070   5.988  1.00  0.00    -0.265 NA
HETATM    7  C   UNL     1      43.930 -12.722   5.493  1.00  0.00     0.217 C 
HETATM    8  C   UNL     1      41.933 -15.272   2.896  1.00  0.00     0.019 A 
HETATM    9  C   UNL     1      42.118 -16.648   3.016  1.00  0.00     0.001 A 
HETATM   10  C   UNL     1      42.777 -17.166   4.130  1.00  0.00     0.002 A 
HETATM   11  C   UNL     1      43.288 -16.308   5.110  1.00  0.00     0.024 A 
HETATM   12  H   UNL     1      44.449 -14.469   6.473  1.00  0.00     0.130 HD
ENDROOT
BRANCH   7  13
HETATM   13  C   UNL     1      44.461 -11.863   6.628  1.00  0.00    -0.017 A 
HETATM   14  C   UNL     1      43.766 -11.823   7.851  1.00  0.00     0.047 A 
HETATM   15  C   UNL     1      44.263 -11.073   8.912  1.00  0.00     0.066 A 
HETATM   16  C   UNL     1      45.438 -10.346   8.780  1.00  0.00     0.036 A 
HETATM   17  C   UNL     1      46.143 -10.381   7.577  1.00  0.00     0.003 A 
HETATM   18  C   UNL     1      45.662 -11.142   6.509  1.00  0.00     0.011 A 
BRANCH  15  19
HETATM   19  O   UNL     1      43.620 -11.033  10.112  1.00  0.00    -0.361 OA
HETATM   20  H   UNL     1      42.761 -11.480  10.022  1.00  0.00     0.217 HD
ENDBRANCH  15  19
ENDBRANCH   7  13
BRANCH   1  21
HETATM   21  N   UNL     1      42.561 -10.723   4.799  1.00  0.00    -0.123 NA
HETATM   22  H   UNL     1      42.583 -10.338   3.846  1.00  0.00     0.165 HD
BRANCH  21  23
HETATM   23  S   UNL     1      41.197 -10.049   5.566  1.00  0.00     0.222 S 
HETATM   24  C   UNL     1      41.920  -8.796   6.606  1.00  0.00     0.181 C 
HETATM   25  O   UNL     1      40.559 -11.076   6.363  1.00  0.00    -0.210 OA
HETATM   26  O   UNL     1      40.461  -9.396   4.503  1.00  0.00    -0.210 OA
ENDBRANCH  21  23
ENDBRANCH   1  21
TORSDOF 4
ENDMDL
