MODEL 1
REMARK VINA RESULT:      -8.1      0.000      0.000
REMARK  5 active torsions:
REMARK  status: ('A' for Active; 'I' for Inactive)
REMARK    1  A    between atoms: C_2  and  C_3 
REMARK    2  A    between atoms: C_6  and  C_7 
REMARK    3  A    between atoms: C_7  and  C_8 
REMARK       I    between atoms: C_8  and  N_9 
REMARK    4  A    between atoms: N_9  and  C_10 
REMARK    5  A    between atoms: C_12  and  C_13 
ROOT
HETATM    1  C   UNL     1      41.464 -13.943   3.498  1.00  0.00     0.226 C 
HETATM    2  N   UNL     1      41.518 -13.149   2.365  1.00  0.00    -0.327 N 
HETATM    3  O   UNL     1      40.438 -14.339   4.048  1.00  0.00    -0.273 OA
HETATM    4  H   UNL     1      42.431 -12.793   2.104  1.00  0.00     0.169 HD
ENDROOT
BRANCH   2   5
HETATM    5  C   UNL     1      40.432 -12.694   1.586  1.00  0.00     0.035 A 
HETATM    6  C   UNL     1      40.080 -13.238   0.346  1.00  0.00     0.042 A 
HETATM    7  C   UNL     1      38.999 -12.731  -0.399  1.00  0.00    -0.021 A 
HETATM    8  C   UNL     1      38.268 -11.661   0.133  1.00  0.00     0.012 A 
HETATM    9  C   UNL     1      38.613 -11.106   1.366  1.00  0.00     0.003 A 
HETATM   10  C   UNL     1      39.694 -11.616   2.085  1.00  0.00     0.029 A 
BRANCH   7  11
HETATM   11  C   UNL     1      38.646 -13.286  -1.703  1.00  0.00     0.010 A 
HETATM   12  C   UNL     1      39.353 -14.166  -2.561  1.00  0.00     0.152 A 
HETATM   13  N   UNL     1      38.688 -14.451  -3.683  1.00  0.00    -0.187 NA
HETATM   14  N   UNL     1      37.547 -13.758  -3.552  1.00  0.00    -0.289 N 
HETATM   15  H   UNL     1      36.858 -13.817  -4.295  1.00  0.00     0.188 HD
HETATM   16  C   UNL     1      37.475 -13.045  -2.392  1.00  0.00     0.123 A 
ENDBRANCH   7  11
ENDBRANCH   2   5
BRANCH   1  17
HETATM   17  C   UNL     1      42.819 -14.405   4.016  1.00  0.00     0.141 C 
BRANCH  17  18
HETATM   18  C   UNL     1      43.180 -15.853   3.780  1.00  0.00    -0.049 A 
HETATM   19  C   UNL     1      43.711 -16.643   4.807  1.00  0.00     0.008 A 
HETATM   20  C   UNL     1      43.989 -17.997   4.593  1.00  0.00     0.007 A 
HETATM   21  C   UNL     1      43.742 -18.594   3.351  1.00  0.00    -0.059 A 
HETATM   22  C   UNL     1      43.195 -17.802   2.332  1.00  0.00     0.007 A 
HETATM   23  C   UNL     1      42.919 -16.448   2.541  1.00  0.00     0.008 A 
BRANCH  21  24
HETATM   24  C   UNL     1      43.953 -20.068   3.083  1.00  0.00     0.034 C 
HETATM   25  C   UNL     1      43.554 -20.566   1.699  1.00  0.00     0.010 C 
ENDBRANCH  21  24
ENDBRANCH  17  18
ENDBRANCH   1  17
TORSDOF 5
ENDMDL
MODEL 2
REMARK VINA RESULT:      -8.1      2.993      7.851
REMARK  5 active torsions:
REMARK  status: ('A' for Active; 'I' for Inactive)
REMARK    1  A    between atoms: C_2  and  C_3 
REMARK    2  A    between atoms: C_6  and  C_7 
REMARK    3  A    between atoms: C_7  and  C_8 
REMARK       I    between atoms: C_8  and  N_9 
REMARK    4  A    between atoms: N_9  and  C_10 
REMARK    5  A    between atoms: C_12  and  C_13 
ROOT
HETATM    1  C   UNL     1      42.428 -13.727   2.809  1.00  0.00     0.226 C 
HETATM    2  N   UNL     1      42.072 -14.555   3.860  1.00  0.00    -0.327 N 
HETATM    3  O   UNL     1      43.518 -13.715   2.242  1.00  0.00    -0.273 OA
HETATM    4  H   UNL     1      41.186 -14.360   4.311  1.00  0.00     0.169 HD
ENDROOT
BRANCH   2   5
HETATM    5  C   UNL     1      42.850 -15.578   4.444  1.00  0.00     0.035 A 
HETATM    6  C   UNL     1      42.976 -16.865   3.906  1.00  0.00     0.042 A 
HETATM    7  C   UNL     1      43.749 -17.854   4.541  1.00  0.00    -0.021 A 
HETATM    8  C   UNL     1      44.405 -17.523   5.734  1.00  0.00     0.012 A 
HETATM    9  C   UNL     1      44.282 -16.246   6.283  1.00  0.00     0.003 A 
HETATM   10  C   UNL     1      43.504 -15.281   5.643  1.00  0.00     0.029 A 
BRANCH   7  11
HETATM   11  C   UNL     1      43.861 -19.202   3.991  1.00  0.00     0.010 A 
HETATM   12  C   UNL     1      43.716 -19.680   2.664  1.00  0.00     0.152 A 
HETATM   13  N   UNL     1      43.901 -20.998   2.558  1.00  0.00    -0.187 NA
HETATM   14  N   UNL     1      44.169 -21.376   3.816  1.00  0.00    -0.289 N 
HETATM   15  H   UNL     1      44.354 -22.357   3.996  1.00  0.00     0.188 HD
HETATM   16  C   UNL     1      44.154 -20.344   4.708  1.00  0.00     0.123 A 
ENDBRANCH   7  11
ENDBRANCH   2   5
BRANCH   1  17
HETATM   17  C   UNL     1      41.305 -12.835   2.296  1.00  0.00     0.141 C 
BRANCH  17  18
HETATM   18  C   UNL     1      40.809 -13.103   0.895  1.00  0.00    -0.049 A 
HETATM   19  C   UNL     1      40.155 -14.300   0.575  1.00  0.00     0.008 A 
HETATM   20  C   UNL     1      39.650 -14.514  -0.712  1.00  0.00     0.007 A 
HETATM   21  C   UNL     1      39.785 -13.540  -1.708  1.00  0.00    -0.059 A 
HETATM   22  C   UNL     1      40.427 -12.338  -1.378  1.00  0.00     0.007 A 
HETATM   23  C   UNL     1      40.935 -12.122  -0.094  1.00  0.00     0.008 A 
BRANCH  21  24
HETATM   24  C   UNL     1      39.196 -13.685  -3.094  1.00  0.00     0.034 C 
HETATM   25  C   UNL     1      38.386 -14.949  -3.354  1.00  0.00     0.010 C 
ENDBRANCH  21  24
ENDBRANCH  17  18
ENDBRANCH   1  17
TORSDOF 5
ENDMDL
MODEL 3
REMARK VINA RESULT:      -8.0      5.394      8.826
REMARK  5 active torsions:
REMARK  status: ('A' for Active; 'I' for Inactive)
REMARK    1  A    between atoms: C_2  and  C_3 
REMARK    2  A    between atoms: C_6  and  C_7 
REMARK    3  A    between atoms: C_7  and  C_8 
REMARK       I    between atoms: C_8  and  N_9 
REMARK    4  A    between atoms: N_9  and  C_10 
REMARK    5  A    between atoms: C_12  and  C_13 
ROOT
HETATM    1  C   UNL     1      43.304 -13.742   6.092  1.00  0.00     0.226 C 
HETATM    2  N   UNL     1      43.953 -12.537   5.883  1.00  0.00    -0.327 N 
HETATM    3  O   UNL     1      43.207 -14.327   7.169  1.00  0.00    -0.273 OA
HETATM    4  H   UNL     1      44.064 -12.243   4.919  1.00  0.00     0.169 HD
ENDROOT
BRANCH   2   5
HETATM    5  C   UNL     1      44.568 -11.717   6.853  1.00  0.00     0.035 A 
HETATM    6  C   UNL     1      43.939 -11.297   8.031  1.00  0.00     0.042 A 
HETATM    7  C   UNL     1      44.592 -10.462   8.956  1.00  0.00    -0.021 A 
HETATM    8  C   UNL     1      45.903 -10.056   8.676  1.00  0.00     0.012 A 
HETATM    9  C   UNL     1      46.539 -10.462   7.502  1.00  0.00     0.003 A 
HETATM   10  C   UNL     1      45.871 -11.283   6.593  1.00  0.00     0.029 A 
BRANCH   7  11
HETATM   11  C   UNL     1      43.927 -10.008  10.174  1.00  0.00     0.010 A 
HETATM   12  C   UNL     1      43.595 -10.700  11.366  1.00  0.00     0.152 A 
HETATM   13  N   UNL     1      42.985  -9.928  12.269  1.00  0.00    -0.187 NA
HETATM   14  N   UNL     1      42.924  -8.733  11.664  1.00  0.00    -0.289 N 
HETATM   15  H   UNL     1      42.497  -7.960  12.164  1.00  0.00     0.188 HD
HETATM   16  C   UNL     1      43.469  -8.728  10.413  1.00  0.00     0.123 A 
ENDBRANCH   7  11
ENDBRANCH   2   5
BRANCH   1  17
HETATM   17  C   UNL     1      42.596 -14.303   4.866  1.00  0.00     0.141 C 
BRANCH  17  18
HETATM   18  C   UNL     1      43.019 -15.679   4.406  1.00  0.00    -0.049 A 
HETATM   19  C   UNL     1      43.866 -16.475   5.187  1.00  0.00     0.008 A 
HETATM   20  C   UNL     1      44.205 -17.769   4.777  1.00  0.00     0.007 A 
HETATM   21  C   UNL     1      43.707 -18.297   3.580  1.00  0.00    -0.059 A 
HETATM   22  C   UNL     1      42.848 -17.501   2.810  1.00  0.00     0.007 A 
HETATM   23  C   UNL     1      42.509 -16.207   3.215  1.00  0.00     0.008 A 
BRANCH  21  24
HETATM   24  C   UNL     1      43.980 -19.713   3.122  1.00  0.00     0.034 C 
HETATM   25  C   UNL     1      43.221 -20.180   1.886  1.00  0.00     0.010 C 
ENDBRANCH  21  24
ENDBRANCH  17  18
ENDBRANCH   1  17
TORSDOF 5
ENDMDL
MODEL 4
REMARK VINA RESULT:      -7.6      4.431      8.317
REMARK  5 active torsions:
REMARK  status: ('A' for Active; 'I' for Inactive)
REMARK    1  A    between atoms: C_2  and  C_3 
REMARK    2  A    between atoms: C_6  and  C_7 
REMARK    3  A    between atoms: C_7  and  C_8 
REMARK       I    between atoms: C_8  and  N_9 
REMARK    4  A    between atoms: N_9  and  C_10 
REMARK    5  A    between atoms: C_12  and  C_13 
ROOT
HETATM    1  C   UNL     1      42.218 -12.496   4.323  1.00  0.00     0.226 C 
HETATM    2  N   UNL     1      43.150 -13.149   3.533  1.00  0.00    -0.327 N 
HETATM    3  O   UNL     1      41.203 -13.000   4.800  1.00  0.00    -0.273 OA
HETATM    4  H   UNL     1      43.865 -12.572   3.104  1.00  0.00     0.169 HD
ENDROOT
BRANCH   2   5
HETATM    5  C   UNL     1      43.159 -14.514   3.172  1.00  0.00     0.035 A 
HETATM    6  C   UNL     1      43.308 -15.561   4.089  1.00  0.00     0.042 A 
HETATM    7  C   UNL     1      43.332 -16.905   3.672  1.00  0.00    -0.021 A 
HETATM    8  C   UNL     1      43.196 -17.181   2.305  1.00  0.00     0.012 A 
HETATM    9  C   UNL     1      43.054 -16.145   1.381  1.00  0.00     0.003 A 
HETATM   10  C   UNL     1      43.041 -14.818   1.812  1.00  0.00     0.029 A 
BRANCH   7  11
HETATM   11  C   UNL     1      43.508 -17.996   4.627  1.00  0.00     0.010 A 
HETATM   12  C   UNL     1      43.203 -18.080   6.009  1.00  0.00     0.152 A 
HETATM   13  N   UNL     1      43.512 -19.264   6.543  1.00  0.00    -0.187 NA
HETATM   14  N   UNL     1      44.016 -19.950   5.507  1.00  0.00    -0.289 N 
HETATM   15  H   UNL     1      44.326 -20.903   5.664  1.00  0.00     0.188 HD
HETATM   16  C   UNL     1      44.039 -19.238   4.344  1.00  0.00     0.123 A 
ENDBRANCH   7  11
ENDBRANCH   2   5
BRANCH   1  17
HETATM   17  C   UNL     1      42.576 -11.058   4.669  1.00  0.00     0.141 C 
BRANCH  17  18
HETATM   18  C   UNL     1      43.274 -10.829   5.989  1.00  0.00    -0.049 A 
HETATM   19  C   UNL     1      44.555 -11.343   6.229  1.00  0.00     0.008 A 
HETATM   20  C   UNL     1      45.214 -11.077   7.434  1.00  0.00     0.007 A 
HETATM   21  C   UNL     1      44.612 -10.293   8.425  1.00  0.00    -0.059 A 
HETATM   22  C   UNL     1      43.336  -9.768   8.172  1.00  0.00     0.007 A 
HETATM   23  C   UNL     1      42.674 -10.034   6.971  1.00  0.00     0.008 A 
BRANCH  21  24
HETATM   24  C   UNL     1      45.304  -9.912   9.715  1.00  0.00     0.034 C 
HETATM   25  C   UNL     1      44.539 -10.198  11.002  1.00  0.00     0.010 C 
ENDBRANCH  21  24
ENDBRANCH  17  18
ENDBRANCH   1  17
TORSDOF 5
ENDMDL
MODEL 5
REMARK VINA RESULT:      -7.4      4.942      8.033
REMARK  5 active torsions:
REMARK  status: ('A' for Active; 'I' for Inactive)
REMARK    1  A    between atoms: C_2  and  C_3 
REMARK    2  A    between atoms: C_6  and  C_7 
REMARK    3  A    between atoms: C_7  and  C_8 
REMARK       I    between atoms: C_8  and  N_9 
REMARK    4  A    between atoms: N_9  and  C_10 
REMARK    5  A    between atoms: C_12  and  C_13 
ROOT
HETATM    1  C   UNL     1      42.545 -13.189   5.235  1.00  0.00     0.226 C 
HETATM    2  N   UNL     1      43.625 -12.327   5.161  1.00  0.00    -0.327 N 
HETATM    3  O   UNL     1      41.867 -13.407   6.238  1.00  0.00    -0.273 OA
HETATM    4  H   UNL     1      44.166 -12.351   4.304  1.00  0.00     0.169 HD
ENDROOT
BRANCH   2   5
HETATM    5  C   UNL     1      44.123 -11.489   6.182  1.00  0.00     0.035 A 
HETATM    6  C   UNL     1      43.368 -10.491   6.809  1.00  0.00     0.042 A 
HETATM    7  C   UNL     1      43.922  -9.669   7.808  1.00  0.00    -0.021 A 
HETATM    8  C   UNL     1      45.258  -9.875   8.175  1.00  0.00     0.012 A 
HETATM    9  C   UNL     1      46.023 -10.863   7.553  1.00  0.00     0.003 A 
HETATM   10  C   UNL     1      45.459 -11.662   6.558  1.00  0.00     0.029 A 
BRANCH   7  11
HETATM   11  C   UNL     1      43.139  -8.614   8.445  1.00  0.00     0.010 A 
HETATM   12  C   UNL     1      43.529  -7.356   8.972  1.00  0.00     0.152 A 
HETATM   13  N   UNL     1      42.507  -6.659   9.476  1.00  0.00    -0.187 NA
HETATM   14  N   UNL     1      41.453  -7.464   9.274  1.00  0.00    -0.289 N 
HETATM   15  H   UNL     1      40.538  -7.145   9.575  1.00  0.00     0.188 HD
HETATM   16  C   UNL     1      41.777  -8.641   8.666  1.00  0.00     0.123 A 
ENDBRANCH   7  11
ENDBRANCH   2   5
BRANCH   1  17
HETATM   17  C   UNL     1      42.152 -13.831   3.911  1.00  0.00     0.141 C 
BRANCH  17  18
HETATM   18  C   UNL     1      42.573 -15.266   3.699  1.00  0.00    -0.049 A 
HETATM   19  C   UNL     1      42.322 -15.923   2.488  1.00  0.00     0.008 A 
HETATM   20  C   UNL     1      42.766 -17.234   2.283  1.00  0.00     0.007 A 
HETATM   21  C   UNL     1      43.471 -17.918   3.280  1.00  0.00    -0.059 A 
HETATM   22  C   UNL     1      43.733 -17.250   4.485  1.00  0.00     0.007 A 
HETATM   23  C   UNL     1      43.288 -15.941   4.694  1.00  0.00     0.008 A 
BRANCH  21  24
HETATM   24  C   UNL     1      44.038 -19.307   3.089  1.00  0.00     0.034 C 
HETATM   25  C   UNL     1      43.418 -20.143   1.976  1.00  0.00     0.010 C 
ENDBRANCH  21  24
ENDBRANCH  17  18
ENDBRANCH   1  17
TORSDOF 5
ENDMDL
MODEL 6
REMARK VINA RESULT:      -7.1      2.054      3.069
REMARK  5 active torsions:
REMARK  status: ('A' for Active; 'I' for Inactive)
REMARK    1  A    between atoms: C_2  and  C_3 
REMARK    2  A    between atoms: C_6  and  C_7 
REMARK    3  A    between atoms: C_7  and  C_8 
REMARK       I    between atoms: C_8  and  N_9 
REMARK    4  A    between atoms: N_9  and  C_10 
REMARK    5  A    between atoms: C_12  and  C_13 
ROOT
HETATM    1  C   UNL     1      41.023 -13.880   2.141  1.00  0.00     0.226 C 
HETATM    2  N   UNL     1      41.102 -13.401   0.844  1.00  0.00    -0.327 N 
HETATM    3  O   UNL     1      39.991 -14.208   2.723  1.00  0.00    -0.273 OA
HETATM    4  H   UNL     1      42.004 -13.048   0.546  1.00  0.00     0.169 HD
ENDROOT
BRANCH   2   5
HETATM    5  C   UNL     1      40.045 -13.254  -0.079  1.00  0.00     0.035 A 
HETATM    6  C   UNL     1      39.177 -12.156  -0.103  1.00  0.00     0.042 A 
HETATM    7  C   UNL     1      38.125 -12.070  -1.034  1.00  0.00    -0.021 A 
HETATM    8  C   UNL     1      37.963 -13.114  -1.953  1.00  0.00     0.012 A 
HETATM    9  C   UNL     1      38.817 -14.218  -1.935  1.00  0.00     0.003 A 
HETATM   10  C   UNL     1      39.849 -14.289  -0.999  1.00  0.00     0.029 A 
BRANCH   7  11
HETATM   11  C   UNL     1      37.208 -10.933  -1.043  1.00  0.00     0.010 A 
HETATM   12  C   UNL     1      36.651 -10.179   0.020  1.00  0.00     0.152 A 
HETATM   13  N   UNL     1      35.847  -9.199  -0.397  1.00  0.00    -0.187 NA
HETATM   14  N   UNL     1      35.883  -9.315  -1.733  1.00  0.00    -0.289 N 
HETATM   15  H   UNL     1      35.341  -8.662  -2.289  1.00  0.00     0.188 HD
HETATM   16  C   UNL     1      36.677 -10.335  -2.168  1.00  0.00     0.123 A 
ENDBRANCH   7  11
ENDBRANCH   2   5
BRANCH   1  17
HETATM   17  C   UNL     1      42.367 -14.078   2.828  1.00  0.00     0.141 C 
BRANCH  17  18
HETATM   18  C   UNL     1      42.784 -15.502   3.111  1.00  0.00    -0.049 A 
HETATM   19  C   UNL     1      42.690 -16.493   2.126  1.00  0.00     0.008 A 
HETATM   20  C   UNL     1      43.131 -17.796   2.381  1.00  0.00     0.007 A 
HETATM   21  C   UNL     1      43.677 -18.139   3.624  1.00  0.00    -0.059 A 
HETATM   22  C   UNL     1      43.782 -17.138   4.601  1.00  0.00     0.007 A 
HETATM   23  C   UNL     1      43.340 -15.836   4.350  1.00  0.00     0.008 A 
BRANCH  21  24
HETATM   24  C   UNL     1      44.237 -19.509   3.934  1.00  0.00     0.034 C 
HETATM   25  C   UNL     1      43.934 -20.064   5.320  1.00  0.00     0.010 C 
ENDBRANCH  21  24
ENDBRANCH  17  18
ENDBRANCH   1  17
TORSDOF 5
ENDMDL
MODEL 7
REMARK VINA RESULT:      -7.1     14.786     18.324
REMARK  5 active torsions:
REMARK  status: ('A' for Active; 'I' for Inactive)
REMARK    1  A    between atoms: C_2  and  C_3 
REMARK    2  A    between atoms: C_6  and  C_7 
REMARK    3  A    between atoms: C_7  and  C_8 
REMARK       I    between atoms: C_8  and  N_9 
REMARK    4  A    between atoms: N_9  and  C_10 
REMARK    5  A    between atoms: C_12  and  C_13 
ROOT
HETATM    1  C   UNL     1      46.700 -28.060  -0.126  1.00  0.00     0.226 C 
HETATM    2  N   UNL     1      46.732 -28.864   1.000  1.00  0.00    -0.327 N 
HETATM    3  O   UNL     1      47.680 -27.586  -0.698  1.00  0.00    -0.273 OA
HETATM    4  H   UNL     1      45.840 -29.070   1.436  1.00  0.00     0.169 HD
ENDROOT
BRANCH   2   5
HETATM    5  C   UNL     1      47.874 -29.349   1.674  1.00  0.00     0.035 A 
HETATM    6  C   UNL     1      48.666 -30.404   1.207  1.00  0.00     0.042 A 
HETATM    7  C   UNL     1      49.783 -30.861   1.930  1.00  0.00    -0.021 A 
HETATM    8  C   UNL     1      50.097 -30.229   3.139  1.00  0.00     0.012 A 
HETATM    9  C   UNL     1      49.312 -29.180   3.620  1.00  0.00     0.003 A 
HETATM   10  C   UNL     1      48.202 -28.747   2.893  1.00  0.00     0.029 A 
BRANCH   7  11
HETATM   11  C   UNL     1      50.595 -31.977   1.451  1.00  0.00     0.010 A 
HETATM   12  C   UNL     1      50.721 -33.306   1.927  1.00  0.00     0.152 A 
HETATM   13  N   UNL     1      51.574 -34.041   1.209  1.00  0.00    -0.187 NA
HETATM   14  N   UNL     1      51.999 -33.189   0.264  1.00  0.00    -0.289 N 
HETATM   15  H   UNL     1      52.668 -33.524  -0.422  1.00  0.00     0.188 HD
HETATM   16  C   UNL     1      51.448 -31.946   0.367  1.00  0.00     0.123 A 
ENDBRANCH   7  11
ENDBRANCH   2   5
BRANCH   1  17
HETATM   17  C   UNL     1      45.313 -27.847  -0.716  1.00  0.00     0.141 C 
BRANCH  17  18
HETATM   18  C   UNL     1      44.988 -28.602  -1.983  1.00  0.00    -0.049 A 
HETATM   19  C   UNL     1      44.346 -29.846  -1.939  1.00  0.00     0.008 A 
HETATM   20  C   UNL     1      44.000 -30.511  -3.120  1.00  0.00     0.007 A 
HETATM   21  C   UNL     1      44.284 -29.950  -4.371  1.00  0.00    -0.059 A 
HETATM   22  C   UNL     1      44.912 -28.697  -4.408  1.00  0.00     0.007 A 
HETATM   23  C   UNL     1      45.263 -28.031  -3.229  1.00  0.00     0.008 A 
BRANCH  21  24
HETATM   24  C   UNL     1      43.869 -30.586  -5.678  1.00  0.00     0.034 C 
HETATM   25  C   UNL     1      44.955 -31.341  -6.436  1.00  0.00     0.010 C 
ENDBRANCH  21  24
ENDBRANCH  17  18
ENDBRANCH   1  17
TORSDOF 5
ENDMDL
MODEL 8
REMARK VINA RESULT:      -7.0      5.972      8.923
REMARK  5 active torsions:
REMARK  status: ('A' for Active; 'I' for Inactive)
REMARK    1  A    between atoms: C_2  and  C_3 
REMARK    2  A    between atoms: C_6  and  C_7 
REMARK    3  A    between atoms: C_7  and  C_8 
REMARK       I    between atoms: C_8  and  N_9 
REMARK    4  A    between atoms: N_9  and  C_10 
REMARK    5  A    between atoms: C_12  and  C_13 
ROOT
HETATM    1  C   UNL     1      43.607 -11.492   7.088  1.00  0.00     0.226 C 
HETATM    2  N   UNL     1      43.956 -12.830   7.012  1.00  0.00    -0.327 N 
HETATM    3  O   UNL     1      42.517 -11.017   6.778  1.00  0.00    -0.273 OA
HETATM    4  H   UNL     1      44.931 -13.054   7.176  1.00  0.00     0.169 HD
ENDROOT
BRANCH   2   5
HETATM    5  C   UNL     1      43.130 -13.910   6.633  1.00  0.00     0.035 A 
HETATM    6  C   UNL     1      42.380 -13.940   5.452  1.00  0.00     0.042 A 
HETATM    7  C   UNL     1      41.555 -15.034   5.132  1.00  0.00    -0.021 A 
HETATM    8  C   UNL     1      41.501 -16.111   6.027  1.00  0.00     0.012 A 
HETATM    9  C   UNL     1      42.239 -16.090   7.211  1.00  0.00     0.003 A 
HETATM   10  C   UNL     1      43.044 -14.992   7.515  1.00  0.00     0.029 A 
BRANCH   7  11
HETATM   11  C   UNL     1      40.756 -15.055   3.910  1.00  0.00     0.010 A 
HETATM   12  C   UNL     1      40.554 -16.077   2.948  1.00  0.00     0.152 A 
HETATM   13  N   UNL     1      39.738 -15.710   1.957  1.00  0.00    -0.187 NA
HETATM   14  N   UNL     1      39.409 -14.450   2.276  1.00  0.00    -0.289 N 
HETATM   15  H   UNL     1      38.779 -13.945   1.662  1.00  0.00     0.188 HD
HETATM   16  C   UNL     1      39.992 -14.012   3.429  1.00  0.00     0.123 A 
ENDBRANCH   7  11
ENDBRANCH   2   5
BRANCH   1  17
HETATM   17  C   UNL     1      44.674 -10.591   7.693  1.00  0.00     0.141 C 
BRANCH  17  18
HETATM   18  C   UNL     1      44.252  -9.721   8.854  1.00  0.00    -0.049 A 
HETATM   19  C   UNL     1      43.964  -8.362   8.673  1.00  0.00     0.008 A 
HETATM   20  C   UNL     1      43.519  -7.580   9.744  1.00  0.00     0.007 A 
HETATM   21  C   UNL     1      43.352  -8.134  11.019  1.00  0.00    -0.059 A 
HETATM   22  C   UNL     1      43.627  -9.499  11.190  1.00  0.00     0.007 A 
HETATM   23  C   UNL     1      44.074 -10.283  10.122  1.00  0.00     0.008 A 
BRANCH  21  24
HETATM   24  C   UNL     1      42.806  -7.357  12.196  1.00  0.00     0.034 C 
HETATM   25  C   UNL     1      42.893  -8.041  13.555  1.00  0.00     0.010 C 
ENDBRANCH  21  24
ENDBRANCH  17  18
ENDBRANCH   1  17
TORSDOF 5
ENDMDL
MODEL 9
REMARK VINA RESULT:      -7.0     15.127     18.158
REMARK  5 active torsions:
REMARK  status: ('A' for Active; 'I' for Inactive)
REMARK    1  A    between atoms: C_2  and  C_3 
REMARK    2  A    between atoms: C_6  and  C_7 
REMARK    3  A    between atoms: C_7  and  C_8 
REMARK       I    between atoms: C_8  and  N_9 
REMARK    4  A    between atoms: N_9  and  C_10 
REMARK    5  A    between atoms: C_12  and  C_13 
ROOT
HETATM    1  C   UNL     1      47.699 -28.294   1.185  1.00  0.00     0.226 C 
HETATM    2  N   UNL     1      48.720 -29.222   1.301  1.00  0.00    -0.327 N 
HETATM    3  O   UNL     1      46.951 -27.933   2.091  1.00  0.00    -0.273 OA
HETATM    4  H   UNL     1      49.165 -29.516   0.439  1.00  0.00     0.169 HD
ENDROOT
BRANCH   2   5
HETATM    5  C   UNL     1      49.145 -29.884   2.473  1.00  0.00     0.035 A 
HETATM    6  C   UNL     1      48.272 -30.407   3.434  1.00  0.00     0.042 A 
HETATM    7  C   UNL     1      48.751 -31.040   4.596  1.00  0.00    -0.021 A 
HETATM    8  C   UNL     1      50.136 -31.144   4.774  1.00  0.00     0.012 A 
HETATM    9  C   UNL     1      51.017 -30.621   3.826  1.00  0.00     0.003 A 
HETATM   10  C   UNL     1      50.523 -29.989   2.685  1.00  0.00     0.029 A 
BRANCH   7  11
HETATM   11  C   UNL     1      47.838 -31.565   5.607  1.00  0.00     0.010 A 
HETATM   12  C   UNL     1      46.553 -31.129   6.017  1.00  0.00     0.152 A 
HETATM   13  N   UNL     1      46.027 -31.884   6.984  1.00  0.00    -0.187 NA
HETATM   14  N   UNL     1      46.969 -32.814   7.200  1.00  0.00    -0.289 N 
HETATM   15  H   UNL     1      46.795 -33.522   7.905  1.00  0.00     0.188 HD
HETATM   16  C   UNL     1      48.069 -32.666   6.408  1.00  0.00     0.123 A 
ENDBRANCH   7  11
ENDBRANCH   2   5
BRANCH   1  17
HETATM   17  C   UNL     1      47.594 -27.633  -0.183  1.00  0.00     0.141 C 
BRANCH  17  18
HETATM   18  C   UNL     1      46.613 -28.240  -1.159  1.00  0.00    -0.049 A 
HETATM   19  C   UNL     1      45.231 -28.099  -0.978  1.00  0.00     0.008 A 
HETATM   20  C   UNL     1      44.334 -28.617  -1.918  1.00  0.00     0.007 A 
HETATM   21  C   UNL     1      44.794 -29.285  -3.059  1.00  0.00    -0.059 A 
HETATM   22  C   UNL     1      46.178 -29.409  -3.242  1.00  0.00     0.007 A 
HETATM   23  C   UNL     1      47.078 -28.895  -2.303  1.00  0.00     0.008 A 
BRANCH  21  24
HETATM   24  C   UNL     1      43.875 -29.801  -4.144  1.00  0.00     0.034 C 
HETATM   25  C   UNL     1      44.326 -31.066  -4.865  1.00  0.00     0.010 C 
ENDBRANCH  21  24
ENDBRANCH  17  18
ENDBRANCH   1  17
TORSDOF 5
ENDMDL
MODEL 10
REMARK VINA RESULT:      -7.0      3.774      6.353
REMARK  5 active torsions:
REMARK  status: ('A' for Active; 'I' for Inactive)
REMARK    1  A    between atoms: C_2  and  C_3 
REMARK    2  A    between atoms: C_6  and  C_7 
REMARK    3  A    between atoms: C_7  and  C_8 
REMARK       I    between atoms: C_8  and  N_9 
REMARK    4  A    between atoms: N_9  and  C_10 
REMARK    5  A    between atoms: C_12  and  C_13 
ROOT
HETATM    1  C   UNL     1      42.025 -14.273   2.713  1.00  0.00     0.226 C 
HETATM    2  N   UNL     1      42.784 -13.119   2.812  1.00  0.00    -0.327 N 
HETATM    3  O   UNL     1      40.898 -14.433   3.178  1.00  0.00    -0.273 OA
HETATM    4  H   UNL     1      43.744 -13.180   2.494  1.00  0.00     0.169 HD
ENDROOT
BRANCH   2   5
HETATM    5  C   UNL     1      42.405 -11.894   3.402  1.00  0.00     0.035 A 
HETATM    6  C   UNL     1      42.535 -11.612   4.766  1.00  0.00     0.042 A 
HETATM    7  C   UNL     1      42.121 -10.379   5.305  1.00  0.00    -0.021 A 
HETATM    8  C   UNL     1      41.575  -9.424   4.439  1.00  0.00     0.012 A 
HETATM    9  C   UNL     1      41.433  -9.696   3.077  1.00  0.00     0.003 A 
HETATM   10  C   UNL     1      41.842 -10.927   2.563  1.00  0.00     0.029 A 
BRANCH   7  11
HETATM   11  C   UNL     1      42.238 -10.095   6.733  1.00  0.00     0.010 A 
HETATM   12  C   UNL     1      41.387  -9.377   7.611  1.00  0.00     0.152 A 
HETATM   13  N   UNL     1      41.840  -9.339   8.866  1.00  0.00    -0.187 NA
HETATM   14  N   UNL     1      42.985 -10.035   8.804  1.00  0.00    -0.289 N 
HETATM   15  H   UNL     1      43.524 -10.153   9.655  1.00  0.00     0.188 HD
HETATM   16  C   UNL     1      43.268 -10.504   7.555  1.00  0.00     0.123 A 
ENDBRANCH   7  11
ENDBRANCH   2   5
BRANCH   1  17
HETATM   17  C   UNL     1      42.652 -15.375   1.870  1.00  0.00     0.141 C 
BRANCH  17  18
HETATM   18  C   UNL     1      43.157 -16.592   2.608  1.00  0.00    -0.049 A 
HETATM   19  C   UNL     1      43.575 -16.508   3.942  1.00  0.00     0.008 A 
HETATM   20  C   UNL     1      43.988 -17.653   4.633  1.00  0.00     0.007 A 
HETATM   21  C   UNL     1      43.991 -18.906   4.010  1.00  0.00    -0.059 A 
HETATM   22  C   UNL     1      43.557 -18.986   2.679  1.00  0.00     0.007 A 
HETATM   23  C   UNL     1      43.147 -17.844   1.985  1.00  0.00     0.008 A 
BRANCH  21  24
HETATM   24  C   UNL     1      44.357 -20.187   4.726  1.00  0.00     0.034 C 
HETATM   25  C   UNL     1      43.614 -20.468   6.027  1.00  0.00     0.010 C 
ENDBRANCH  21  24
ENDBRANCH  17  18
ENDBRANCH   1  17
TORSDOF 5
ENDMDL
