MODEL 1
REMARK VINA RESULT:      -7.6      0.000      0.000
REMARK  5 active torsions:
REMARK  status: ('A' for Active; 'I' for Inactive)
REMARK    1  A    between atoms: C_3  and  N_4 
REMARK       I    between atoms: N_4  and  C_5 
REMARK       I    between atoms: C_5  and  N_6 
REMARK    2  A    between atoms: N_6  and  C_7 
REMARK    3  A    between atoms: C_7  and  C_8 
REMARK    4  A    between atoms: C_8  and  O_9 
REMARK    5  A    between atoms: O_9  and  C_10 
ROOT
HETATM    1  N   UNL     1      43.608 -12.407   7.457  1.00  0.00    -0.307 N 
HETATM    2  C   UNL     1      43.002 -12.637   6.254  1.00  0.00     0.320 C 
HETATM    3  N   UNL     1      42.536 -13.907   6.069  1.00  0.00    -0.340 N 
HETATM    4  O   UNL     1      42.806 -11.816   5.366  1.00  0.00    -0.247 OA
HETATM    5  H   UNL     1      43.231 -12.979   8.196  1.00  0.00     0.170 HD
HETATM    6  H   UNL     1      42.167 -14.033   5.132  1.00  0.00     0.164 HD
ENDROOT
BRANCH   3   7
HETATM    7  C   UNL     1      42.837 -15.128   6.807  1.00  0.00     0.156 C 
BRANCH   7   8
HETATM    8  C   UNL     1      42.519 -16.407   6.006  1.00  0.00     0.142 C 
HETATM    9  C   UNL     1      41.162 -16.316   5.310  1.00  0.00     0.042 C 
BRANCH   8  10
HETATM   10  O   UNL     1      43.500 -16.619   4.980  1.00  0.00    -0.343 OA
BRANCH  10  11
HETATM   11  C   UNL     1      43.667 -17.897   4.514  1.00  0.00     0.091 A 
HETATM   12  C   UNL     1      43.498 -18.113   3.137  1.00  0.00     0.067 A 
HETATM   13 CL   UNL     1      43.171 -16.803   2.058  1.00  0.00    -0.081 Cl
HETATM   14  C   UNL     1      43.604 -19.399   2.601  1.00  0.00     0.026 A 
HETATM   15  C   UNL     1      43.870 -20.482   3.436  1.00  0.00     0.002 A 
HETATM   16  C   UNL     1      44.017 -20.280   4.807  1.00  0.00     0.003 A 
HETATM   17  C   UNL     1      43.904 -18.994   5.346  1.00  0.00     0.038 A 
ENDBRANCH  10  11
ENDBRANCH   8  10
ENDBRANCH   7   8
ENDBRANCH   3   7
BRANCH   1  18
HETATM   18  C   UNL     1      44.287 -11.244   7.897  1.00  0.00     0.059 A 
HETATM   19  C   UNL     1      45.497 -10.730   7.408  1.00  0.00    -0.032 A 
HETATM   20  C   UNL     1      46.337 -11.363   6.339  1.00  0.00     0.050 C 
HETATM   21  C   UNL     1      45.983  -9.532   7.968  1.00  0.00     0.028 A 
HETATM   22  C   UNL     1      45.304  -8.931   9.015  1.00  0.00     0.117 A 
HETATM   23  N   UNL     1      44.177  -9.431   9.548  1.00  0.00    -0.271 NA
HETATM   24  C   UNL     1      43.705 -10.565   8.977  1.00  0.00     0.146 A 
ENDBRANCH   1  18
TORSDOF 5
ENDMDL
MODEL 2
REMARK VINA RESULT:      -7.5      1.491      1.888
REMARK  5 active torsions:
REMARK  status: ('A' for Active; 'I' for Inactive)
REMARK    1  A    between atoms: C_3  and  N_4 
REMARK       I    between atoms: N_4  and  C_5 
REMARK       I    between atoms: C_5  and  N_6 
REMARK    2  A    between atoms: N_6  and  C_7 
REMARK    3  A    between atoms: C_7  and  C_8 
REMARK    4  A    between atoms: C_8  and  O_9 
REMARK    5  A    between atoms: O_9  and  C_10 
ROOT
HETATM    1  N   UNL     1      43.153 -11.949   7.365  1.00  0.00    -0.307 N 
HETATM    2  C   UNL     1      42.114 -11.718   6.507  1.00  0.00     0.320 C 
HETATM    3  N   UNL     1      41.423 -12.828   6.117  1.00  0.00    -0.340 N 
HETATM    4  O   UNL     1      41.731 -10.627   6.102  1.00  0.00    -0.247 OA
HETATM    5  H   UNL     1      42.995 -12.748   7.958  1.00  0.00     0.170 HD
HETATM    6  H   UNL     1      40.716 -12.599   5.424  1.00  0.00     0.164 HD
ENDROOT
BRANCH   3   7
HETATM    7  C   UNL     1      41.785 -14.237   6.219  1.00  0.00     0.156 C 
BRANCH   7   8
HETATM    8  C   UNL     1      41.594 -15.003   4.894  1.00  0.00     0.142 C 
HETATM    9  C   UNL     1      40.737 -14.217   3.903  1.00  0.00     0.042 C 
BRANCH   8  10
HETATM   10  O   UNL     1      42.859 -15.236   4.257  1.00  0.00    -0.343 OA
BRANCH  10  11
HETATM   11  C   UNL     1      43.157 -16.520   3.885  1.00  0.00     0.091 A 
HETATM   12  C   UNL     1      44.025 -17.252   4.711  1.00  0.00     0.067 A 
HETATM   13 CL   UNL     1      44.631 -16.585   6.186  1.00  0.00    -0.081 Cl
HETATM   14  C   UNL     1      44.411 -18.549   4.365  1.00  0.00     0.026 A 
HETATM   15  C   UNL     1      43.942 -19.125   3.186  1.00  0.00     0.002 A 
HETATM   16  C   UNL     1      43.099 -18.398   2.349  1.00  0.00     0.003 A 
HETATM   17  C   UNL     1      42.717 -17.096   2.690  1.00  0.00     0.038 A 
ENDBRANCH  10  11
ENDBRANCH   8  10
ENDBRANCH   7   8
ENDBRANCH   3   7
BRANCH   1  18
HETATM   18  C   UNL     1      44.118 -11.034   7.852  1.00  0.00     0.059 A 
HETATM   19  C   UNL     1      45.361 -10.725   7.281  1.00  0.00    -0.032 A 
HETATM   20  C   UNL     1      45.930 -11.364   6.048  1.00  0.00     0.050 C 
HETATM   21  C   UNL     1      46.160  -9.752   7.914  1.00  0.00     0.028 A 
HETATM   22  C   UNL     1      45.738  -9.176   9.102  1.00  0.00     0.117 A 
HETATM   23  N   UNL     1      44.583  -9.495   9.708  1.00  0.00    -0.271 NA
HETATM   24  C   UNL     1      43.812 -10.408   9.069  1.00  0.00     0.146 A 
ENDBRANCH   1  18
TORSDOF 5
ENDMDL
MODEL 3
REMARK VINA RESULT:      -7.5      1.946      3.145
REMARK  5 active torsions:
REMARK  status: ('A' for Active; 'I' for Inactive)
REMARK    1  A    between atoms: C_3  and  N_4 
REMARK       I    between atoms: N_4  and  C_5 
REMARK       I    between atoms: C_5  and  N_6 
REMARK    2  A    between atoms: N_6  and  C_7 
REMARK    3  A    between atoms: C_7  and  C_8 
REMARK    4  A    between atoms: C_8  and  O_9 
REMARK    5  A    between atoms: O_9  and  C_10 
ROOT
HETATM    1  N   UNL     1      42.498 -13.753   5.292  1.00  0.00    -0.307 N 
HETATM    2  C   UNL     1      41.714 -14.820   5.629  1.00  0.00     0.320 C 
HETATM    3  N   UNL     1      41.418 -15.672   4.605  1.00  0.00    -0.340 N 
HETATM    4  O   UNL     1      41.300 -15.098   6.748  1.00  0.00    -0.247 OA
HETATM    5  H   UNL     1      43.129 -13.961   4.535  1.00  0.00     0.170 HD
HETATM    6  H   UNL     1      40.774 -16.399   4.903  1.00  0.00     0.164 HD
ENDROOT
BRANCH   3   7
HETATM    7  C   UNL     1      41.543 -15.481   3.165  1.00  0.00     0.156 C 
BRANCH   7   8
HETATM    8  C   UNL     1      42.584 -16.420   2.522  1.00  0.00     0.142 C 
HETATM    9  C   UNL     1      43.404 -15.706   1.449  1.00  0.00     0.042 C 
BRANCH   8  10
HETATM   10  O   UNL     1      43.513 -16.896   3.508  1.00  0.00    -0.343 OA
BRANCH  10  11
HETATM   11  C   UNL     1      43.617 -18.251   3.682  1.00  0.00     0.091 A 
HETATM   12  C   UNL     1      43.859 -18.721   4.982  1.00  0.00     0.067 A 
HETATM   13 CL   UNL     1      43.944 -17.637   6.325  1.00  0.00    -0.081 Cl
HETATM   14  C   UNL     1      44.027 -20.087   5.224  1.00  0.00     0.026 A 
HETATM   15  C   UNL     1      43.963 -20.995   4.168  1.00  0.00     0.002 A 
HETATM   16  C   UNL     1      43.744 -20.535   2.872  1.00  0.00     0.003 A 
HETATM   17  C   UNL     1      43.584 -19.167   2.627  1.00  0.00     0.038 A 
ENDBRANCH  10  11
ENDBRANCH   8  10
ENDBRANCH   7   8
ENDBRANCH   3   7
BRANCH   1  18
HETATM   18  C   UNL     1      42.877 -12.646   6.091  1.00  0.00     0.059 A 
HETATM   19  C   UNL     1      42.211 -11.418   6.212  1.00  0.00    -0.032 A 
HETATM   20  C   UNL     1      40.975 -11.025   5.457  1.00  0.00     0.050 C 
HETATM   21  C   UNL     1      42.744 -10.458   7.095  1.00  0.00     0.028 A 
HETATM   22  C   UNL     1      43.927 -10.717   7.767  1.00  0.00     0.117 A 
HETATM   23  N   UNL     1      44.623 -11.857   7.625  1.00  0.00    -0.271 NA
HETATM   24  C   UNL     1      44.080 -12.782   6.798  1.00  0.00     0.146 A 
ENDBRANCH   1  18
TORSDOF 5
ENDMDL
MODEL 4
REMARK VINA RESULT:      -7.3      2.744      8.490
REMARK  5 active torsions:
REMARK  status: ('A' for Active; 'I' for Inactive)
REMARK    1  A    between atoms: C_3  and  N_4 
REMARK       I    between atoms: N_4  and  C_5 
REMARK       I    between atoms: C_5  and  N_6 
REMARK    2  A    between atoms: N_6  and  C_7 
REMARK    3  A    between atoms: C_7  and  C_8 
REMARK    4  A    between atoms: C_8  and  O_9 
REMARK    5  A    between atoms: O_9  and  C_10 
ROOT
HETATM    1  N   UNL     1      43.312 -16.540   5.102  1.00  0.00    -0.307 N 
HETATM    2  C   UNL     1      42.138 -15.992   5.539  1.00  0.00     0.320 C 
HETATM    3  N   UNL     1      42.262 -14.808   6.206  1.00  0.00    -0.340 N 
HETATM    4  O   UNL     1      41.011 -16.435   5.354  1.00  0.00    -0.247 OA
HETATM    5  H   UNL     1      44.006 -15.844   4.884  1.00  0.00     0.170 HD
HETATM    6  H   UNL     1      41.367 -14.492   6.569  1.00  0.00     0.164 HD
ENDROOT
BRANCH   3   7
HETATM    7  C   UNL     1      43.444 -14.183   6.789  1.00  0.00     0.156 C 
BRANCH   7   8
HETATM    8  C   UNL     1      43.764 -12.808   6.169  1.00  0.00     0.142 C 
HETATM    9  C   UNL     1      43.175 -12.668   4.766  1.00  0.00     0.042 C 
BRANCH   8  10
HETATM   10  O   UNL     1      43.201 -11.752   6.963  1.00  0.00    -0.343 OA
BRANCH  10  11
HETATM   11  C   UNL     1      44.059 -10.812   7.471  1.00  0.00     0.091 A 
HETATM   12  C   UNL     1      43.497  -9.638   7.999  1.00  0.00     0.067 A 
HETATM   13 CL   UNL     1      41.784  -9.422   8.077  1.00  0.00    -0.081 Cl
HETATM   14  C   UNL     1      44.315  -8.617   8.488  1.00  0.00     0.026 A 
HETATM   15  C   UNL     1      45.701  -8.753   8.445  1.00  0.00     0.002 A 
HETATM   16  C   UNL     1      46.267  -9.904   7.903  1.00  0.00     0.003 A 
HETATM   17  C   UNL     1      45.450 -10.925   7.407  1.00  0.00     0.038 A 
ENDBRANCH  10  11
ENDBRANCH   8  10
ENDBRANCH   7   8
ENDBRANCH   3   7
BRANCH   1  18
HETATM   18  C   UNL     1      43.525 -17.801   4.490  1.00  0.00     0.059 A 
HETATM   19  C   UNL     1      43.407 -18.115   3.129  1.00  0.00    -0.032 A 
HETATM   20  C   UNL     1      42.972 -17.163   2.054  1.00  0.00     0.050 C 
HETATM   21  C   UNL     1      43.700 -19.433   2.725  1.00  0.00     0.028 A 
HETATM   22  C   UNL     1      44.031 -20.390   3.670  1.00  0.00     0.117 A 
HETATM   23  N   UNL     1      44.091 -20.137   4.988  1.00  0.00    -0.271 NA
HETATM   24  C   UNL     1      43.839 -18.858   5.357  1.00  0.00     0.146 A 
ENDBRANCH   1  18
TORSDOF 5
ENDMDL
MODEL 5
REMARK VINA RESULT:      -7.2      3.123      4.969
REMARK  5 active torsions:
REMARK  status: ('A' for Active; 'I' for Inactive)
REMARK    1  A    between atoms: C_3  and  N_4 
REMARK       I    between atoms: N_4  and  C_5 
REMARK       I    between atoms: C_5  and  N_6 
REMARK    2  A    between atoms: N_6  and  C_7 
REMARK    3  A    between atoms: C_7  and  C_8 
REMARK    4  A    between atoms: C_8  and  O_9 
REMARK    5  A    between atoms: O_9  and  C_10 
ROOT
HETATM    1  N   UNL     1      42.662 -14.214   4.300  1.00  0.00    -0.307 N 
HETATM    2  C   UNL     1      42.434 -13.817   5.587  1.00  0.00     0.320 C 
HETATM    3  N   UNL     1      43.351 -14.249   6.501  1.00  0.00    -0.340 N 
HETATM    4  O   UNL     1      41.528 -13.091   5.979  1.00  0.00    -0.247 OA
HETATM    5  H   UNL     1      43.642 -14.330   4.099  1.00  0.00     0.170 HD
HETATM    6  H   UNL     1      43.085 -13.985   7.446  1.00  0.00     0.164 HD
ENDROOT
BRANCH   3   7
HETATM    7  C   UNL     1      44.356 -15.300   6.391  1.00  0.00     0.156 C 
BRANCH   7   8
HETATM    8  C   UNL     1      43.741 -16.701   6.200  1.00  0.00     0.142 C 
HETATM    9  C   UNL     1      42.366 -16.811   6.856  1.00  0.00     0.042 C 
BRANCH   8  10
HETATM   10  O   UNL     1      43.560 -16.988   4.805  1.00  0.00    -0.343 OA
BRANCH  10  11
HETATM   11  C   UNL     1      43.732 -18.284   4.394  1.00  0.00     0.091 A 
HETATM   12  C   UNL     1      43.586 -18.556   3.025  1.00  0.00     0.067 A 
HETATM   13 CL   UNL     1      43.281 -17.290   1.888  1.00  0.00    -0.081 Cl
HETATM   14  C   UNL     1      43.697 -19.863   2.544  1.00  0.00     0.026 A 
HETATM   15  C   UNL     1      43.946 -20.912   3.427  1.00  0.00     0.002 A 
HETATM   16  C   UNL     1      44.070 -20.654   4.790  1.00  0.00     0.003 A 
HETATM   17  C   UNL     1      43.951 -19.347   5.275  1.00  0.00     0.038 A 
ENDBRANCH  10  11
ENDBRANCH   8  10
ENDBRANCH   7   8
ENDBRANCH   3   7
BRANCH   1  18
HETATM   18  C   UNL     1      41.842 -14.030   3.159  1.00  0.00     0.059 A 
HETATM   19  C   UNL     1      40.765 -14.830   2.749  1.00  0.00    -0.032 A 
HETATM   20  C   UNL     1      40.309 -16.085   3.432  1.00  0.00     0.050 C 
HETATM   21  C   UNL     1      40.056 -14.446   1.594  1.00  0.00     0.028 A 
HETATM   22  C   UNL     1      40.467 -13.343   0.863  1.00  0.00     0.117 A 
HETATM   23  N   UNL     1      41.532 -12.594   1.193  1.00  0.00    -0.271 NA
HETATM   24  C   UNL     1      42.183 -12.956   2.324  1.00  0.00     0.146 A 
ENDBRANCH   1  18
TORSDOF 5
ENDMDL
MODEL 6
REMARK VINA RESULT:      -7.2      3.822      7.439
REMARK  5 active torsions:
REMARK  status: ('A' for Active; 'I' for Inactive)
REMARK    1  A    between atoms: C_3  and  N_4 
REMARK       I    between atoms: N_4  and  C_5 
REMARK       I    between atoms: C_5  and  N_6 
REMARK    2  A    between atoms: N_6  and  C_7 
REMARK    3  A    between atoms: C_7  and  C_8 
REMARK    4  A    between atoms: C_8  and  O_9 
REMARK    5  A    between atoms: O_9  and  C_10 
ROOT
HETATM    1  N   UNL     1      42.423 -16.595   2.760  1.00  0.00    -0.307 N 
HETATM    2  C   UNL     1      42.880 -15.644   1.891  1.00  0.00     0.320 C 
HETATM    3  N   UNL     1      42.027 -14.603   1.664  1.00  0.00    -0.340 N 
HETATM    4  O   UNL     1      43.976 -15.621   1.343  1.00  0.00    -0.247 OA
HETATM    5  H   UNL     1      41.804 -16.215   3.458  1.00  0.00     0.170 HD
HETATM    6  H   UNL     1      42.392 -13.973   0.956  1.00  0.00     0.164 HD
ENDROOT
BRANCH   3   7
HETATM    7  C   UNL     1      40.603 -14.482   1.955  1.00  0.00     0.156 C 
BRANCH   7   8
HETATM    8  C   UNL     1      40.300 -13.442   3.052  1.00  0.00     0.142 C 
HETATM    9  C   UNL     1      38.943 -12.773   2.839  1.00  0.00     0.042 C 
BRANCH   8  10
HETATM   10  O   UNL     1      40.257 -14.068   4.344  1.00  0.00    -0.343 OA
BRANCH  10  11
HETATM   11  C   UNL     1      41.375 -13.981   5.131  1.00  0.00     0.091 A 
HETATM   12  C   UNL     1      41.432 -14.799   6.270  1.00  0.00     0.067 A 
HETATM   13 CL   UNL     1      40.175 -15.931   6.624  1.00  0.00    -0.081 Cl
HETATM   14  C   UNL     1      42.520 -14.725   7.144  1.00  0.00     0.026 A 
HETATM   15  C   UNL     1      43.556 -13.828   6.894  1.00  0.00     0.002 A 
HETATM   16  C   UNL     1      43.497 -12.997   5.777  1.00  0.00     0.003 A 
HETATM   17  C   UNL     1      42.405 -13.064   4.905  1.00  0.00     0.038 A 
ENDBRANCH  10  11
ENDBRANCH   8  10
ENDBRANCH   7   8
ENDBRANCH   3   7
BRANCH   1  18
HETATM   18  C   UNL     1      43.014 -17.835   3.105  1.00  0.00     0.059 A 
HETATM   19  C   UNL     1      43.834 -18.108   4.209  1.00  0.00    -0.032 A 
HETATM   20  C   UNL     1      44.287 -17.097   5.222  1.00  0.00     0.050 C 
HETATM   21  C   UNL     1      44.291 -19.429   4.386  1.00  0.00     0.028 A 
HETATM   22  C   UNL     1      43.981 -20.400   3.449  1.00  0.00     0.117 A 
HETATM   23  N   UNL     1      43.251 -20.158   2.348  1.00  0.00    -0.271 NA
HETATM   24  C   UNL     1      42.792 -18.891   2.209  1.00  0.00     0.146 A 
ENDBRANCH   1  18
TORSDOF 5
ENDMDL
MODEL 7
REMARK VINA RESULT:      -7.1      4.337      7.132
REMARK  5 active torsions:
REMARK  status: ('A' for Active; 'I' for Inactive)
REMARK    1  A    between atoms: C_3  and  N_4 
REMARK       I    between atoms: N_4  and  C_5 
REMARK       I    between atoms: C_5  and  N_6 
REMARK    2  A    between atoms: N_6  and  C_7 
REMARK    3  A    between atoms: C_7  and  C_8 
REMARK    4  A    between atoms: C_8  and  O_9 
REMARK    5  A    between atoms: O_9  and  C_10 
ROOT
HETATM    1  N   UNL     1      42.042 -15.259   4.454  1.00  0.00    -0.307 N 
HETATM    2  C   UNL     1      42.442 -14.059   4.972  1.00  0.00     0.320 C 
HETATM    3  N   UNL     1      41.596 -13.014   4.740  1.00  0.00    -0.340 N 
HETATM    4  O   UNL     1      43.444 -13.851   5.644  1.00  0.00    -0.247 OA
HETATM    5  H   UNL     1      41.039 -15.348   4.413  1.00  0.00     0.170 HD
HETATM    6  H   UNL     1      41.984 -12.140   5.083  1.00  0.00     0.164 HD
ENDROOT
BRANCH   3   7
HETATM    7  C   UNL     1      40.498 -12.894   3.788  1.00  0.00     0.156 C 
BRANCH   7   8
HETATM    8  C   UNL     1      40.928 -12.257   2.451  1.00  0.00     0.142 C 
HETATM    9  C   UNL     1      42.054 -11.242   2.644  1.00  0.00     0.042 C 
BRANCH   8  10
HETATM   10  O   UNL     1      41.423 -13.259   1.550  1.00  0.00    -0.343 OA
BRANCH  10  11
HETATM   11  C   UNL     1      40.801 -13.383   0.335  1.00  0.00     0.091 A 
HETATM   12  C   UNL     1      40.071 -14.559   0.097  1.00  0.00     0.067 A 
HETATM   13 CL   UNL     1      39.895 -15.767   1.319  1.00  0.00    -0.081 Cl
HETATM   14  C   UNL     1      39.454 -14.774  -1.139  1.00  0.00     0.026 A 
HETATM   15  C   UNL     1      39.569 -13.823  -2.151  1.00  0.00     0.002 A 
HETATM   16  C   UNL     1      40.310 -12.664  -1.931  1.00  0.00     0.003 A 
HETATM   17  C   UNL     1      40.935 -12.450  -0.697  1.00  0.00     0.038 A 
ENDBRANCH  10  11
ENDBRANCH   8  10
ENDBRANCH   7   8
ENDBRANCH   3   7
BRANCH   1  18
HETATM   18  C   UNL     1      42.746 -16.488   4.424  1.00  0.00     0.059 A 
HETATM   19  C   UNL     1      43.325 -17.108   3.308  1.00  0.00    -0.032 A 
HETATM   20  C   UNL     1      43.257 -16.596   1.900  1.00  0.00     0.050 C 
HETATM   21  C   UNL     1      44.015 -18.321   3.506  1.00  0.00     0.028 A 
HETATM   22  C   UNL     1      44.052 -18.899   4.765  1.00  0.00     0.117 A 
HETATM   23  N   UNL     1      43.454 -18.363   5.842  1.00  0.00    -0.271 NA
HETATM   24  C   UNL     1      42.824 -17.181   5.641  1.00  0.00     0.146 A 
ENDBRANCH   1  18
TORSDOF 5
ENDMDL
MODEL 8
REMARK VINA RESULT:      -7.0      2.010      2.751
REMARK  5 active torsions:
REMARK  status: ('A' for Active; 'I' for Inactive)
REMARK    1  A    between atoms: C_3  and  N_4 
REMARK       I    between atoms: N_4  and  C_5 
REMARK       I    between atoms: C_5  and  N_6 
REMARK    2  A    between atoms: N_6  and  C_7 
REMARK    3  A    between atoms: C_7  and  C_8 
REMARK    4  A    between atoms: C_8  and  O_9 
REMARK    5  A    between atoms: O_9  and  C_10 
ROOT
HETATM    1  N   UNL     1      43.296 -11.201   7.738  1.00  0.00    -0.307 N 
HETATM    2  C   UNL     1      44.297 -11.928   7.158  1.00  0.00     0.320 C 
HETATM    3  N   UNL     1      43.935 -13.166   6.711  1.00  0.00    -0.340 N 
HETATM    4  O   UNL     1      45.450 -11.561   6.968  1.00  0.00    -0.247 OA
HETATM    5  H   UNL     1      42.389 -11.416   7.354  1.00  0.00     0.170 HD
HETATM    6  H   UNL     1      44.737 -13.682   6.360  1.00  0.00     0.164 HD
ENDROOT
BRANCH   3   7
HETATM    7  C   UNL     1      42.748 -13.957   7.013  1.00  0.00     0.156 C 
BRANCH   7   8
HETATM    8  C   UNL     1      42.139 -14.626   5.764  1.00  0.00     0.142 C 
HETATM    9  C   UNL     1      41.037 -13.769   5.143  1.00  0.00     0.042 C 
BRANCH   8  10
HETATM   10  O   UNL     1      43.139 -14.815   4.752  1.00  0.00    -0.343 OA
BRANCH  10  11
HETATM   11  C   UNL     1      43.245 -16.059   4.187  1.00  0.00     0.091 A 
HETATM   12  C   UNL     1      44.061 -16.999   4.836  1.00  0.00     0.067 A 
HETATM   13 CL   UNL     1      44.838 -16.628   6.335  1.00  0.00    -0.081 Cl
HETATM   14  C   UNL     1      44.254 -18.270   4.289  1.00  0.00     0.026 A 
HETATM   15  C   UNL     1      43.644 -18.610   3.083  1.00  0.00     0.002 A 
HETATM   16  C   UNL     1      42.851 -17.676   2.421  1.00  0.00     0.003 A 
HETATM   17  C   UNL     1      42.662 -16.400   2.964  1.00  0.00     0.038 A 
ENDBRANCH  10  11
ENDBRANCH   8  10
ENDBRANCH   7   8
ENDBRANCH   3   7
BRANCH   1  18
HETATM   18  C   UNL     1      43.378  -9.949   8.395  1.00  0.00     0.059 A 
HETATM   19  C   UNL     1      43.618  -9.718   9.757  1.00  0.00    -0.032 A 
HETATM   20  C   UNL     1      43.781 -10.783  10.801  1.00  0.00     0.050 C 
HETATM   21  C   UNL     1      43.695  -8.382  10.200  1.00  0.00     0.028 A 
HETATM   22  C   UNL     1      43.475  -7.343   9.311  1.00  0.00     0.117 A 
HETATM   23  N   UNL     1      43.182  -7.532   8.013  1.00  0.00    -0.271 NA
HETATM   24  C   UNL     1      43.143  -8.820   7.597  1.00  0.00     0.146 A 
ENDBRANCH   1  18
TORSDOF 5
ENDMDL
MODEL 9
REMARK VINA RESULT:      -7.0      1.810      2.549
REMARK  5 active torsions:
REMARK  status: ('A' for Active; 'I' for Inactive)
REMARK    1  A    between atoms: C_3  and  N_4 
REMARK       I    between atoms: N_4  and  C_5 
REMARK       I    between atoms: C_5  and  N_6 
REMARK    2  A    between atoms: N_6  and  C_7 
REMARK    3  A    between atoms: C_7  and  C_8 
REMARK    4  A    between atoms: C_8  and  O_9 
REMARK    5  A    between atoms: O_9  and  C_10 
ROOT
HETATM    1  N   UNL     1      43.350 -11.450   6.340  1.00  0.00    -0.307 N 
HETATM    2  C   UNL     1      43.459 -11.762   5.014  1.00  0.00     0.320 C 
HETATM    3  N   UNL     1      42.622 -12.747   4.577  1.00  0.00    -0.340 N 
HETATM    4  O   UNL     1      44.190 -11.221   4.194  1.00  0.00    -0.247 OA
HETATM    5  H   UNL     1      42.419 -11.593   6.696  1.00  0.00     0.170 HD
HETATM    6  H   UNL     1      42.804 -12.983   3.606  1.00  0.00     0.164 HD
ENDROOT
BRANCH   3   7
HETATM    7  C   UNL     1      41.850 -13.723   5.338  1.00  0.00     0.156 C 
BRANCH   7   8
HETATM    8  C   UNL     1      42.701 -14.912   5.827  1.00  0.00     0.142 C 
HETATM    9  C   UNL     1      42.904 -14.879   7.341  1.00  0.00     0.042 C 
BRANCH   8  10
HETATM   10  O   UNL     1      42.054 -16.157   5.521  1.00  0.00    -0.343 OA
BRANCH  10  11
HETATM   11  C   UNL     1      42.670 -16.991   4.626  1.00  0.00     0.091 A 
HETATM   12  C   UNL     1      43.421 -18.059   5.144  1.00  0.00     0.067 A 
HETATM   13 CL   UNL     1      43.499 -18.356   6.844  1.00  0.00    -0.081 Cl
HETATM   14  C   UNL     1      44.117 -18.918   4.290  1.00  0.00     0.026 A 
HETATM   15  C   UNL     1      44.078 -18.715   2.912  1.00  0.00     0.002 A 
HETATM   16  C   UNL     1      43.353 -17.645   2.391  1.00  0.00     0.003 A 
HETATM   17  C   UNL     1      42.662 -16.779   3.245  1.00  0.00     0.038 A 
ENDBRANCH  10  11
ENDBRANCH   8  10
ENDBRANCH   7   8
ENDBRANCH   3   7
BRANCH   1  18
HETATM   18  C   UNL     1      44.148 -10.567   7.109  1.00  0.00     0.059 A 
HETATM   19  C   UNL     1      43.723  -9.427   7.806  1.00  0.00    -0.032 A 
HETATM   20  C   UNL     1      42.321  -8.893   7.821  1.00  0.00     0.050 C 
HETATM   21  C   UNL     1      44.683  -8.703   8.542  1.00  0.00     0.028 A 
HETATM   22  C   UNL     1      46.013  -9.088   8.512  1.00  0.00     0.117 A 
HETATM   23  N   UNL     1      46.463 -10.137   7.804  1.00  0.00    -0.271 NA
HETATM   24  C   UNL     1      45.523 -10.842   7.129  1.00  0.00     0.146 A 
ENDBRANCH   1  18
TORSDOF 5
ENDMDL
MODEL 10
REMARK VINA RESULT:      -7.0      2.446      3.636
REMARK  5 active torsions:
REMARK  status: ('A' for Active; 'I' for Inactive)
REMARK    1  A    between atoms: C_3  and  N_4 
REMARK       I    between atoms: N_4  and  C_5 
REMARK       I    between atoms: C_5  and  N_6 
REMARK    2  A    between atoms: N_6  and  C_7 
REMARK    3  A    between atoms: C_7  and  C_8 
REMARK    4  A    between atoms: C_8  and  O_9 
REMARK    5  A    between atoms: O_9  and  C_10 
ROOT
HETATM    1  N   UNL     1      43.509 -10.677   8.546  1.00  0.00    -0.307 N 
HETATM    2  C   UNL     1      44.628 -11.232   7.993  1.00  0.00     0.320 C 
HETATM    3  N   UNL     1      44.407 -12.037   6.913  1.00  0.00    -0.340 N 
HETATM    4  O   UNL     1      45.787 -11.044   8.343  1.00  0.00    -0.247 OA
HETATM    5  H   UNL     1      42.781 -10.517   7.868  1.00  0.00     0.170 HD
HETATM    6  H   UNL     1      45.266 -12.477   6.596  1.00  0.00     0.164 HD
ENDROOT
BRANCH   3   7
HETATM    7  C   UNL     1      43.167 -12.640   6.436  1.00  0.00     0.156 C 
BRANCH   7   8
HETATM    8  C   UNL     1      43.263 -14.171   6.287  1.00  0.00     0.142 C 
HETATM    9  C   UNL     1      43.097 -14.882   7.630  1.00  0.00     0.042 C 
BRANCH   8  10
HETATM   10  O   UNL     1      42.223 -14.662   5.427  1.00  0.00    -0.343 OA
BRANCH  10  11
HETATM   11  C   UNL     1      42.575 -15.043   4.159  1.00  0.00     0.091 A 
HETATM   12  C   UNL     1      42.939 -16.385   3.962  1.00  0.00     0.067 A 
HETATM   13 CL   UNL     1      42.869 -17.531   5.254  1.00  0.00    -0.081 Cl
HETATM   14  C   UNL     1      43.357 -16.831   2.705  1.00  0.00     0.026 A 
HETATM   15  C   UNL     1      43.425 -15.939   1.636  1.00  0.00     0.002 A 
HETATM   16  C   UNL     1      43.087 -14.602   1.828  1.00  0.00     0.003 A 
HETATM   17  C   UNL     1      42.675 -14.152   3.087  1.00  0.00     0.038 A 
ENDBRANCH  10  11
ENDBRANCH   8  10
ENDBRANCH   7   8
ENDBRANCH   3   7
BRANCH   1  18
HETATM   18  C   UNL     1      43.397  -9.902   9.727  1.00  0.00     0.059 A 
HETATM   19  C   UNL     1      43.335  -8.505   9.824  1.00  0.00    -0.032 A 
HETATM   20  C   UNL     1      43.432  -7.551   8.670  1.00  0.00     0.050 C 
HETATM   21  C   UNL     1      43.190  -7.935  11.105  1.00  0.00     0.028 A 
HETATM   22  C   UNL     1      43.175  -8.747  12.227  1.00  0.00     0.117 A 
HETATM   23  N   UNL     1      43.295 -10.083  12.173  1.00  0.00    -0.271 NA
HETATM   24  C   UNL     1      43.401 -10.618  10.933  1.00  0.00     0.146 A 
ENDBRANCH   1  18
TORSDOF 5
ENDMDL
