MODEL 1
REMARK VINA RESULT:      -8.1      0.000      0.000
REMARK  3 active torsions:
REMARK  status: ('A' for Active; 'I' for Inactive)
REMARK    1  A    between atoms: C_2  and  C_3 
REMARK    2  A    between atoms: C_4  and  N_5 
REMARK    3  A    between atoms: C_18  and  C_19 
ROOT
HETATM    1  N   UNL     1      41.710 -15.101   4.398  1.00  0.00    -0.320 N 
HETATM    2  C   UNL     1      40.713 -15.127   5.428  1.00  0.00     0.141 C 
HETATM    3  N   UNL     1      40.119 -16.225   5.801  1.00  0.00    -0.380 N 
HETATM    4  H   UNL     1      40.366 -17.094   5.347  1.00  0.00     0.158 HD
HETATM    5  H   UNL     1      39.423 -16.195   6.532  1.00  0.00     0.158 HD
HETATM    6  S   UNL     1      40.394 -13.570   6.109  1.00  0.00    -0.086 SA
HETATM    7  C   UNL     1      41.333 -12.780   4.763  1.00  0.00     0.093 C 
HETATM    8  C   UNL     1      42.427 -13.817   4.428  1.00  0.00     0.121 C 
HETATM    9  C   UNL     1      42.075 -11.479   4.952  1.00  0.00     0.158 C 
HETATM   10  S   UNL     1      43.242 -11.531   3.575  1.00  0.00     0.147 S 
HETATM   11  O   UNL     1      42.702 -10.750   2.484  1.00  0.00    -0.228 OA
HETATM   12  O   UNL     1      44.573 -11.325   4.103  1.00  0.00    -0.228 OA
HETATM   13  C   UNL     1      43.057 -13.277   3.167  1.00  0.00     0.167 C 
ENDROOT
BRANCH   1  14
HETATM   14  C   UNL     1      42.420 -16.226   3.938  1.00  0.00     0.049 A 
HETATM   15  C   UNL     1      41.997 -16.855   2.738  1.00  0.00    -0.031 A 
HETATM   16  C   UNL     1      42.629 -18.038   2.314  1.00  0.00     0.009 A 
HETATM   17  C   UNL     1      43.671 -18.593   3.043  1.00  0.00     0.001 A 
HETATM   18  C   UNL     1      44.097 -17.976   4.213  1.00  0.00     0.009 A 
HETATM   19  C   UNL     1      43.485 -16.797   4.679  1.00  0.00    -0.031 A 
BRANCH  15  20
HETATM   20  C   UNL     1      40.851 -16.328   1.893  1.00  0.00     0.036 C 
HETATM   21  C   UNL     1      41.281 -15.230   0.928  1.00  0.00     0.010 C 
ENDBRANCH  15  20
BRANCH  19  22
HETATM   22  C   UNL     1      44.032 -16.215   5.967  1.00  0.00     0.036 C 
HETATM   23  C   UNL     1      43.509 -16.946   7.198  1.00  0.00     0.010 C 
ENDBRANCH  19  22
ENDBRANCH   1  14
TORSDOF 3
ENDMDL
MODEL 2
REMARK VINA RESULT:      -7.8      0.149      2.868
REMARK  3 active torsions:
REMARK  status: ('A' for Active; 'I' for Inactive)
REMARK    1  A    between atoms: C_2  and  C_3 
REMARK    2  A    between atoms: C_4  and  N_5 
REMARK    3  A    between atoms: C_18  and  C_19 
ROOT
HETATM    1  N   UNL     1      41.614 -15.029   4.453  1.00  0.00    -0.320 N 
HETATM    2  C   UNL     1      40.661 -14.998   5.523  1.00  0.00     0.141 C 
HETATM    3  N   UNL     1      40.044 -16.065   5.945  1.00  0.00    -0.380 N 
HETATM    4  H   UNL     1      40.241 -16.951   5.500  1.00  0.00     0.158 HD
HETATM    5  H   UNL     1      39.381 -15.994   6.703  1.00  0.00     0.158 HD
HETATM    6  S   UNL     1      40.428 -13.416   6.183  1.00  0.00    -0.086 SA
HETATM    7  C   UNL     1      41.337 -12.688   4.781  1.00  0.00     0.093 C 
HETATM    8  C   UNL     1      42.378 -13.772   4.424  1.00  0.00     0.121 C 
HETATM    9  C   UNL     1      42.132 -11.413   4.911  1.00  0.00     0.158 C 
HETATM   10  S   UNL     1      43.238 -11.536   3.488  1.00  0.00     0.147 S 
HETATM   11  O   UNL     1      42.681 -10.758   2.403  1.00  0.00    -0.228 OA
HETATM   12  O   UNL     1      44.596 -11.368   3.956  1.00  0.00    -0.228 OA
HETATM   13  C   UNL     1      42.973 -13.282   3.127  1.00  0.00     0.167 C 
ENDROOT
BRANCH   1  14
HETATM   14  C   UNL     1      42.264 -16.189   3.988  1.00  0.00     0.049 A 
HETATM   15  C   UNL     1      43.372 -16.688   4.721  1.00  0.00    -0.031 A 
HETATM   16  C   UNL     1      44.097 -17.785   4.222  1.00  0.00     0.009 A 
HETATM   17  C   UNL     1      43.737 -18.398   3.029  1.00  0.00     0.001 A 
HETATM   18  C   UNL     1      42.647 -17.919   2.313  1.00  0.00     0.009 A 
HETATM   19  C   UNL     1      41.900 -16.817   2.770  1.00  0.00    -0.031 A 
BRANCH  15  20
HETATM   20  C   UNL     1      43.846 -16.065   6.021  1.00  0.00     0.036 C 
HETATM   21  C   UNL     1      43.508 -16.910   7.244  1.00  0.00     0.010 C 
ENDBRANCH  15  20
BRANCH  19  22
HETATM   22  C   UNL     1      40.734 -16.383   1.905  1.00  0.00     0.036 C 
HETATM   23  C   UNL     1      41.117 -15.266   0.941  1.00  0.00     0.010 C 
ENDBRANCH  19  22
ENDBRANCH   1  14
TORSDOF 3
ENDMDL
MODEL 3
REMARK VINA RESULT:      -6.6      1.603      3.091
REMARK  3 active torsions:
REMARK  status: ('A' for Active; 'I' for Inactive)
REMARK    1  A    between atoms: C_2  and  C_3 
REMARK    2  A    between atoms: C_4  and  N_5 
REMARK    3  A    between atoms: C_18  and  C_19 
ROOT
HETATM    1  N   UNL     1      41.830 -15.017   4.188  1.00  0.00    -0.320 N 
HETATM    2  C   UNL     1      40.446 -14.860   3.847  1.00  0.00     0.141 C 
HETATM    3  N   UNL     1      39.740 -15.823   3.327  1.00  0.00    -0.380 N 
HETATM    4  H   UNL     1      40.181 -16.716   3.153  1.00  0.00     0.158 HD
HETATM    5  H   UNL     1      38.767 -15.667   3.103  1.00  0.00     0.158 HD
HETATM    6  S   UNL     1      39.831 -13.283   4.199  1.00  0.00    -0.086 SA
HETATM    7  C   UNL     1      41.526 -12.673   4.473  1.00  0.00     0.093 C 
HETATM    8  C   UNL     1      42.263 -13.903   5.047  1.00  0.00     0.121 C 
HETATM    9  C   UNL     1      41.834 -11.552   5.434  1.00  0.00     0.158 C 
HETATM   10  S   UNL     1      43.595 -11.813   5.733  1.00  0.00     0.147 S 
HETATM   11  O   UNL     1      44.345 -10.920   4.877  1.00  0.00    -0.228 OA
HETATM   12  O   UNL     1      43.804 -11.887   7.163  1.00  0.00    -0.228 OA
HETATM   13  C   UNL     1      43.712 -13.479   5.056  1.00  0.00     0.167 C 
ENDROOT
BRANCH   1  14
HETATM   14  C   UNL     1      42.482 -16.253   4.358  1.00  0.00     0.049 A 
HETATM   15  C   UNL     1      42.584 -16.795   5.665  1.00  0.00    -0.031 A 
HETATM   16  C   UNL     1      43.317 -17.978   5.872  1.00  0.00     0.009 A 
HETATM   17  C   UNL     1      43.932 -18.632   4.813  1.00  0.00     0.001 A 
HETATM   18  C   UNL     1      43.827 -18.111   3.529  1.00  0.00     0.009 A 
HETATM   19  C   UNL     1      43.112 -16.925   3.280  1.00  0.00    -0.031 A 
BRANCH  15  20
HETATM   20  C   UNL     1      41.962 -16.133   6.881  1.00  0.00     0.036 C 
HETATM   21  C   UNL     1      42.985 -15.779   7.954  1.00  0.00     0.010 C 
ENDBRANCH  15  20
BRANCH  19  22
HETATM   22  C   UNL     1      43.067 -16.451   1.841  1.00  0.00     0.036 C 
HETATM   23  C   UNL     1      43.668 -15.060   1.674  1.00  0.00     0.010 C 
ENDBRANCH  19  22
ENDBRANCH   1  14
TORSDOF 3
ENDMDL
MODEL 4
REMARK VINA RESULT:      -6.4      1.984      2.371
REMARK  3 active torsions:
REMARK  status: ('A' for Active; 'I' for Inactive)
REMARK    1  A    between atoms: C_2  and  C_3 
REMARK    2  A    between atoms: C_4  and  N_5 
REMARK    3  A    between atoms: C_18  and  C_19 
ROOT
HETATM    1  N   UNL     1      40.651 -13.682   3.968  1.00  0.00    -0.320 N 
HETATM    2  C   UNL     1      39.986 -13.369   5.199  1.00  0.00     0.141 C 
HETATM    3  N   UNL     1      39.831 -14.242   6.153  1.00  0.00    -0.380 N 
HETATM    4  H   UNL     1      40.190 -15.179   6.023  1.00  0.00     0.158 HD
HETATM    5  H   UNL     1      39.357 -13.976   7.004  1.00  0.00     0.158 HD
HETATM    6  S   UNL     1      39.427 -11.735   5.277  1.00  0.00    -0.086 SA
HETATM    7  C   UNL     1      39.748 -11.531   3.495  1.00  0.00     0.093 C 
HETATM    8  C   UNL     1      40.969 -12.443   3.241  1.00  0.00     0.121 C 
HETATM    9  C   UNL     1      40.123 -10.201   2.890  1.00  0.00     0.158 C 
HETATM   10  S   UNL     1      40.882 -10.719   1.335  1.00  0.00     0.147 S 
HETATM   11  O   UNL     1      39.895 -10.611   0.283  1.00  0.00    -0.228 OA
HETATM   12  O   UNL     1      42.190 -10.109   1.246  1.00  0.00    -0.228 OA
HETATM   13  C   UNL     1      41.093 -12.462   1.737  1.00  0.00     0.167 C 
ENDROOT
BRANCH   1  14
HETATM   14  C   UNL     1      41.509 -14.781   3.774  1.00  0.00     0.049 A 
HETATM   15  C   UNL     1      41.074 -15.847   2.943  1.00  0.00    -0.031 A 
HETATM   16  C   UNL     1      41.871 -16.998   2.816  1.00  0.00     0.009 A 
HETATM   17  C   UNL     1      43.087 -17.103   3.479  1.00  0.00     0.001 A 
HETATM   18  C   UNL     1      43.522 -16.059   4.285  1.00  0.00     0.009 A 
HETATM   19  C   UNL     1      42.750 -14.893   4.449  1.00  0.00    -0.031 A 
BRANCH  15  20
HETATM   20  C   UNL     1      39.750 -15.823   2.201  1.00  0.00     0.036 C 
HETATM   21  C   UNL     1      39.914 -15.613   0.700  1.00  0.00     0.010 C 
ENDBRANCH  15  20
BRANCH  19  22
HETATM   22  C   UNL     1      43.326 -13.822   5.354  1.00  0.00     0.036 C 
HETATM   23  C   UNL     1      43.402 -14.276   6.807  1.00  0.00     0.010 C 
ENDBRANCH  19  22
ENDBRANCH   1  14
TORSDOF 3
ENDMDL
MODEL 5
REMARK VINA RESULT:      -6.3      1.952      3.562
REMARK  3 active torsions:
REMARK  status: ('A' for Active; 'I' for Inactive)
REMARK    1  A    between atoms: C_2  and  C_3 
REMARK    2  A    between atoms: C_4  and  N_5 
REMARK    3  A    between atoms: C_18  and  C_19 
ROOT
HETATM    1  N   UNL     1      41.433 -14.145   4.404  1.00  0.00    -0.320 N 
HETATM    2  C   UNL     1      41.225 -15.276   5.260  1.00  0.00     0.141 C 
HETATM    3  N   UNL     1      40.450 -16.270   4.932  1.00  0.00    -0.380 N 
HETATM    4  H   UNL     1      39.972 -16.245   4.041  1.00  0.00     0.158 HD
HETATM    5  H   UNL     1      40.334 -17.047   5.568  1.00  0.00     0.158 HD
HETATM    6  S   UNL     1      42.103 -15.178   6.746  1.00  0.00    -0.086 SA
HETATM    7  C   UNL     1      42.487 -13.428   6.414  1.00  0.00     0.093 C 
HETATM    8  C   UNL     1      42.590 -13.367   4.874  1.00  0.00     0.121 C 
HETATM    9  C   UNL     1      43.749 -12.770   6.915  1.00  0.00     0.158 C 
HETATM   10  S   UNL     1      43.866 -11.342   5.815  1.00  0.00     0.147 S 
HETATM   11  O   UNL     1      43.319 -10.190   6.497  1.00  0.00    -0.228 OA
HETATM   12  O   UNL     1      45.181 -11.344   5.212  1.00  0.00    -0.228 OA
HETATM   13  C   UNL     1      42.673 -11.889   4.580  1.00  0.00     0.167 C 
ENDROOT
BRANCH   1  14
HETATM   14  C   UNL     1      41.157 -14.120   3.024  1.00  0.00     0.049 A 
HETATM   15  C   UNL     1      40.032 -13.386   2.567  1.00  0.00    -0.031 A 
HETATM   16  C   UNL     1      39.679 -13.430   1.206  1.00  0.00     0.009 A 
HETATM   17  C   UNL     1      40.426 -14.168   0.298  1.00  0.00     0.001 A 
HETATM   18  C   UNL     1      41.535 -14.880   0.737  1.00  0.00     0.009 A 
HETATM   19  C   UNL     1      41.916 -14.873   2.092  1.00  0.00    -0.031 A 
BRANCH  15  20
HETATM   20  C   UNL     1      39.149 -12.572   3.496  1.00  0.00     0.036 C 
HETATM   21  C   UNL     1      39.224 -11.074   3.225  1.00  0.00     0.010 C 
ENDBRANCH  15  20
BRANCH  19  22
HETATM   22  C   UNL     1      43.141 -15.687   2.455  1.00  0.00     0.036 C 
HETATM   23  C   UNL     1      42.914 -17.183   2.270  1.00  0.00     0.010 C 
ENDBRANCH  19  22
ENDBRANCH   1  14
TORSDOF 3
ENDMDL
MODEL 6
REMARK VINA RESULT:      -6.2      1.894      3.554
REMARK  3 active torsions:
REMARK  status: ('A' for Active; 'I' for Inactive)
REMARK    1  A    between atoms: C_2  and  C_3 
REMARK    2  A    between atoms: C_4  and  N_5 
REMARK    3  A    between atoms: C_18  and  C_19 
ROOT
HETATM    1  N   UNL     1      40.639 -13.820   4.029  1.00  0.00    -0.320 N 
HETATM    2  C   UNL     1      40.015 -13.517   5.284  1.00  0.00     0.141 C 
HETATM    3  N   UNL     1      39.844 -14.412   6.215  1.00  0.00    -0.380 N 
HETATM    4  H   UNL     1      40.159 -15.358   6.049  1.00  0.00     0.158 HD
HETATM    5  H   UNL     1      39.399 -14.153   7.084  1.00  0.00     0.158 HD
HETATM    6  S   UNL     1      39.529 -11.864   5.424  1.00  0.00    -0.086 SA
HETATM    7  C   UNL     1      39.819 -11.619   3.642  1.00  0.00     0.093 C 
HETATM    8  C   UNL     1      40.994 -12.573   3.333  1.00  0.00     0.121 C 
HETATM    9  C   UNL     1      40.238 -10.288   3.068  1.00  0.00     0.158 C 
HETATM   10  S   UNL     1      40.940 -10.789   1.481  1.00  0.00     0.147 S 
HETATM   11  O   UNL     1      39.936 -10.608   0.456  1.00  0.00    -0.228 OA
HETATM   12  O   UNL     1      42.272 -10.233   1.381  1.00  0.00    -0.228 OA
HETATM   13  C   UNL     1      41.085 -12.552   1.827  1.00  0.00     0.167 C 
ENDROOT
BRANCH   1  14
HETATM   14  C   UNL     1      41.445 -14.948   3.783  1.00  0.00     0.049 A 
HETATM   15  C   UNL     1      42.716 -15.027   4.410  1.00  0.00    -0.031 A 
HETATM   16  C   UNL     1      43.578 -16.095   4.100  1.00  0.00     0.009 A 
HETATM   17  C   UNL     1      43.199 -17.081   3.200  1.00  0.00     0.001 A 
HETATM   18  C   UNL     1      41.953 -17.014   2.590  1.00  0.00     0.009 A 
HETATM   19  C   UNL     1      41.063 -15.957   2.863  1.00  0.00    -0.031 A 
BRANCH  15  20
HETATM   20  C   UNL     1      43.217 -13.981   5.389  1.00  0.00     0.036 C 
HETATM   21  C   UNL     1      43.471 -14.544   6.783  1.00  0.00     0.010 C 
ENDBRANCH  15  20
BRANCH  19  22
HETATM   22  C   UNL     1      39.733 -15.988   2.138  1.00  0.00     0.036 C 
HETATM   23  C   UNL     1      39.868 -15.596   0.672  1.00  0.00     0.010 C 
ENDBRANCH  19  22
ENDBRANCH   1  14
TORSDOF 3
ENDMDL
MODEL 7
REMARK VINA RESULT:      -6.1      3.257      4.896
REMARK  3 active torsions:
REMARK  status: ('A' for Active; 'I' for Inactive)
REMARK    1  A    between atoms: C_2  and  C_3 
REMARK    2  A    between atoms: C_4  and  N_5 
REMARK    3  A    between atoms: C_18  and  C_19 
ROOT
HETATM    1  N   UNL     1      40.905 -13.246   1.443  1.00  0.00    -0.320 N 
HETATM    2  C   UNL     1      40.054 -14.063   0.629  1.00  0.00     0.141 C 
HETATM    3  N   UNL     1      39.800 -15.309   0.911  1.00  0.00    -0.380 N 
HETATM    4  H   UNL     1      40.220 -15.720   1.734  1.00  0.00     0.158 HD
HETATM    5  H   UNL     1      39.194 -15.846   0.308  1.00  0.00     0.158 HD
HETATM    6  S   UNL     1      39.412 -13.227  -0.741  1.00  0.00    -0.086 SA
HETATM    7  C   UNL     1      40.574 -11.852  -0.458  1.00  0.00     0.093 C 
HETATM    8  C   UNL     1      40.739 -11.830   1.078  1.00  0.00     0.121 C 
HETATM    9  C   UNL     1      40.246 -10.428  -0.834  1.00  0.00     0.158 C 
HETATM   10  S   UNL     1      41.413  -9.510   0.195  1.00  0.00     0.147 S 
HETATM   11  O   UNL     1      42.566  -9.170  -0.609  1.00  0.00    -0.228 OA
HETATM   12  O   UNL     1      40.669  -8.529   0.954  1.00  0.00    -0.228 OA
HETATM   13  C   UNL     1      41.871 -10.857   1.302  1.00  0.00     0.167 C 
ENDROOT
BRANCH   1  14
HETATM   14  C   UNL     1      41.258 -13.530   2.776  1.00  0.00     0.049 A 
HETATM   15  C   UNL     1      42.459 -14.244   3.025  1.00  0.00    -0.031 A 
HETATM   16  C   UNL     1      42.780 -14.626   4.340  1.00  0.00     0.009 A 
HETATM   17  C   UNL     1      41.947 -14.303   5.402  1.00  0.00     0.001 A 
HETATM   18  C   UNL     1      40.775 -13.596   5.166  1.00  0.00     0.009 A 
HETATM   19  C   UNL     1      40.410 -13.203   3.864  1.00  0.00    -0.031 A 
BRANCH  15  20
HETATM   20  C   UNL     1      43.415 -14.657   1.920  1.00  0.00     0.036 C 
HETATM   21  C   UNL     1      43.315 -16.137   1.570  1.00  0.00     0.010 C 
ENDBRANCH  15  20
BRANCH  19  22
HETATM   22  C   UNL     1      39.109 -12.438   3.727  1.00  0.00     0.036 C 
HETATM   23  C   UNL     1      39.191 -11.047   4.345  1.00  0.00     0.010 C 
ENDBRANCH  19  22
ENDBRANCH   1  14
TORSDOF 3
ENDMDL
MODEL 8
REMARK VINA RESULT:      -6.1      1.891      3.772
REMARK  3 active torsions:
REMARK  status: ('A' for Active; 'I' for Inactive)
REMARK    1  A    between atoms: C_2  and  C_3 
REMARK    2  A    between atoms: C_4  and  N_5 
REMARK    3  A    between atoms: C_18  and  C_19 
ROOT
HETATM    1  N   UNL     1      41.521 -14.323   4.612  1.00  0.00    -0.320 N 
HETATM    2  C   UNL     1      41.407 -15.418   5.531  1.00  0.00     0.141 C 
HETATM    3  N   UNL     1      40.665 -16.461   5.289  1.00  0.00    -0.380 N 
HETATM    4  H   UNL     1      40.146 -16.502   4.423  1.00  0.00     0.158 HD
HETATM    5  H   UNL     1      40.615 -17.208   5.967  1.00  0.00     0.158 HD
HETATM    6  S   UNL     1      42.347 -15.205   6.966  1.00  0.00    -0.086 SA
HETATM    7  C   UNL     1      42.632 -13.459   6.531  1.00  0.00     0.093 C 
HETATM    8  C   UNL     1      42.661 -13.471   4.987  1.00  0.00     0.121 C 
HETATM    9  C   UNL     1      43.883 -12.720   6.938  1.00  0.00     0.158 C 
HETATM   10  S   UNL     1      43.881 -11.345   5.766  1.00  0.00     0.147 S 
HETATM   11  O   UNL     1      43.312 -10.186   6.417  1.00  0.00    -0.228 OA
HETATM   12  O   UNL     1      45.165 -11.319   5.100  1.00  0.00    -0.228 OA
HETATM   13  C   UNL     1      42.660 -12.007   4.618  1.00  0.00     0.167 C 
ENDROOT
BRANCH   1  14
HETATM   14  C   UNL     1      41.181 -14.380   3.247  1.00  0.00     0.049 A 
HETATM   15  C   UNL     1      41.999 -15.141   2.372  1.00  0.00    -0.031 A 
HETATM   16  C   UNL     1      41.736 -15.131   0.990  1.00  0.00     0.009 A 
HETATM   17  C   UNL     1      40.679 -14.397   0.469  1.00  0.00     0.001 A 
HETATM   18  C   UNL     1      39.869 -13.658   1.322  1.00  0.00     0.009 A 
HETATM   19  C   UNL     1      40.103 -13.632   2.710  1.00  0.00    -0.031 A 
BRANCH  15  20
HETATM   20  C   UNL     1      43.187 -15.953   2.855  1.00  0.00     0.036 C 
HETATM   21  C   UNL     1      43.056 -17.440   2.548  1.00  0.00     0.010 C 
ENDBRANCH  15  20
BRANCH  19  22
HETATM   22  C   UNL     1      39.156 -12.789   3.540  1.00  0.00     0.036 C 
HETATM   23  C   UNL     1      39.164 -11.326   3.115  1.00  0.00     0.010 C 
ENDBRANCH  19  22
ENDBRANCH   1  14
TORSDOF 3
ENDMDL
MODEL 9
REMARK VINA RESULT:      -6.0      7.701     10.783
REMARK  3 active torsions:
REMARK  status: ('A' for Active; 'I' for Inactive)
REMARK    1  A    between atoms: C_2  and  C_3 
REMARK    2  A    between atoms: C_4  and  N_5 
REMARK    3  A    between atoms: C_18  and  C_19 
ROOT
HETATM    1  N   UNL     1      41.795  -8.384  10.614  1.00  0.00    -0.320 N 
HETATM    2  C   UNL     1      40.562  -8.406   9.883  1.00  0.00     0.141 C 
HETATM    3  N   UNL     1      39.424  -8.067  10.419  1.00  0.00    -0.380 N 
HETATM    4  H   UNL     1      39.405  -7.780  11.388  1.00  0.00     0.158 HD
HETATM    5  H   UNL     1      38.580  -8.097   9.864  1.00  0.00     0.158 HD
HETATM    6  S   UNL     1      40.750  -8.918   8.242  1.00  0.00    -0.086 SA
HETATM    7  C   UNL     1      42.446  -9.475   8.602  1.00  0.00     0.093 C 
HETATM    8  C   UNL     1      42.930  -8.485   9.684  1.00  0.00     0.121 C 
HETATM    9  C   UNL     1      43.535  -9.472   7.557  1.00  0.00     0.158 C 
HETATM   10  S   UNL     1      45.018  -9.512   8.587  1.00  0.00     0.147 S 
HETATM   11  O   UNL     1      45.481 -10.879   8.673  1.00  0.00    -0.228 OA
HETATM   12  O   UNL     1      45.875  -8.418   8.187  1.00  0.00    -0.228 OA
HETATM   13  C   UNL     1      44.237  -9.078  10.152  1.00  0.00     0.167 C 
ENDROOT
BRANCH   1  14
HETATM   14  C   UNL     1      42.006  -7.680  11.815  1.00  0.00     0.049 A 
HETATM   15  C   UNL     1      41.929  -8.388  13.042  1.00  0.00    -0.031 A 
HETATM   16  C   UNL     1      42.037  -7.687  14.257  1.00  0.00     0.009 A 
HETATM   17  C   UNL     1      42.232  -6.313  14.274  1.00  0.00     0.001 A 
HETATM   18  C   UNL     1      42.318  -5.616  13.076  1.00  0.00     0.009 A 
HETATM   19  C   UNL     1      42.205  -6.277  11.838  1.00  0.00    -0.031 A 
BRANCH  15  20
HETATM   20  C   UNL     1      41.695  -9.887  13.114  1.00  0.00     0.036 C 
HETATM   21  C   UNL     1      40.220 -10.253  13.232  1.00  0.00     0.010 C 
ENDBRANCH  15  20
BRANCH  19  22
HETATM   22  C   UNL     1      42.313  -5.413  10.597  1.00  0.00     0.036 C 
HETATM   23  C   UNL     1      42.743  -3.988  10.923  1.00  0.00     0.010 C 
ENDBRANCH  19  22
ENDBRANCH   1  14
TORSDOF 3
ENDMDL
MODEL 10
REMARK VINA RESULT:      -5.9      8.497     10.677
REMARK  3 active torsions:
REMARK  status: ('A' for Active; 'I' for Inactive)
REMARK    1  A    between atoms: C_2  and  C_3 
REMARK    2  A    between atoms: C_4  and  N_5 
REMARK    3  A    between atoms: C_18  and  C_19 
ROOT
HETATM    1  N   UNL     1      41.126  -8.279  10.541  1.00  0.00    -0.320 N 
HETATM    2  C   UNL     1      40.233  -9.394  10.420  1.00  0.00     0.141 C 
HETATM    3  N   UNL     1      40.075 -10.272  11.369  1.00  0.00    -0.380 N 
HETATM    4  H   UNL     1      40.603 -10.168  12.224  1.00  0.00     0.158 HD
HETATM    5  H   UNL     1      39.434 -11.042  11.238  1.00  0.00     0.158 HD
HETATM    6  S   UNL     1      39.402  -9.441   8.904  1.00  0.00    -0.086 SA
HETATM    7  C   UNL     1      40.516  -8.160   8.243  1.00  0.00     0.093 C 
HETATM    8  C   UNL     1      40.848  -7.297   9.481  1.00  0.00     0.121 C 
HETATM    9  C   UNL     1      40.077  -7.174   7.189  1.00  0.00     0.158 C 
HETATM   10  S   UNL     1      41.301  -5.863   7.394  1.00  0.00     0.147 S 
HETATM   11  O   UNL     1      42.340  -6.044   6.405  1.00  0.00    -0.228 OA
HETATM   12  O   UNL     1      40.597  -4.612   7.571  1.00  0.00    -0.228 OA
HETATM   13  C   UNL     1      41.946  -6.383   8.995  1.00  0.00     0.167 C 
ENDROOT
BRANCH   1  14
HETATM   14  C   UNL     1      41.637  -7.787  11.757  1.00  0.00     0.049 A 
HETATM   15  C   UNL     1      42.947  -8.167  12.149  1.00  0.00    -0.031 A 
HETATM   16  C   UNL     1      43.440  -7.770  13.405  1.00  0.00     0.009 A 
HETATM   17  C   UNL     1      42.669  -6.997  14.263  1.00  0.00     0.001 A 
HETATM   18  C   UNL     1      41.390  -6.614  13.881  1.00  0.00     0.009 A 
HETATM   19  C   UNL     1      40.854  -6.998  12.637  1.00  0.00    -0.031 A 
BRANCH  15  20
HETATM   20  C   UNL     1      43.847  -9.029  11.281  1.00  0.00     0.036 C 
HETATM   21  C   UNL     1      43.693 -10.519  11.562  1.00  0.00     0.010 C 
ENDBRANCH  15  20
BRANCH  19  22
HETATM   22  C   UNL     1      39.449  -6.522  12.330  1.00  0.00     0.036 C 
HETATM   23  C   UNL     1      38.388  -7.375  13.016  1.00  0.00     0.010 C 
ENDBRANCH  19  22
ENDBRANCH   1  14
TORSDOF 3
ENDMDL
