MODEL 1
REMARK VINA RESULT:      -9.6      0.000      0.000
REMARK  5 active torsions:
REMARK  status: ('A' for Active; 'I' for Inactive)
REMARK    1  A    between atoms: C_11  and  C_12 
REMARK    2  A    between atoms: C_15  and  N_16 
REMARK    3  A    between atoms: N_16  and  C_17 
REMARK    4  A    between atoms: C_18  and  O_19 
REMARK    5  A    between atoms: O_19  and  C_20 
ROOT
HETATM    1  C   UNL     1      41.941 -11.845   5.796  1.00  0.00     0.077 C 
HETATM    2  C   UNL     1      40.447 -11.686   6.025  1.00  0.00     0.023 C 
HETATM    3  N   UNL     1      39.207 -11.555   6.216  1.00  0.00    -0.096 N 
HETATM    4  C   UNL     1      42.763 -11.111   6.576  1.00  0.00     0.087 C 
ENDROOT
BRANCH   1   5
HETATM    5  C   UNL     1      42.417 -12.688   4.742  1.00  0.00     0.118 A 
HETATM    6  N   UNL     1      42.517 -14.007   4.790  1.00  0.00    -0.239 NA
HETATM    7  C   UNL     1      42.983 -14.532   3.588  1.00  0.00     0.081 A 
HETATM    8  C   UNL     1      43.172 -15.958   3.474  1.00  0.00     0.070 A 
HETATM    9  C   UNL     1      43.266 -13.589   2.626  1.00  0.00     0.084 A 
HETATM   10  C   UNL     1      43.188 -16.604   2.120  1.00  0.00     0.301 A 
HETATM   11  C   UNL     1      43.333 -16.730   4.567  1.00  0.00     0.034 A 
HETATM   12  O   UNL     1      43.441 -17.972   2.060  1.00  0.00    -0.274 OA
HETATM   13  O   UNL     1      42.992 -15.979   1.081  1.00  0.00    -0.259 OA
HETATM   14  C   UNL     1      43.622 -18.746   3.214  1.00  0.00     0.089 A 
HETATM   15  C   UNL     1      43.561 -18.161   4.472  1.00  0.00    -0.001 A 
HETATM   16  C   UNL     1      43.858 -20.108   3.047  1.00  0.00     0.038 A 
HETATM   17  C   UNL     1      43.743 -18.966   5.598  1.00  0.00     0.014 A 
HETATM   18  C   UNL     1      43.981 -20.336   5.448  1.00  0.00     0.001 A 
HETATM   19  C   UNL     1      44.040 -20.907   4.174  1.00  0.00     0.003 A 
HETATM   20  S   UNL     1      42.897 -12.027   3.204  1.00  0.00    -0.078 SA
ENDBRANCH   1   5
BRANCH   4  21
HETATM   21  N   UNL     1      42.393 -10.236   7.583  1.00  0.00    -0.266 NA
HETATM   22  H   UNL     1      42.078  -9.327   7.227  1.00  0.00     0.133 HD
BRANCH  21  23
HETATM   23  C   UNL     1      43.207  -9.959   8.720  1.00  0.00     0.046 A 
HETATM   24  C   UNL     1      42.585  -9.488   9.892  1.00  0.00     0.096 A 
HETATM   25  C   UNL     1      43.318  -9.174  11.036  1.00  0.00     0.039 A 
HETATM   26  C   UNL     1      44.694  -9.379  11.042  1.00  0.00     0.003 A 
HETATM   27  C   UNL     1      45.325  -9.897   9.910  1.00  0.00     0.002 A 
HETATM   28  C   UNL     1      44.585 -10.195   8.759  1.00  0.00     0.026 A 
BRANCH  24  29
HETATM   29  O   UNL     1      41.225  -9.304   9.902  1.00  0.00    -0.288 OA
BRANCH  29  30
HETATM   30  C   UNL     1      40.757  -9.382  11.248  1.00  0.00     0.505 C 
HETATM   31  F   UNL     1      40.069  -8.244  11.526  1.00  0.00    -0.184 F 
HETATM   32  F   UNL     1      39.858 -10.397  11.297  1.00  0.00    -0.184 F 
ENDBRANCH  29  30
ENDBRANCH  24  29
ENDBRANCH  21  23
ENDBRANCH   4  21
TORSDOF 5
ENDMDL
MODEL 2
REMARK VINA RESULT:      -9.5      4.885      7.320
REMARK  5 active torsions:
REMARK  status: ('A' for Active; 'I' for Inactive)
REMARK    1  A    between atoms: C_11  and  C_12 
REMARK    2  A    between atoms: C_15  and  N_16 
REMARK    3  A    between atoms: N_16  and  C_17 
REMARK    4  A    between atoms: C_18  and  O_19 
REMARK    5  A    between atoms: O_19  and  C_20 
ROOT
HETATM    1  C   UNL     1      42.306 -11.320   3.642  1.00  0.00     0.077 C 
HETATM    2  C   UNL     1      41.869 -10.002   4.260  1.00  0.00     0.023 C 
HETATM    3  N   UNL     1      41.507  -8.908   4.773  1.00  0.00    -0.096 N 
HETATM    4  C   UNL     1      42.385 -11.370   2.295  1.00  0.00     0.087 C 
ENDROOT
BRANCH   1   5
HETATM    5  C   UNL     1      42.545 -12.457   4.477  1.00  0.00     0.118 A 
HETATM    6  N   UNL     1      42.830 -13.680   4.059  1.00  0.00    -0.239 NA
HETATM    7  C   UNL     1      43.039 -14.553   5.123  1.00  0.00     0.081 A 
HETATM    8  C   UNL     1      43.340 -15.936   4.845  1.00  0.00     0.070 A 
HETATM    9  C   UNL     1      42.883 -13.983   6.366  1.00  0.00     0.084 A 
HETATM   10  C   UNL     1      44.038 -16.771   5.877  1.00  0.00     0.301 A 
HETATM   11  C   UNL     1      43.008 -16.499   3.667  1.00  0.00     0.034 A 
HETATM   12  O   UNL     1      44.244 -18.117   5.587  1.00  0.00    -0.274 OA
HETATM   13  O   UNL     1      44.424 -16.318   6.952  1.00  0.00    -0.259 OA
HETATM   14  C   UNL     1      43.872 -18.679   4.358  1.00  0.00     0.089 A 
HETATM   15  C   UNL     1      43.268 -17.899   3.381  1.00  0.00    -0.001 A 
HETATM   16  C   UNL     1      44.132 -20.032   4.161  1.00  0.00     0.038 A 
HETATM   17  C   UNL     1      42.915 -18.493   2.168  1.00  0.00     0.014 A 
HETATM   18  C   UNL     1      43.169 -19.852   1.954  1.00  0.00     0.001 A 
HETATM   19  C   UNL     1      43.776 -20.621   2.950  1.00  0.00     0.003 A 
HETATM   20  S   UNL     1      42.521 -12.323   6.214  1.00  0.00    -0.078 SA
ENDBRANCH   1   5
BRANCH   4  21
HETATM   21  N   UNL     1      42.126 -10.340   1.407  1.00  0.00    -0.266 NA
HETATM   22  H   UNL     1      41.817  -9.480   1.872  1.00  0.00     0.133 HD
BRANCH  21  23
HETATM   23  C   UNL     1      41.304 -10.487   0.252  1.00  0.00     0.046 A 
HETATM   24  C   UNL     1      41.733  -9.906  -0.956  1.00  0.00     0.096 A 
HETATM   25  C   UNL     1      40.971  -9.988  -2.121  1.00  0.00     0.039 A 
HETATM   26  C   UNL     1      39.781 -10.708  -2.108  1.00  0.00     0.003 A 
HETATM   27  C   UNL     1      39.363 -11.340  -0.935  1.00  0.00     0.002 A 
HETATM   28  C   UNL     1      40.124 -11.238   0.235  1.00  0.00     0.026 A 
BRANCH  24  29
HETATM   29  O   UNL     1      42.918  -9.213  -0.984  1.00  0.00    -0.288 OA
BRANCH  29  30
HETATM   30  C   UNL     1      42.664  -7.880  -1.423  1.00  0.00     0.505 C 
HETATM   31  F   UNL     1      42.156  -7.176  -0.379  1.00  0.00    -0.184 F 
HETATM   32  F   UNL     1      43.867  -7.323  -1.713  1.00  0.00    -0.184 F 
ENDBRANCH  29  30
ENDBRANCH  24  29
ENDBRANCH  21  23
ENDBRANCH   4  21
TORSDOF 5
ENDMDL
MODEL 3
REMARK VINA RESULT:      -9.4      2.250      2.682
REMARK  5 active torsions:
REMARK  status: ('A' for Active; 'I' for Inactive)
REMARK    1  A    between atoms: C_11  and  C_12 
REMARK    2  A    between atoms: C_15  and  N_16 
REMARK    3  A    between atoms: N_16  and  C_17 
REMARK    4  A    between atoms: C_18  and  O_19 
REMARK    5  A    between atoms: O_19  and  C_20 
ROOT
HETATM    1  C   UNL     1      41.949 -11.348   5.783  1.00  0.00     0.077 C 
HETATM    2  C   UNL     1      40.480 -11.359   6.175  1.00  0.00     0.023 C 
HETATM    3  N   UNL     1      39.262 -11.370   6.500  1.00  0.00    -0.096 N 
HETATM    4  C   UNL     1      42.741 -10.443   6.398  1.00  0.00     0.087 C 
ENDROOT
BRANCH   1   5
HETATM    5  C   UNL     1      42.420 -12.221   4.752  1.00  0.00     0.118 A 
HETATM    6  N   UNL     1      42.509 -13.539   4.834  1.00  0.00    -0.239 NA
HETATM    7  C   UNL     1      42.975 -14.098   3.646  1.00  0.00     0.081 A 
HETATM    8  C   UNL     1      43.153 -15.528   3.569  1.00  0.00     0.070 A 
HETATM    9  C   UNL     1      43.266 -13.182   2.662  1.00  0.00     0.084 A 
HETATM   10  C   UNL     1      43.166 -16.208   2.232  1.00  0.00     0.301 A 
HETATM   11  C   UNL     1      43.305 -16.273   4.681  1.00  0.00     0.034 A 
HETATM   12  O   UNL     1      43.409 -17.579   2.207  1.00  0.00    -0.274 OA
HETATM   13  O   UNL     1      42.977 -15.608   1.177  1.00  0.00    -0.259 OA
HETATM   14  C   UNL     1      43.581 -18.325   3.381  1.00  0.00     0.089 A 
HETATM   15  C   UNL     1      43.523 -17.707   4.623  1.00  0.00    -0.001 A 
HETATM   16  C   UNL     1      43.808 -19.692   3.249  1.00  0.00     0.038 A 
HETATM   17  C   UNL     1      43.696 -18.485   5.770  1.00  0.00     0.014 A 
HETATM   18  C   UNL     1      43.924 -19.860   5.655  1.00  0.00     0.001 A 
HETATM   19  C   UNL     1      43.981 -20.463   4.396  1.00  0.00     0.003 A 
HETATM   20  S   UNL     1      42.908 -11.603   3.198  1.00  0.00    -0.078 SA
ENDBRANCH   1   5
BRANCH   4  21
HETATM   21  N   UNL     1      42.364  -9.529   7.367  1.00  0.00    -0.266 NA
HETATM   22  H   UNL     1      42.451  -8.556   7.054  1.00  0.00     0.133 HD
BRANCH  21  23
HETATM   23  C   UNL     1      42.848  -9.562   8.706  1.00  0.00     0.046 A 
HETATM   24  C   UNL     1      44.228  -9.384   8.927  1.00  0.00     0.096 A 
HETATM   25  C   UNL     1      44.778  -9.428  10.207  1.00  0.00     0.039 A 
HETATM   26  C   UNL     1      43.939  -9.597  11.304  1.00  0.00     0.003 A 
HETATM   27  C   UNL     1      42.562  -9.720  11.114  1.00  0.00     0.002 A 
HETATM   28  C   UNL     1      42.019  -9.693   9.825  1.00  0.00     0.026 A 
BRANCH  24  29
HETATM   29  O   UNL     1      45.060  -9.194   7.852  1.00  0.00    -0.288 OA
BRANCH  29  30
HETATM   30  C   UNL     1      46.167 -10.085   7.960  1.00  0.00     0.505 C 
HETATM   31  F   UNL     1      46.178 -10.886   6.863  1.00  0.00    -0.184 F 
HETATM   32  F   UNL     1      47.293  -9.329   7.895  1.00  0.00    -0.184 F 
ENDBRANCH  29  30
ENDBRANCH  24  29
ENDBRANCH  21  23
ENDBRANCH   4  21
TORSDOF 5
ENDMDL
MODEL 4
REMARK VINA RESULT:      -9.2      1.896      2.518
REMARK  5 active torsions:
REMARK  status: ('A' for Active; 'I' for Inactive)
REMARK    1  A    between atoms: C_11  and  C_12 
REMARK    2  A    between atoms: C_15  and  N_16 
REMARK    3  A    between atoms: N_16  and  C_17 
REMARK    4  A    between atoms: C_18  and  O_19 
REMARK    5  A    between atoms: O_19  and  C_20 
ROOT
HETATM    1  C   UNL     1      42.837 -11.641   6.169  1.00  0.00     0.077 C 
HETATM    2  C   UNL     1      44.041 -11.463   7.078  1.00  0.00     0.023 C 
HETATM    3  N   UNL     1      45.041 -11.314   7.832  1.00  0.00    -0.096 N 
HETATM    4  C   UNL     1      41.670 -11.099   6.582  1.00  0.00     0.087 C 
ENDROOT
BRANCH   1   5
HETATM    5  C   UNL     1      42.953 -12.416   4.972  1.00  0.00     0.118 A 
HETATM    6  N   UNL     1      42.979 -13.738   4.905  1.00  0.00    -0.239 NA
HETATM    7  C   UNL     1      43.067 -14.185   3.589  1.00  0.00     0.081 A 
HETATM    8  C   UNL     1      43.128 -15.604   3.334  1.00  0.00     0.070 A 
HETATM    9  C   UNL     1      43.134 -13.181   2.650  1.00  0.00     0.084 A 
HETATM   10  C   UNL     1      42.733 -16.139   1.990  1.00  0.00     0.301 A 
HETATM   11  C   UNL     1      43.532 -16.467   4.288  1.00  0.00     0.034 A 
HETATM   12  O   UNL     1      42.874 -17.508   1.774  1.00  0.00    -0.274 OA
HETATM   13  O   UNL     1      42.300 -15.426   1.089  1.00  0.00    -0.259 OA
HETATM   14  C   UNL     1      43.314 -18.378   2.780  1.00  0.00     0.089 A 
HETATM   15  C   UNL     1      43.636 -17.894   4.040  1.00  0.00    -0.001 A 
HETATM   16  C   UNL     1      43.411 -19.731   2.465  1.00  0.00     0.038 A 
HETATM   17  C   UNL     1      44.067 -18.793   5.017  1.00  0.00     0.014 A 
HETATM   18  C   UNL     1      44.170 -20.155   4.718  1.00  0.00     0.001 A 
HETATM   19  C   UNL     1      43.843 -20.625   3.443  1.00  0.00     0.003 A 
HETATM   20  S   UNL     1      43.035 -11.656   3.407  1.00  0.00    -0.078 SA
ENDBRANCH   1   5
BRANCH   4  21
HETATM   21  N   UNL     1      41.453 -10.379   7.744  1.00  0.00    -0.266 NA
HETATM   22  H   UNL     1      40.499 -10.483   8.106  1.00  0.00     0.133 HD
BRANCH  21  23
HETATM   23  C   UNL     1      41.785  -9.000   7.885  1.00  0.00     0.046 A 
HETATM   24  C   UNL     1      42.570  -8.608   8.987  1.00  0.00     0.096 A 
HETATM   25  C   UNL     1      42.916  -7.275   9.204  1.00  0.00     0.039 A 
HETATM   26  C   UNL     1      42.522  -6.310   8.282  1.00  0.00     0.003 A 
HETATM   27  C   UNL     1      41.791  -6.683   7.154  1.00  0.00     0.002 A 
HETATM   28  C   UNL     1      41.433  -8.021   6.951  1.00  0.00     0.026 A 
BRANCH  24  29
HETATM   29  O   UNL     1      42.982  -9.557   9.889  1.00  0.00    -0.288 OA
BRANCH  29  30
HETATM   30  C   UNL     1      43.946  -8.976  10.764  1.00  0.00     0.505 C 
HETATM   31  F   UNL     1      43.464  -9.041  12.032  1.00  0.00    -0.184 F 
HETATM   32  F   UNL     1      45.044  -9.773  10.729  1.00  0.00    -0.184 F 
ENDBRANCH  29  30
ENDBRANCH  24  29
ENDBRANCH  21  23
ENDBRANCH   4  21
TORSDOF 5
ENDMDL
MODEL 5
REMARK VINA RESULT:      -9.2      5.162      7.680
REMARK  5 active torsions:
REMARK  status: ('A' for Active; 'I' for Inactive)
REMARK    1  A    between atoms: C_11  and  C_12 
REMARK    2  A    between atoms: C_15  and  N_16 
REMARK    3  A    between atoms: N_16  and  C_17 
REMARK    4  A    between atoms: C_18  and  O_19 
REMARK    5  A    between atoms: O_19  and  C_20 
ROOT
HETATM    1  C   UNL     1      41.782 -11.632   2.849  1.00  0.00     0.077 C 
HETATM    2  C   UNL     1      41.493 -10.217   3.322  1.00  0.00     0.023 C 
HETATM    3  N   UNL     1      41.255  -9.042   3.715  1.00  0.00    -0.096 N 
HETATM    4  C   UNL     1      41.606 -11.887   1.534  1.00  0.00     0.087 C 
ENDROOT
BRANCH   1   5
HETATM    5  C   UNL     1      42.149 -12.641   3.794  1.00  0.00     0.118 A 
HETATM    6  N   UNL     1      42.514 -13.880   3.503  1.00  0.00    -0.239 NA
HETATM    7  C   UNL     1      42.842 -14.602   4.647  1.00  0.00     0.081 A 
HETATM    8  C   UNL     1      43.242 -15.982   4.513  1.00  0.00     0.070 A 
HETATM    9  C   UNL     1      42.695 -13.903   5.823  1.00  0.00     0.084 A 
HETATM   10  C   UNL     1      44.052 -16.634   5.594  1.00  0.00     0.301 A 
HETATM   11  C   UNL     1      42.905 -16.703   3.425  1.00  0.00     0.034 A 
HETATM   12  O   UNL     1      44.354 -17.985   5.447  1.00  0.00    -0.274 OA
HETATM   13  O   UNL     1      44.447 -16.030   6.587  1.00  0.00    -0.259 OA
HETATM   14  C   UNL     1      43.975 -18.714   4.313  1.00  0.00     0.089 A 
HETATM   15  C   UNL     1      43.266 -18.103   3.287  1.00  0.00    -0.001 A 
HETATM   16  C   UNL     1      44.336 -20.058   4.258  1.00  0.00     0.038 A 
HETATM   17  C   UNL     1      42.909 -18.862   2.171  1.00  0.00     0.014 A 
HETATM   18  C   UNL     1      43.264 -20.213   2.100  1.00  0.00     0.001 A 
HETATM   19  C   UNL     1      43.976 -20.811   3.142  1.00  0.00     0.003 A 
HETATM   20  S   UNL     1      42.193 -12.305   5.503  1.00  0.00    -0.078 SA
ENDBRANCH   1   5
BRANCH   4  21
HETATM   21  N   UNL     1      41.206 -10.990   0.559  1.00  0.00    -0.266 NA
HETATM   22  H   UNL     1      41.518 -10.031   0.745  1.00  0.00     0.133 HD
BRANCH  21  23
HETATM   23  C   UNL     1      39.865 -10.890   0.087  1.00  0.00     0.046 A 
HETATM   24  C   UNL     1      39.402 -11.850  -0.832  1.00  0.00     0.096 A 
HETATM   25  C   UNL     1      38.111 -11.804  -1.356  1.00  0.00     0.039 A 
HETATM   26  C   UNL     1      37.235 -10.814  -0.920  1.00  0.00     0.003 A 
HETATM   27  C   UNL     1      37.653  -9.884   0.033  1.00  0.00     0.002 A 
HETATM   28  C   UNL     1      38.957  -9.927   0.541  1.00  0.00     0.026 A 
BRANCH  24  29
HETATM   29  O   UNL     1      40.253 -12.843  -1.250  1.00  0.00    -0.288 OA
BRANCH  29  30
HETATM   30  C   UNL     1      39.483 -13.916  -1.789  1.00  0.00     0.505 C 
HETATM   31  F   UNL     1      40.164 -14.444  -2.839  1.00  0.00    -0.184 F 
HETATM   32  F   UNL     1      39.432 -14.883  -0.839  1.00  0.00    -0.184 F 
ENDBRANCH  29  30
ENDBRANCH  24  29
ENDBRANCH  21  23
ENDBRANCH   4  21
TORSDOF 5
ENDMDL
MODEL 6
REMARK VINA RESULT:      -9.1      5.507      9.583
REMARK  5 active torsions:
REMARK  status: ('A' for Active; 'I' for Inactive)
REMARK    1  A    between atoms: C_11  and  C_12 
REMARK    2  A    between atoms: C_15  and  N_16 
REMARK    3  A    between atoms: N_16  and  C_17 
REMARK    4  A    between atoms: C_18  and  O_19 
REMARK    5  A    between atoms: O_19  and  C_20 
ROOT
HETATM    1  C   UNL     1      41.919 -15.083   2.242  1.00  0.00     0.077 C 
HETATM    2  C   UNL     1      41.824 -14.422   3.607  1.00  0.00     0.023 C 
HETATM    3  N   UNL     1      41.744 -13.874   4.741  1.00  0.00    -0.096 N 
HETATM    4  C   UNL     1      42.746 -16.145   2.131  1.00  0.00     0.087 C 
ENDROOT
BRANCH   1   5
HETATM    5  C   UNL     1      41.208 -14.531   1.130  1.00  0.00     0.118 A 
HETATM    6  N   UNL     1      41.511 -13.410   0.495  1.00  0.00    -0.239 NA
HETATM    7  C   UNL     1      40.642 -13.168  -0.565  1.00  0.00     0.081 A 
HETATM    8  C   UNL     1      40.816 -11.973  -1.354  1.00  0.00     0.070 A 
HETATM    9  C   UNL     1      39.649 -14.109  -0.714  1.00  0.00     0.084 A 
HETATM   10  C   UNL     1      40.262 -11.909  -2.747  1.00  0.00     0.301 A 
HETATM   11  C   UNL     1      41.476 -10.904  -0.865  1.00  0.00     0.034 A 
HETATM   12  O   UNL     1      40.398 -10.709  -3.441  1.00  0.00    -0.274 OA
HETATM   13  O   UNL     1      39.699 -12.858  -3.284  1.00  0.00    -0.259 OA
HETATM   14  C   UNL     1      41.075  -9.608  -2.899  1.00  0.00     0.089 A 
HETATM   15  C   UNL     1      41.631  -9.679  -1.629  1.00  0.00    -0.001 A 
HETATM   16  C   UNL     1      41.166  -8.459  -3.679  1.00  0.00     0.038 A 
HETATM   17  C   UNL     1      42.301  -8.562  -1.125  1.00  0.00     0.014 A 
HETATM   18  C   UNL     1      42.402  -7.399  -1.895  1.00  0.00     0.001 A 
HETATM   19  C   UNL     1      41.834  -7.347  -3.171  1.00  0.00     0.003 A 
HETATM   20  S   UNL     1      39.827 -15.345   0.448  1.00  0.00    -0.078 SA
ENDBRANCH   1   5
BRANCH   4  21
HETATM   21  N   UNL     1      43.508 -16.715   3.135  1.00  0.00    -0.266 NA
HETATM   22  H   UNL     1      44.457 -16.330   3.184  1.00  0.00     0.133 HD
BRANCH  21  23
HETATM   23  C   UNL     1      43.638 -18.122   3.319  1.00  0.00     0.046 A 
HETATM   24  C   UNL     1      44.019 -18.603   4.587  1.00  0.00     0.096 A 
HETATM   25  C   UNL     1      44.189 -19.964   4.835  1.00  0.00     0.039 A 
HETATM   26  C   UNL     1      43.925 -20.880   3.822  1.00  0.00     0.003 A 
HETATM   27  C   UNL     1      43.493 -20.431   2.573  1.00  0.00     0.002 A 
HETATM   28  C   UNL     1      43.341 -19.062   2.326  1.00  0.00     0.026 A 
BRANCH  24  29
HETATM   29  O   UNL     1      44.259 -17.707   5.598  1.00  0.00    -0.288 OA
BRANCH  29  30
HETATM   30  C   UNL     1      43.212 -17.806   6.562  1.00  0.00     0.505 C 
HETATM   31  F   UNL     1      43.740 -17.571   7.791  1.00  0.00    -0.184 F 
HETATM   32  F   UNL     1      42.348 -16.789   6.314  1.00  0.00    -0.184 F 
ENDBRANCH  29  30
ENDBRANCH  24  29
ENDBRANCH  21  23
ENDBRANCH   4  21
TORSDOF 5
ENDMDL
MODEL 7
REMARK VINA RESULT:      -8.9      4.617      7.253
REMARK  5 active torsions:
REMARK  status: ('A' for Active; 'I' for Inactive)
REMARK    1  A    between atoms: C_11  and  C_12 
REMARK    2  A    between atoms: C_15  and  N_16 
REMARK    3  A    between atoms: N_16  and  C_17 
REMARK    4  A    between atoms: C_18  and  O_19 
REMARK    5  A    between atoms: O_19  and  C_20 
ROOT
HETATM    1  C   UNL     1      41.597 -11.702   2.900  1.00  0.00     0.077 C 
HETATM    2  C   UNL     1      41.005 -10.393   3.396  1.00  0.00     0.023 C 
HETATM    3  N   UNL     1      40.514  -9.307   3.808  1.00  0.00    -0.096 N 
HETATM    4  C   UNL     1      41.635 -11.890   1.563  1.00  0.00     0.087 C 
ENDROOT
BRANCH   1   5
HETATM    5  C   UNL     1      42.018 -12.696   3.838  1.00  0.00     0.118 A 
HETATM    6  N   UNL     1      42.404 -13.928   3.541  1.00  0.00    -0.239 NA
HETATM    7  C   UNL     1      42.783 -14.636   4.678  1.00  0.00     0.081 A 
HETATM    8  C   UNL     1      43.212 -16.007   4.537  1.00  0.00     0.070 A 
HETATM    9  C   UNL     1      42.655 -13.936   5.855  1.00  0.00     0.084 A 
HETATM   10  C   UNL     1      44.070 -16.634   5.596  1.00  0.00     0.301 A 
HETATM   11  C   UNL     1      42.860 -16.742   3.463  1.00  0.00     0.034 A 
HETATM   12  O   UNL     1      44.400 -17.978   5.446  1.00  0.00    -0.274 OA
HETATM   13  O   UNL     1      44.479 -16.015   6.575  1.00  0.00    -0.259 OA
HETATM   14  C   UNL     1      44.004 -18.722   4.327  1.00  0.00     0.089 A 
HETATM   15  C   UNL     1      43.250 -18.133   3.321  1.00  0.00    -0.001 A 
HETATM   16  C   UNL     1      44.396 -20.056   4.267  1.00  0.00     0.038 A 
HETATM   17  C   UNL     1      42.878 -18.905   2.219  1.00  0.00     0.014 A 
HETATM   18  C   UNL     1      43.263 -20.248   2.143  1.00  0.00     0.001 A 
HETATM   19  C   UNL     1      44.020 -20.823   3.166  1.00  0.00     0.003 A 
HETATM   20  S   UNL     1      42.104 -12.352   5.543  1.00  0.00    -0.078 SA
ENDBRANCH   1   5
BRANCH   4  21
HETATM   21  N   UNL     1      41.208 -11.008   0.586  1.00  0.00    -0.266 NA
HETATM   22  H   UNL     1      40.660 -10.228   0.963  1.00  0.00     0.133 HD
BRANCH  21  23
HETATM   23  C   UNL     1      40.546 -11.421  -0.607  1.00  0.00     0.046 A 
HETATM   24  C   UNL     1      39.219 -11.881  -0.515  1.00  0.00     0.096 A 
HETATM   25  C   UNL     1      38.515 -12.323  -1.635  1.00  0.00     0.039 A 
HETATM   26  C   UNL     1      39.118 -12.259  -2.887  1.00  0.00     0.003 A 
HETATM   27  C   UNL     1      40.414 -11.754  -3.011  1.00  0.00     0.002 A 
HETATM   28  C   UNL     1      41.120 -11.329  -1.880  1.00  0.00     0.026 A 
BRANCH  24  29
HETATM   29  O   UNL     1      38.609 -11.926   0.714  1.00  0.00    -0.288 OA
BRANCH  29  30
HETATM   30  C   UNL     1      37.630 -10.890   0.782  1.00  0.00     0.505 C 
HETATM   31  F   UNL     1      36.492 -11.413   1.307  1.00  0.00    -0.184 F 
HETATM   32  F   UNL     1      38.082  -9.977   1.679  1.00  0.00    -0.184 F 
ENDBRANCH  29  30
ENDBRANCH  24  29
ENDBRANCH  21  23
ENDBRANCH   4  21
TORSDOF 5
ENDMDL
MODEL 8
REMARK VINA RESULT:      -8.9      4.842      8.393
REMARK  5 active torsions:
REMARK  status: ('A' for Active; 'I' for Inactive)
REMARK    1  A    between atoms: C_11  and  C_12 
REMARK    2  A    between atoms: C_15  and  N_16 
REMARK    3  A    between atoms: N_16  and  C_17 
REMARK    4  A    between atoms: C_18  and  O_19 
REMARK    5  A    between atoms: O_19  and  C_20 
ROOT
HETATM    1  C   UNL     1      42.766 -13.725   4.863  1.00  0.00     0.077 C 
HETATM    2  C   UNL     1      43.539 -13.152   6.039  1.00  0.00     0.023 C 
HETATM    3  N   UNL     1      44.180 -12.676   7.016  1.00  0.00    -0.096 N 
HETATM    4  C   UNL     1      42.570 -15.062   4.850  1.00  0.00     0.087 C 
ENDROOT
BRANCH   1   5
HETATM    5  C   UNL     1      42.345 -12.867   3.798  1.00  0.00     0.118 A 
HETATM    6  N   UNL     1      41.563 -13.213   2.788  1.00  0.00    -0.239 NA
HETATM    7  C   UNL     1      41.313 -12.138   1.939  1.00  0.00     0.081 A 
HETATM    8  C   UNL     1      40.492 -12.344   0.771  1.00  0.00     0.070 A 
HETATM    9  C   UNL     1      41.941 -10.968   2.302  1.00  0.00     0.084 A 
HETATM   10  C   UNL     1      39.804 -11.179   0.125  1.00  0.00     0.301 A 
HETATM   11  C   UNL     1      40.325 -13.574   0.244  1.00  0.00     0.034 A 
HETATM   12  O   UNL     1      39.079 -11.421  -1.039  1.00  0.00    -0.274 OA
HETATM   13  O   UNL     1      39.860 -10.038   0.576  1.00  0.00    -0.259 OA
HETATM   14  C   UNL     1      38.938 -12.709  -1.573  1.00  0.00     0.089 A 
HETATM   15  C   UNL     1      39.534 -13.798  -0.952  1.00  0.00    -0.001 A 
HETATM   16  C   UNL     1      38.183 -12.846  -2.735  1.00  0.00     0.038 A 
HETATM   17  C   UNL     1      39.367 -15.066  -1.512  1.00  0.00     0.014 A 
HETATM   18  C   UNL     1      38.612 -15.222  -2.679  1.00  0.00     0.001 A 
HETATM   19  C   UNL     1      38.021 -14.114  -3.291  1.00  0.00     0.003 A 
HETATM   20  S   UNL     1      42.814 -11.191   3.750  1.00  0.00    -0.078 SA
ENDBRANCH   1   5
BRANCH   4  21
HETATM   21  N   UNL     1      42.982 -15.973   5.807  1.00  0.00    -0.266 NA
HETATM   22  H   UNL     1      43.737 -15.614   6.402  1.00  0.00     0.133 HD
BRANCH  21  23
HETATM   23  C   UNL     1      43.318 -17.325   5.509  1.00  0.00     0.046 A 
HETATM   24  C   UNL     1      43.723 -17.644   4.198  1.00  0.00     0.096 A 
HETATM   25  C   UNL     1      44.045 -18.949   3.826  1.00  0.00     0.039 A 
HETATM   26  C   UNL     1      44.018 -19.957   4.785  1.00  0.00     0.003 A 
HETATM   27  C   UNL     1      43.673 -19.655   6.103  1.00  0.00     0.002 A 
HETATM   28  C   UNL     1      43.335 -18.345   6.465  1.00  0.00     0.026 A 
BRANCH  24  29
HETATM   29  O   UNL     1      43.774 -16.651   3.252  1.00  0.00    -0.288 OA
BRANCH  29  30
HETATM   30  C   UNL     1      43.148 -17.117   2.058  1.00  0.00     0.505 C 
HETATM   31  F   UNL     1      41.806 -17.139   2.262  1.00  0.00    -0.184 F 
HETATM   32  F   UNL     1      43.376 -16.182   1.101  1.00  0.00    -0.184 F 
ENDBRANCH  29  30
ENDBRANCH  24  29
ENDBRANCH  21  23
ENDBRANCH   4  21
TORSDOF 5
ENDMDL
MODEL 9
REMARK VINA RESULT:      -8.6      3.569      9.997
REMARK  5 active torsions:
REMARK  status: ('A' for Active; 'I' for Inactive)
REMARK    1  A    between atoms: C_11  and  C_12 
REMARK    2  A    between atoms: C_15  and  N_16 
REMARK    3  A    between atoms: N_16  and  C_17 
REMARK    4  A    between atoms: C_18  and  O_19 
REMARK    5  A    between atoms: O_19  and  C_20 
ROOT
HETATM    1  C   UNL     1      43.104 -12.414   5.366  1.00  0.00     0.077 C 
HETATM    2  C   UNL     1      42.969 -11.864   3.955  1.00  0.00     0.023 C 
HETATM    3  N   UNL     1      42.858 -11.407   2.785  1.00  0.00    -0.096 N 
HETATM    4  C   UNL     1      42.527 -13.609   5.615  1.00  0.00     0.087 C 
ENDROOT
BRANCH   1   5
HETATM    5  C   UNL     1      43.756 -11.638   6.376  1.00  0.00     0.118 A 
HETATM    6  N   UNL     1      43.168 -11.072   7.418  1.00  0.00    -0.239 NA
HETATM    7  C   UNL     1      44.086 -10.415   8.233  1.00  0.00     0.081 A 
HETATM    8  C   UNL     1      43.611  -9.723   9.406  1.00  0.00     0.070 A 
HETATM    9  C   UNL     1      45.385 -10.465   7.782  1.00  0.00     0.084 A 
HETATM   10  C   UNL     1      44.551  -9.440  10.539  1.00  0.00     0.301 A 
HETATM   11  C   UNL     1      42.327  -9.324   9.509  1.00  0.00     0.034 A 
HETATM   12  O   UNL     1      44.060  -8.709  11.618  1.00  0.00    -0.274 OA
HETATM   13  O   UNL     1      45.719  -9.819  10.547  1.00  0.00    -0.259 OA
HETATM   14  C   UNL     1      42.724  -8.293  11.689  1.00  0.00     0.089 A 
HETATM   15  C   UNL     1      41.838  -8.594  10.664  1.00  0.00    -0.001 A 
HETATM   16  C   UNL     1      42.330  -7.578  12.816  1.00  0.00     0.038 A 
HETATM   17  C   UNL     1      40.513  -8.165  10.772  1.00  0.00     0.014 A 
HETATM   18  C   UNL     1      40.100  -7.445  11.898  1.00  0.00     0.001 A 
HETATM   19  C   UNL     1      41.007  -7.151  12.919  1.00  0.00     0.003 A 
HETATM   20  S   UNL     1      45.479 -11.387   6.350  1.00  0.00    -0.078 SA
ENDBRANCH   1   5
BRANCH   4  21
HETATM   21  N   UNL     1      41.836 -14.404   4.717  1.00  0.00    -0.266 NA
HETATM   22  H   UNL     1      40.879 -14.613   5.022  1.00  0.00     0.133 HD
BRANCH  21  23
HETATM   23  C   UNL     1      42.358 -15.617   4.181  1.00  0.00     0.046 A 
HETATM   24  C   UNL     1      41.792 -16.126   2.996  1.00  0.00     0.096 A 
HETATM   25  C   UNL     1      42.233 -17.319   2.425  1.00  0.00     0.039 A 
HETATM   26  C   UNL     1      43.297 -18.000   3.008  1.00  0.00     0.003 A 
HETATM   27  C   UNL     1      43.910 -17.486   4.152  1.00  0.00     0.002 A 
HETATM   28  C   UNL     1      43.450 -16.297   4.729  1.00  0.00     0.026 A 
BRANCH  24  29
HETATM   29  O   UNL     1      40.757 -15.447   2.402  1.00  0.00    -0.288 OA
BRANCH  29  30
HETATM   30  C   UNL     1      41.112 -15.152   1.053  1.00  0.00     0.505 C 
HETATM   31  F   UNL     1      39.983 -14.812   0.380  1.00  0.00    -0.184 F 
HETATM   32  F   UNL     1      41.891 -14.040   1.082  1.00  0.00    -0.184 F 
ENDBRANCH  29  30
ENDBRANCH  24  29
ENDBRANCH  21  23
ENDBRANCH   4  21
TORSDOF 5
ENDMDL
MODEL 10
REMARK VINA RESULT:      -8.5      1.644      2.134
REMARK  5 active torsions:
REMARK  status: ('A' for Active; 'I' for Inactive)
REMARK    1  A    between atoms: C_11  and  C_12 
REMARK    2  A    between atoms: C_15  and  N_16 
REMARK    3  A    between atoms: N_16  and  C_17 
REMARK    4  A    between atoms: C_18  and  O_19 
REMARK    5  A    between atoms: O_19  and  C_20 
ROOT
HETATM    1  C   UNL     1      41.635  -9.904   6.195  1.00  0.00     0.077 C 
HETATM    2  C   UNL     1      40.370  -9.110   6.478  1.00  0.00     0.023 C 
HETATM    3  N   UNL     1      39.321  -8.451   6.714  1.00  0.00    -0.096 N 
HETATM    4  C   UNL     1      42.662  -9.750   7.058  1.00  0.00     0.087 C 
ENDROOT
BRANCH   1   5
HETATM    5  C   UNL     1      41.722 -10.712   5.018  1.00  0.00     0.118 A 
HETATM    6  N   UNL     1      41.981 -12.010   4.987  1.00  0.00    -0.239 NA
HETATM    7  C   UNL     1      41.963 -12.508   3.686  1.00  0.00     0.081 A 
HETATM    8  C   UNL     1      42.247 -13.905   3.467  1.00  0.00     0.070 A 
HETATM    9  C   UNL     1      41.711 -11.562   2.718  1.00  0.00     0.084 A 
HETATM   10  C   UNL     1      41.772 -14.577   2.214  1.00  0.00     0.301 A 
HETATM   11  C   UNL     1      42.933 -14.628   4.375  1.00  0.00     0.034 A 
HETATM   12  O   UNL     1      42.131 -15.909   2.019  1.00  0.00    -0.274 OA
HETATM   13  O   UNL     1      41.093 -14.004   1.366  1.00  0.00    -0.259 OA
HETATM   14  C   UNL     1      42.861 -16.630   2.974  1.00  0.00     0.089 A 
HETATM   15  C   UNL     1      43.262 -16.025   4.157  1.00  0.00    -0.001 A 
HETATM   16  C   UNL     1      43.159 -17.959   2.689  1.00  0.00     0.038 A 
HETATM   17  C   UNL     1      43.985 -16.777   5.085  1.00  0.00     0.014 A 
HETATM   18  C   UNL     1      44.293 -18.114   4.815  1.00  0.00     0.001 A 
HETATM   19  C   UNL     1      43.882 -18.705   3.617  1.00  0.00     0.003 A 
HETATM   20  S   UNL     1      41.441 -10.039   3.437  1.00  0.00    -0.078 SA
ENDBRANCH   1   5
BRANCH   4  21
HETATM   21  N   UNL     1      42.686  -8.955   8.190  1.00  0.00    -0.266 NA
HETATM   22  H   UNL     1      43.365  -8.189   8.127  1.00  0.00     0.133 HD
BRANCH  21  23
HETATM   23  C   UNL     1      42.795  -9.477   9.512  1.00  0.00     0.046 A 
HETATM   24  C   UNL     1      41.735  -9.252  10.412  1.00  0.00     0.096 A 
HETATM   25  C   UNL     1      41.780  -9.711  11.728  1.00  0.00     0.039 A 
HETATM   26  C   UNL     1      42.874 -10.457  12.152  1.00  0.00     0.003 A 
HETATM   27  C   UNL     1      43.911 -10.740  11.262  1.00  0.00     0.002 A 
HETATM   28  C   UNL     1      43.868 -10.261   9.947  1.00  0.00     0.026 A 
BRANCH  24  29
HETATM   29  O   UNL     1      40.641  -8.536   9.994  1.00  0.00    -0.288 OA
BRANCH  29  30
HETATM   30  C   UNL     1      39.459  -9.261  10.328  1.00  0.00     0.505 C 
HETATM   31  F   UNL     1      38.388  -8.457  10.103  1.00  0.00    -0.184 F 
HETATM   32  F   UNL     1      39.361 -10.288   9.446  1.00  0.00    -0.184 F 
ENDBRANCH  29  30
ENDBRANCH  24  29
ENDBRANCH  21  23
ENDBRANCH   4  21
TORSDOF 5
ENDMDL
