MODEL 1
REMARK VINA RESULT:      -9.7      0.000      0.000
REMARK  5 active torsions:
REMARK  status: ('A' for Active; 'I' for Inactive)
REMARK    1  A    between atoms: C_5  and  N_6 
REMARK       I    between atoms: N_6  and  C_7 
REMARK       I    between atoms: C_7  and  N_8 
REMARK    2  A    between atoms: N_8  and  C_9 
REMARK    3  A    between atoms: C_11  and  C_12 
REMARK       I    between atoms: C_12  and  N_13 
REMARK    4  A    between atoms: N_13  and  C_14 
REMARK    5  A    between atoms: C_14  and  C_15 
ROOT
HETATM    1  C   UNL     1      44.167 -12.575   6.664  1.00  0.00     0.175 A 
HETATM    2  S   UNL     1      43.454 -12.685   5.132  1.00  0.00    -0.044 SA
HETATM    3  C   UNL     1      42.615 -14.100   5.619  1.00  0.00     0.100 A 
HETATM    4  C   UNL     1      43.039 -14.445   6.902  1.00  0.00     0.056 A 
HETATM    5  C   UNL     1      42.631 -15.648   7.682  1.00  0.00     0.072 C 
HETATM    6  N   UNL     1      43.920 -13.548   7.502  1.00  0.00    -0.228 NA
ENDROOT
BRANCH   1   7
HETATM    7  N   UNL     1      44.928 -11.464   6.852  1.00  0.00    -0.287 N 
HETATM    8  C   UNL     1      44.822 -10.561   7.868  1.00  0.00     0.326 C 
HETATM    9  N   UNL     1      43.918 -10.838   8.858  1.00  0.00    -0.309 N 
HETATM   10  O   UNL     1      45.564  -9.580   7.818  1.00  0.00    -0.247 OA
HETATM   11  H   UNL     1      43.449 -11.737   8.775  1.00  0.00     0.170 HD
HETATM   12  H   UNL     1      45.619 -11.238   6.154  1.00  0.00     0.172 HD
BRANCH   9  13
HETATM   13  C   UNL     1      43.617 -10.064   9.995  1.00  0.00     0.036 A 
HETATM   14  C   UNL     1      43.435  -8.680   9.966  1.00  0.00     0.030 A 
HETATM   15  C   UNL     1      43.140  -7.977  11.140  1.00  0.00     0.009 A 
HETATM   16  C   UNL     1      43.024  -8.645  12.362  1.00  0.00    -0.062 A 
HETATM   17  C   UNL     1      42.741  -7.871  13.614  1.00  0.00     0.048 C 
HETATM   18  C   UNL     1      43.208 -10.031  12.393  1.00  0.00     0.009 A 
HETATM   19  C   UNL     1      43.491 -10.734  11.215  1.00  0.00     0.030 A 
ENDBRANCH   9  13
ENDBRANCH   1   7
BRANCH   3  20
HETATM   20  C   UNL     1      41.717 -14.857   4.760  1.00  0.00     0.260 C 
HETATM   21  N   UNL     1      42.144 -15.912   3.985  1.00  0.00    -0.352 N 
HETATM   22  H   UNL     1      41.372 -16.355   3.497  1.00  0.00     0.163 HD
HETATM   23  O   UNL     1      40.523 -14.569   4.659  1.00  0.00    -0.267 OA
BRANCH  21  24
HETATM   24  C   UNL     1      43.469 -16.458   3.781  1.00  0.00     0.167 C 
BRANCH  24  25
HETATM   25  C   UNL     1      43.568 -17.958   3.809  1.00  0.00     0.037 A 
HETATM   26  C   UNL     1      43.374 -18.662   2.615  1.00  0.00     0.127 A 
HETATM   27  F   UNL     1      43.054 -17.994   1.498  1.00  0.00    -0.205 F 
HETATM   28  C   UNL     1      43.519 -20.047   2.543  1.00  0.00     0.043 A 
HETATM   29  C   UNL     1      43.877 -20.763   3.681  1.00  0.00     0.006 A 
HETATM   30  C   UNL     1      44.090 -20.084   4.879  1.00  0.00     0.043 A 
HETATM   31  C   UNL     1      43.943 -18.697   4.930  1.00  0.00     0.127 A 
HETATM   32  F   UNL     1      44.177 -18.079   6.097  1.00  0.00    -0.205 F 
ENDBRANCH  24  25
ENDBRANCH  21  24
ENDBRANCH   3  20
TORSDOF 5
ENDMDL
MODEL 2
REMARK VINA RESULT:      -9.7      0.201      1.541
REMARK  5 active torsions:
REMARK  status: ('A' for Active; 'I' for Inactive)
REMARK    1  A    between atoms: C_5  and  N_6 
REMARK       I    between atoms: N_6  and  C_7 
REMARK       I    between atoms: C_7  and  N_8 
REMARK    2  A    between atoms: N_8  and  C_9 
REMARK    3  A    between atoms: C_11  and  C_12 
REMARK       I    between atoms: C_12  and  N_13 
REMARK    4  A    between atoms: N_13  and  C_14 
REMARK    5  A    between atoms: C_14  and  C_15 
ROOT
HETATM    1  C   UNL     1      44.056 -12.565   6.646  1.00  0.00     0.175 A 
HETATM    2  S   UNL     1      43.266 -12.788   5.165  1.00  0.00    -0.044 SA
HETATM    3  C   UNL     1      42.578 -14.249   5.747  1.00  0.00     0.100 A 
HETATM    4  C   UNL     1      43.103 -14.510   7.012  1.00  0.00     0.056 A 
HETATM    5  C   UNL     1      42.843 -15.713   7.853  1.00  0.00     0.072 C 
HETATM    6  N   UNL     1      43.939 -13.522   7.528  1.00  0.00    -0.228 NA
ENDROOT
BRANCH   1   7
HETATM    7  N   UNL     1      44.730 -11.388   6.751  1.00  0.00    -0.287 N 
HETATM    8  C   UNL     1      44.640 -10.481   7.764  1.00  0.00     0.326 C 
HETATM    9  N   UNL     1      43.858 -10.816   8.836  1.00  0.00    -0.309 N 
HETATM   10  O   UNL     1      45.285  -9.440   7.636  1.00  0.00    -0.247 OA
HETATM   11  H   UNL     1      43.464 -11.753   8.806  1.00  0.00     0.170 HD
HETATM   12  H   UNL     1      45.332 -11.117   5.990  1.00  0.00     0.172 HD
BRANCH   9  13
HETATM   13  C   UNL     1      43.596 -10.051   9.989  1.00  0.00     0.036 A 
HETATM   14  C   UNL     1      43.447  -8.663   9.982  1.00  0.00     0.030 A 
HETATM   15  C   UNL     1      43.190  -7.970  11.170  1.00  0.00     0.009 A 
HETATM   16  C   UNL     1      43.081  -8.652  12.385  1.00  0.00    -0.062 A 
HETATM   17  C   UNL     1      42.839  -7.888  13.653  1.00  0.00     0.048 C 
HETATM   18  C   UNL     1      43.231 -10.041  12.394  1.00  0.00     0.009 A 
HETATM   19  C   UNL     1      43.476 -10.735  11.203  1.00  0.00     0.030 A 
ENDBRANCH   9  13
ENDBRANCH   1   7
BRANCH   3  20
HETATM   20  C   UNL     1      41.699 -15.108   4.969  1.00  0.00     0.260 C 
HETATM   21  N   UNL     1      42.165 -16.158   4.212  1.00  0.00    -0.352 N 
HETATM   22  H   UNL     1      41.406 -16.680   3.785  1.00  0.00     0.163 HD
HETATM   23  O   UNL     1      40.481 -14.916   4.924  1.00  0.00    -0.267 OA
BRANCH  21  24
HETATM   24  C   UNL     1      43.517 -16.611   3.955  1.00  0.00     0.167 C 
BRANCH  24  25
HETATM   25  C   UNL     1      43.692 -18.097   3.816  1.00  0.00     0.037 A 
HETATM   26  C   UNL     1      43.969 -18.847   4.965  1.00  0.00     0.127 A 
HETATM   27  F   UNL     1      44.124 -18.222   6.141  1.00  0.00    -0.205 F 
HETATM   28  C   UNL     1      44.075 -20.237   4.931  1.00  0.00     0.043 A 
HETATM   29  C   UNL     1      43.891 -20.914   3.729  1.00  0.00     0.006 A 
HETATM   30  C   UNL     1      43.599 -20.191   2.574  1.00  0.00     0.043 A 
HETATM   31  C   UNL     1      43.495 -18.800   2.628  1.00  0.00     0.127 A 
HETATM   32  F   UNL     1      43.194 -18.144   1.498  1.00  0.00    -0.205 F 
ENDBRANCH  24  25
ENDBRANCH  21  24
ENDBRANCH   3  20
TORSDOF 5
ENDMDL
MODEL 3
REMARK VINA RESULT:      -9.3      2.318      2.900
REMARK  5 active torsions:
REMARK  status: ('A' for Active; 'I' for Inactive)
REMARK    1  A    between atoms: C_5  and  N_6 
REMARK       I    between atoms: N_6  and  C_7 
REMARK       I    between atoms: C_7  and  N_8 
REMARK    2  A    between atoms: N_8  and  C_9 
REMARK    3  A    between atoms: C_11  and  C_12 
REMARK       I    between atoms: C_12  and  N_13 
REMARK    4  A    between atoms: N_13  and  C_14 
REMARK    5  A    between atoms: C_14  and  C_15 
ROOT
HETATM    1  C   UNL     1      43.678 -12.631   6.579  1.00  0.00     0.175 A 
HETATM    2  S   UNL     1      42.369 -11.727   5.999  1.00  0.00    -0.044 SA
HETATM    3  C   UNL     1      41.427 -13.157   5.883  1.00  0.00     0.100 A 
HETATM    4  C   UNL     1      42.239 -14.246   6.200  1.00  0.00     0.056 A 
HETATM    5  C   UNL     1      41.855 -15.686   6.152  1.00  0.00     0.072 C 
HETATM    6  N   UNL     1      43.529 -13.929   6.618  1.00  0.00    -0.228 NA
ENDROOT
BRANCH   1   7
HETATM    7  N   UNL     1      44.755 -11.887   6.951  1.00  0.00    -0.287 N 
HETATM    8  C   UNL     1      44.822 -11.004   7.986  1.00  0.00     0.326 C 
HETATM    9  N   UNL     1      43.726 -10.910   8.799  1.00  0.00    -0.309 N 
HETATM   10  O   UNL     1      45.873 -10.375   8.112  1.00  0.00    -0.247 OA
HETATM   11  H   UNL     1      42.976 -11.565   8.591  1.00  0.00     0.170 HD
HETATM   12  H   UNL     1      45.588 -11.945   6.387  1.00  0.00     0.172 HD
BRANCH   9  13
HETATM   13  C   UNL     1      43.546 -10.069   9.915  1.00  0.00     0.036 A 
HETATM   14  C   UNL     1      43.447  -8.680   9.833  1.00  0.00     0.030 A 
HETATM   15  C   UNL     1      43.272  -7.909  10.988  1.00  0.00     0.009 A 
HETATM   16  C   UNL     1      43.195  -8.515  12.245  1.00  0.00    -0.062 A 
HETATM   17  C   UNL     1      43.041  -7.671  13.474  1.00  0.00     0.048 C 
HETATM   18  C   UNL     1      43.295  -9.907  12.330  1.00  0.00     0.009 A 
HETATM   19  C   UNL     1      43.458 -10.677  11.172  1.00  0.00     0.030 A 
ENDBRANCH   9  13
ENDBRANCH   1   7
BRANCH   3  20
HETATM   20  C   UNL     1      40.054 -13.197   5.406  1.00  0.00     0.260 C 
HETATM   21  N   UNL     1      39.733 -13.264   4.070  1.00  0.00    -0.352 N 
HETATM   22  H   UNL     1      38.731 -13.341   3.927  1.00  0.00     0.163 HD
HETATM   23  O   UNL     1      39.097 -13.142   6.183  1.00  0.00    -0.267 OA
BRANCH  21  24
HETATM   24  C   UNL     1      40.578 -13.247   2.893  1.00  0.00     0.167 C 
BRANCH  24  25
HETATM   25  C   UNL     1      41.321 -14.521   2.606  1.00  0.00     0.037 A 
HETATM   26  C   UNL     1      42.721 -14.486   2.580  1.00  0.00     0.127 A 
HETATM   27  F   UNL     1      43.356 -13.318   2.755  1.00  0.00    -0.205 F 
HETATM   28  C   UNL     1      43.485 -15.637   2.392  1.00  0.00     0.043 A 
HETATM   29  C   UNL     1      42.852 -16.867   2.235  1.00  0.00     0.006 A 
HETATM   30  C   UNL     1      41.461 -16.931   2.272  1.00  0.00     0.043 A 
HETATM   31  C   UNL     1      40.713 -15.767   2.464  1.00  0.00     0.127 A 
HETATM   32  F   UNL     1      39.377 -15.875   2.514  1.00  0.00    -0.205 F 
ENDBRANCH  24  25
ENDBRANCH  21  24
ENDBRANCH   3  20
TORSDOF 5
ENDMDL
MODEL 4
REMARK VINA RESULT:      -9.0      5.216      8.411
REMARK  5 active torsions:
REMARK  status: ('A' for Active; 'I' for Inactive)
REMARK    1  A    between atoms: C_5  and  N_6 
REMARK       I    between atoms: N_6  and  C_7 
REMARK       I    between atoms: C_7  and  N_8 
REMARK    2  A    between atoms: N_8  and  C_9 
REMARK    3  A    between atoms: C_11  and  C_12 
REMARK       I    between atoms: C_12  and  N_13 
REMARK    4  A    between atoms: N_13  and  C_14 
REMARK    5  A    between atoms: C_14  and  C_15 
ROOT
HETATM    1  C   UNL     1      40.637 -15.094   1.831  1.00  0.00     0.175 A 
HETATM    2  S   UNL     1      40.388 -16.315   2.978  1.00  0.00    -0.044 SA
HETATM    3  C   UNL     1      41.387 -15.477   4.093  1.00  0.00     0.100 A 
HETATM    4  C   UNL     1      41.929 -14.364   3.451  1.00  0.00     0.056 A 
HETATM    5  C   UNL     1      42.914 -13.400   4.019  1.00  0.00     0.072 C 
HETATM    6  N   UNL     1      41.475 -14.143   2.153  1.00  0.00    -0.228 NA
ENDROOT
BRANCH   1   7
HETATM    7  N   UNL     1      39.919 -15.243   0.686  1.00  0.00    -0.287 N 
HETATM    8  C   UNL     1      39.851 -14.370  -0.358  1.00  0.00     0.326 C 
HETATM    9  N   UNL     1      40.654 -13.263  -0.300  1.00  0.00    -0.309 N 
HETATM   10  O   UNL     1      39.084 -14.660  -1.276  1.00  0.00    -0.247 OA
HETATM   11  H   UNL     1      41.283 -13.228   0.499  1.00  0.00     0.170 HD
HETATM   12  H   UNL     1      39.331 -16.057   0.598  1.00  0.00     0.172 HD
BRANCH   9  13
HETATM   13  C   UNL     1      40.755 -12.217  -1.237  1.00  0.00     0.036 A 
HETATM   14  C   UNL     1      40.936 -12.416  -2.607  1.00  0.00     0.030 A 
HETATM   15  C   UNL     1      41.031 -11.325  -3.478  1.00  0.00     0.009 A 
HETATM   16  C   UNL     1      40.949 -10.017  -2.994  1.00  0.00    -0.062 A 
HETATM   17  C   UNL     1      41.086  -8.860  -3.938  1.00  0.00     0.048 C 
HETATM   18  C   UNL     1      40.768  -9.815  -1.623  1.00  0.00     0.009 A 
HETATM   19  C   UNL     1      40.661 -10.908  -0.754  1.00  0.00     0.030 A 
ENDBRANCH   9  13
ENDBRANCH   1   7
BRANCH   3  20
HETATM   20  C   UNL     1      41.695 -15.950   5.434  1.00  0.00     0.260 C 
HETATM   21  N   UNL     1      42.873 -16.589   5.745  1.00  0.00    -0.352 N 
HETATM   22  H   UNL     1      42.938 -16.796   6.737  1.00  0.00     0.163 HD
HETATM   23  O   UNL     1      40.892 -15.829   6.363  1.00  0.00    -0.267 OA
BRANCH  21  24
HETATM   24  C   UNL     1      43.984 -16.983   4.904  1.00  0.00     0.167 C 
BRANCH  24  25
HETATM   25  C   UNL     1      43.821 -18.288   4.177  1.00  0.00     0.037 A 
HETATM   26  C   UNL     1      43.667 -18.262   2.785  1.00  0.00     0.127 A 
HETATM   27  F   UNL     1      43.614 -17.084   2.148  1.00  0.00    -0.205 F 
HETATM   28  C   UNL     1      43.581 -19.431   2.030  1.00  0.00     0.043 A 
HETATM   29  C   UNL     1      43.660 -20.668   2.663  1.00  0.00     0.006 A 
HETATM   30  C   UNL     1      43.828 -20.721   4.045  1.00  0.00     0.043 A 
HETATM   31  C   UNL     1      43.914 -19.539   4.783  1.00  0.00     0.127 A 
HETATM   32  F   UNL     1      44.096 -19.634   6.109  1.00  0.00    -0.205 F 
ENDBRANCH  24  25
ENDBRANCH  21  24
ENDBRANCH   3  20
TORSDOF 5
ENDMDL
MODEL 5
REMARK VINA RESULT:      -8.9      2.457      3.825
REMARK  5 active torsions:
REMARK  status: ('A' for Active; 'I' for Inactive)
REMARK    1  A    between atoms: C_5  and  N_6 
REMARK       I    between atoms: N_6  and  C_7 
REMARK       I    between atoms: C_7  and  N_8 
REMARK    2  A    between atoms: N_8  and  C_9 
REMARK    3  A    between atoms: C_11  and  C_12 
REMARK       I    between atoms: C_12  and  N_13 
REMARK    4  A    between atoms: N_13  and  C_14 
REMARK    5  A    between atoms: C_14  and  C_15 
ROOT
HETATM    1  C   UNL     1      43.312 -12.562   6.534  1.00  0.00     0.175 A 
HETATM    2  S   UNL     1      43.226 -14.243   6.719  1.00  0.00    -0.044 SA
HETATM    3  C   UNL     1      41.721 -14.261   5.896  1.00  0.00     0.100 A 
HETATM    4  C   UNL     1      41.344 -12.944   5.637  1.00  0.00     0.056 A 
HETATM    5  C   UNL     1      40.069 -12.489   5.011  1.00  0.00     0.072 C 
HETATM    6  N   UNL     1      42.278 -11.974   5.992  1.00  0.00    -0.228 NA
ENDROOT
BRANCH   1   7
HETATM    7  N   UNL     1      44.472 -12.006   6.975  1.00  0.00    -0.287 N 
HETATM    8  C   UNL     1      44.631 -11.194   8.059  1.00  0.00     0.326 C 
HETATM    9  N   UNL     1      43.532 -10.979   8.845  1.00  0.00    -0.309 N 
HETATM   10  O   UNL     1      45.758 -10.736   8.248  1.00  0.00    -0.247 OA
HETATM   11  H   UNL     1      42.703 -11.505   8.580  1.00  0.00     0.170 HD
HETATM   12  H   UNL     1      45.308 -12.159   6.433  1.00  0.00     0.172 HD
BRANCH   9  13
HETATM   13  C   UNL     1      43.438 -10.178  10.000  1.00  0.00     0.036 A 
HETATM   14  C   UNL     1      43.407 -10.689  11.298  1.00  0.00     0.030 A 
HETATM   15  C   UNL     1      43.308  -9.829  12.398  1.00  0.00     0.009 A 
HETATM   16  C   UNL     1      43.236  -8.445  12.218  1.00  0.00    -0.062 A 
HETATM   17  C   UNL     1      43.096  -7.542  13.407  1.00  0.00     0.048 C 
HETATM   18  C   UNL     1      43.265  -7.932  10.918  1.00  0.00     0.009 A 
HETATM   19  C   UNL     1      43.376  -8.793   9.819  1.00  0.00     0.030 A 
ENDBRANCH   9  13
ENDBRANCH   1   7
BRANCH   3  20
HETATM   20  C   UNL     1      40.938 -15.462   5.646  1.00  0.00     0.260 C 
HETATM   21  N   UNL     1      41.096 -16.230   4.515  1.00  0.00    -0.352 N 
HETATM   22  H   UNL     1      40.507 -17.056   4.537  1.00  0.00     0.163 HD
HETATM   23  O   UNL     1      40.063 -15.838   6.429  1.00  0.00    -0.267 OA
BRANCH  21  24
HETATM   24  C   UNL     1      41.944 -16.041   3.356  1.00  0.00     0.167 C 
BRANCH  24  25
HETATM   25  C   UNL     1      41.431 -15.078   2.322  1.00  0.00     0.037 A 
HETATM   26  C   UNL     1      42.093 -13.855   2.162  1.00  0.00     0.127 A 
HETATM   27  F   UNL     1      43.125 -13.553   2.963  1.00  0.00    -0.205 F 
HETATM   28  C   UNL     1      41.725 -12.939   1.177  1.00  0.00     0.043 A 
HETATM   29  C   UNL     1      40.675 -13.240   0.314  1.00  0.00     0.006 A 
HETATM   30  C   UNL     1      40.009 -14.457   0.444  1.00  0.00     0.043 A 
HETATM   31  C   UNL     1      40.395 -15.362   1.434  1.00  0.00     0.127 A 
HETATM   32  F   UNL     1      39.741 -16.530   1.512  1.00  0.00    -0.205 F 
ENDBRANCH  24  25
ENDBRANCH  21  24
ENDBRANCH   3  20
TORSDOF 5
ENDMDL
MODEL 6
REMARK VINA RESULT:      -8.8      3.774      8.184
REMARK  5 active torsions:
REMARK  status: ('A' for Active; 'I' for Inactive)
REMARK    1  A    between atoms: C_5  and  N_6 
REMARK       I    between atoms: N_6  and  C_7 
REMARK       I    between atoms: C_7  and  N_8 
REMARK    2  A    between atoms: N_8  and  C_9 
REMARK    3  A    between atoms: C_11  and  C_12 
REMARK       I    between atoms: C_12  and  N_13 
REMARK    4  A    between atoms: N_13  and  C_14 
REMARK    5  A    between atoms: C_14  and  C_15 
ROOT
HETATM    1  C   UNL     1      43.155 -13.820   6.800  1.00  0.00     0.175 A 
HETATM    2  S   UNL     1      41.816 -12.925   6.279  1.00  0.00    -0.044 SA
HETATM    3  C   UNL     1      42.857 -11.672   5.740  1.00  0.00     0.100 A 
HETATM    4  C   UNL     1      44.164 -11.996   6.106  1.00  0.00     0.056 A 
HETATM    5  C   UNL     1      45.379 -11.155   5.909  1.00  0.00     0.072 C 
HETATM    6  N   UNL     1      44.325 -13.246   6.700  1.00  0.00    -0.228 NA
ENDROOT
BRANCH   1   7
HETATM    7  N   UNL     1      42.854 -15.061   7.267  1.00  0.00    -0.287 N 
HETATM    8  C   UNL     1      42.865 -16.227   6.561  1.00  0.00     0.326 C 
HETATM    9  N   UNL     1      43.307 -16.170   5.267  1.00  0.00    -0.309 N 
HETATM   10  O   UNL     1      42.491 -17.239   7.154  1.00  0.00    -0.247 OA
HETATM   11  H   UNL     1      43.654 -15.261   4.970  1.00  0.00     0.170 HD
HETATM   12  H   UNL     1      42.544 -15.146   8.222  1.00  0.00     0.172 HD
BRANCH   9  13
HETATM   13  C   UNL     1      43.399 -17.224   4.337  1.00  0.00     0.036 A 
HETATM   14  C   UNL     1      42.738 -17.234   3.108  1.00  0.00     0.030 A 
HETATM   15  C   UNL     1      42.875 -18.319   2.236  1.00  0.00     0.009 A 
HETATM   16  C   UNL     1      43.673 -19.414   2.579  1.00  0.00    -0.062 A 
HETATM   17  C   UNL     1      43.781 -20.583   1.646  1.00  0.00     0.048 C 
HETATM   18  C   UNL     1      44.335 -19.407   3.810  1.00  0.00     0.009 A 
HETATM   19  C   UNL     1      44.206 -18.314   4.677  1.00  0.00     0.030 A 
ENDBRANCH   9  13
ENDBRANCH   1   7
BRANCH   3  20
HETATM   20  C   UNL     1      42.402 -10.435   5.124  1.00  0.00     0.260 C 
HETATM   21  N   UNL     1      42.356 -10.257   3.760  1.00  0.00    -0.352 N 
HETATM   22  H   UNL     1      41.960  -9.356   3.512  1.00  0.00     0.163 HD
HETATM   23  O   UNL     1      42.061  -9.463   5.801  1.00  0.00    -0.267 OA
BRANCH  21  24
HETATM   24  C   UNL     1      42.764 -11.130   2.679  1.00  0.00     0.167 C 
BRANCH  24  25
HETATM   25  C   UNL     1      41.743 -12.139   2.234  1.00  0.00     0.037 A 
HETATM   26  C   UNL     1      41.978 -13.492   2.504  1.00  0.00     0.127 A 
HETATM   27  F   UNL     1      43.123 -13.858   3.098  1.00  0.00    -0.205 F 
HETATM   28  C   UNL     1      41.048 -14.481   2.188  1.00  0.00     0.043 A 
HETATM   29  C   UNL     1      39.839 -14.127   1.596  1.00  0.00     0.006 A 
HETATM   30  C   UNL     1      39.574 -12.785   1.330  1.00  0.00     0.043 A 
HETATM   31  C   UNL     1      40.517 -11.809   1.656  1.00  0.00     0.127 A 
HETATM   32  F   UNL     1      40.215 -10.528   1.402  1.00  0.00    -0.205 F 
ENDBRANCH  24  25
ENDBRANCH  21  24
ENDBRANCH   3  20
TORSDOF 5
ENDMDL
MODEL 7
REMARK VINA RESULT:      -8.7      4.488      8.181
REMARK  5 active torsions:
REMARK  status: ('A' for Active; 'I' for Inactive)
REMARK    1  A    between atoms: C_5  and  N_6 
REMARK       I    between atoms: N_6  and  C_7 
REMARK       I    between atoms: C_7  and  N_8 
REMARK    2  A    between atoms: N_8  and  C_9 
REMARK    3  A    between atoms: C_11  and  C_12 
REMARK       I    between atoms: C_12  and  N_13 
REMARK    4  A    between atoms: N_13  and  C_14 
REMARK    5  A    between atoms: C_14  and  C_15 
ROOT
HETATM    1  C   UNL     1      42.013 -11.086   3.250  1.00  0.00     0.175 A 
HETATM    2  S   UNL     1      43.508 -11.739   3.702  1.00  0.00    -0.044 SA
HETATM    3  C   UNL     1      42.773 -12.499   5.054  1.00  0.00     0.100 A 
HETATM    4  C   UNL     1      41.439 -12.096   5.114  1.00  0.00     0.056 A 
HETATM    5  C   UNL     1      40.448 -12.451   6.171  1.00  0.00     0.072 C 
HETATM    6  N   UNL     1      41.007 -11.297   4.058  1.00  0.00    -0.228 NA
ENDROOT
BRANCH   1   7
HETATM    7  N   UNL     1      42.029 -10.407   2.072  1.00  0.00    -0.287 N 
HETATM    8  C   UNL     1      41.433 -10.779   0.904  1.00  0.00     0.326 C 
HETATM    9  N   UNL     1      40.660 -11.908   0.929  1.00  0.00    -0.309 N 
HETATM   10  O   UNL     1      41.627 -10.056  -0.073  1.00  0.00    -0.247 OA
HETATM   11  H   UNL     1      40.548 -12.334   1.846  1.00  0.00     0.170 HD
HETATM   12  H   UNL     1      42.572  -9.559   2.020  1.00  0.00     0.172 HD
BRANCH   9  13
HETATM   13  C   UNL     1      39.958 -12.500  -0.139  1.00  0.00     0.036 A 
HETATM   14  C   UNL     1      38.748 -12.015  -0.637  1.00  0.00     0.030 A 
HETATM   15  C   UNL     1      38.106 -12.659  -1.700  1.00  0.00     0.009 A 
HETATM   16  C   UNL     1      38.662 -13.802  -2.282  1.00  0.00    -0.062 A 
HETATM   17  C   UNL     1      37.943 -14.499  -3.398  1.00  0.00     0.048 C 
HETATM   18  C   UNL     1      39.873 -14.291  -1.784  1.00  0.00     0.009 A 
HETATM   19  C   UNL     1      40.520 -13.637  -0.727  1.00  0.00     0.030 A 
ENDBRANCH   9  13
ENDBRANCH   1   7
BRANCH   3  20
HETATM   20  C   UNL     1      43.486 -13.315   6.024  1.00  0.00     0.260 C 
HETATM   21  N   UNL     1      43.277 -14.669   6.154  1.00  0.00    -0.352 N 
HETATM   22  H   UNL     1      43.901 -15.081   6.840  1.00  0.00     0.163 HD
HETATM   23  O   UNL     1      44.300 -12.823   6.809  1.00  0.00    -0.267 OA
BRANCH  21  24
HETATM   24  C   UNL     1      42.344 -15.549   5.481  1.00  0.00     0.167 C 
BRANCH  24  25
HETATM   25  C   UNL     1      42.959 -16.587   4.584  1.00  0.00     0.037 A 
HETATM   26  C   UNL     1      43.522 -17.727   5.170  1.00  0.00     0.127 A 
HETATM   27  F   UNL     1      43.549 -17.839   6.506  1.00  0.00    -0.205 F 
HETATM   28  C   UNL     1      44.048 -18.768   4.406  1.00  0.00     0.043 A 
HETATM   29  C   UNL     1      44.008 -18.690   3.016  1.00  0.00     0.006 A 
HETATM   30  C   UNL     1      43.440 -17.573   2.408  1.00  0.00     0.043 A 
HETATM   31  C   UNL     1      42.917 -16.542   3.192  1.00  0.00     0.127 A 
HETATM   32  F   UNL     1      42.360 -15.494   2.567  1.00  0.00    -0.205 F 
ENDBRANCH  24  25
ENDBRANCH  21  24
ENDBRANCH   3  20
TORSDOF 5
ENDMDL
MODEL 8
REMARK VINA RESULT:      -8.6      4.426      8.224
REMARK  5 active torsions:
REMARK  status: ('A' for Active; 'I' for Inactive)
REMARK    1  A    between atoms: C_5  and  N_6 
REMARK       I    between atoms: N_6  and  C_7 
REMARK       I    between atoms: C_7  and  N_8 
REMARK    2  A    between atoms: N_8  and  C_9 
REMARK    3  A    between atoms: C_11  and  C_12 
REMARK       I    between atoms: C_12  and  N_13 
REMARK    4  A    between atoms: N_13  and  C_14 
REMARK    5  A    between atoms: C_14  and  C_15 
ROOT
HETATM    1  C   UNL     1      41.552 -13.262   6.070  1.00  0.00     0.175 A 
HETATM    2  S   UNL     1      39.959 -13.122   5.513  1.00  0.00    -0.044 SA
HETATM    3  C   UNL     1      40.372 -11.679   4.681  1.00  0.00     0.100 A 
HETATM    4  C   UNL     1      41.692 -11.354   4.990  1.00  0.00     0.056 A 
HETATM    5  C   UNL     1      42.437 -10.139   4.551  1.00  0.00     0.072 C 
HETATM    6  N   UNL     1      42.369 -12.284   5.777  1.00  0.00    -0.228 NA
ENDROOT
BRANCH   1   7
HETATM    7  N   UNL     1      41.805 -14.401   6.769  1.00  0.00    -0.287 N 
HETATM    8  C   UNL     1      42.172 -15.610   6.259  1.00  0.00     0.326 C 
HETATM    9  N   UNL     1      42.397 -15.678   4.911  1.00  0.00    -0.309 N 
HETATM   10  O   UNL     1      42.286 -16.539   7.059  1.00  0.00    -0.247 OA
HETATM   11  H   UNL     1      42.333 -14.790   4.418  1.00  0.00     0.170 HD
HETATM   12  H   UNL     1      41.670 -14.384   7.768  1.00  0.00     0.172 HD
BRANCH   9  13
HETATM   13  C   UNL     1      42.768 -16.804   4.150  1.00  0.00     0.036 A 
HETATM   14  C   UNL     1      42.211 -17.121   2.910  1.00  0.00     0.030 A 
HETATM   15  C   UNL     1      42.628 -18.260   2.214  1.00  0.00     0.009 A 
HETATM   16  C   UNL     1      43.607 -19.104   2.747  1.00  0.00    -0.062 A 
HETATM   17  C   UNL     1      44.017 -20.338   2.001  1.00  0.00     0.048 C 
HETATM   18  C   UNL     1      44.165 -18.789   3.989  1.00  0.00     0.009 A 
HETATM   19  C   UNL     1      43.755 -17.641   4.679  1.00  0.00     0.030 A 
ENDBRANCH   9  13
ENDBRANCH   1   7
BRANCH   3  20
HETATM   20  C   UNL     1      39.435 -10.887   3.899  1.00  0.00     0.260 C 
HETATM   21  N   UNL     1      39.544 -10.739   2.536  1.00  0.00    -0.352 N 
HETATM   22  H   UNL     1      38.774 -10.200   2.153  1.00  0.00     0.163 HD
HETATM   23  O   UNL     1      38.504 -10.277   4.429  1.00  0.00    -0.267 OA
BRANCH  21  24
HETATM   24  C   UNL     1      40.549 -11.221   1.610  1.00  0.00     0.167 C 
BRANCH  24  25
HETATM   25  C   UNL     1      40.215 -12.498   0.893  1.00  0.00     0.037 A 
HETATM   26  C   UNL     1      39.515 -12.421  -0.317  1.00  0.00     0.127 A 
HETATM   27  F   UNL     1      39.115 -11.226  -0.774  1.00  0.00    -0.205 F 
HETATM   28  C   UNL     1      39.229 -13.554  -1.079  1.00  0.00     0.043 A 
HETATM   29  C   UNL     1      39.657 -14.804  -0.642  1.00  0.00     0.006 A 
HETATM   30  C   UNL     1      40.368 -14.907   0.552  1.00  0.00     0.043 A 
HETATM   31  C   UNL     1      40.646 -13.761   1.299  1.00  0.00     0.127 A 
HETATM   32  F   UNL     1      41.351 -13.900   2.431  1.00  0.00    -0.205 F 
ENDBRANCH  24  25
ENDBRANCH  21  24
ENDBRANCH   3  20
TORSDOF 5
ENDMDL
MODEL 9
REMARK VINA RESULT:      -8.6      3.489     10.127
REMARK  5 active torsions:
REMARK  status: ('A' for Active; 'I' for Inactive)
REMARK    1  A    between atoms: C_5  and  N_6 
REMARK       I    between atoms: N_6  and  C_7 
REMARK       I    between atoms: C_7  and  N_8 
REMARK    2  A    between atoms: N_8  and  C_9 
REMARK    3  A    between atoms: C_11  and  C_12 
REMARK       I    between atoms: C_12  and  N_13 
REMARK    4  A    between atoms: N_13  and  C_14 
REMARK    5  A    between atoms: C_14  and  C_15 
ROOT
HETATM    1  C   UNL     1      42.575 -11.049   6.357  1.00  0.00     0.175 A 
HETATM    2  S   UNL     1      42.189  -9.779   7.409  1.00  0.00    -0.044 SA
HETATM    3  C   UNL     1      43.848  -9.604   7.814  1.00  0.00     0.100 A 
HETATM    4  C   UNL     1      44.565 -10.621   7.183  1.00  0.00     0.056 A 
HETATM    5  C   UNL     1      46.024 -10.897   7.320  1.00  0.00     0.072 C 
HETATM    6  N   UNL     1      43.824 -11.436   6.331  1.00  0.00    -0.228 NA
ENDROOT
BRANCH   1   7
HETATM    7  N   UNL     1      41.522 -11.527   5.642  1.00  0.00    -0.287 N 
HETATM    8  C   UNL     1      41.483 -12.675   4.909  1.00  0.00     0.326 C 
HETATM    9  N   UNL     1      42.584 -13.486   4.960  1.00  0.00    -0.309 N 
HETATM   10  O   UNL     1      40.451 -12.894   4.275  1.00  0.00    -0.247 OA
HETATM   11  H   UNL     1      43.313 -13.184   5.601  1.00  0.00     0.170 HD
HETATM   12  H   UNL     1      40.685 -10.966   5.598  1.00  0.00     0.172 HD
BRANCH   9  13
HETATM   13  C   UNL     1      42.791 -14.706   4.288  1.00  0.00     0.036 A 
HETATM   14  C   UNL     1      42.968 -14.812   2.907  1.00  0.00     0.030 A 
HETATM   15  C   UNL     1      43.166 -16.062   2.310  1.00  0.00     0.009 A 
HETATM   16  C   UNL     1      43.189 -17.227   3.082  1.00  0.00    -0.062 A 
HETATM   17  C   UNL     1      43.369 -18.559   2.419  1.00  0.00     0.048 C 
HETATM   18  C   UNL     1      43.011 -17.123   4.464  1.00  0.00     0.009 A 
HETATM   19  C   UNL     1      42.824 -15.870   5.062  1.00  0.00     0.030 A 
ENDBRANCH   9  13
ENDBRANCH   1   7
BRANCH   3  20
HETATM   20  C   UNL     1      44.362  -8.627   8.761  1.00  0.00     0.260 C 
HETATM   21  N   UNL     1      44.099  -8.690  10.110  1.00  0.00    -0.352 N 
HETATM   22  H   UNL     1      44.584  -7.960  10.622  1.00  0.00     0.163 HD
HETATM   23  O   UNL     1      45.040  -7.665   8.394  1.00  0.00    -0.267 OA
BRANCH  21  24
HETATM   24  C   UNL     1      43.275  -9.607  10.870  1.00  0.00     0.167 C 
BRANCH  24  25
HETATM   25  C   UNL     1      42.315  -8.973  11.837  1.00  0.00     0.037 A 
HETATM   26  C   UNL     1      40.946  -9.223  11.679  1.00  0.00     0.127 A 
HETATM   27  F   UNL     1      40.525  -9.969  10.648  1.00  0.00    -0.205 F 
HETATM   28  C   UNL     1      39.998  -8.731  12.575  1.00  0.00     0.043 A 
HETATM   29  C   UNL     1      40.409  -7.976  13.670  1.00  0.00     0.006 A 
HETATM   30  C   UNL     1      41.767  -7.725  13.857  1.00  0.00     0.043 A 
HETATM   31  C   UNL     1      42.701  -8.229  12.950  1.00  0.00     0.127 A 
HETATM   32  F   UNL     1      44.000  -7.982  13.178  1.00  0.00    -0.205 F 
ENDBRANCH  24  25
ENDBRANCH  21  24
ENDBRANCH   3  20
TORSDOF 5
ENDMDL
MODEL 10
REMARK VINA RESULT:      -8.4      2.234      3.034
REMARK  5 active torsions:
REMARK  status: ('A' for Active; 'I' for Inactive)
REMARK    1  A    between atoms: C_5  and  N_6 
REMARK       I    between atoms: N_6  and  C_7 
REMARK       I    between atoms: C_7  and  N_8 
REMARK    2  A    between atoms: N_8  and  C_9 
REMARK    3  A    between atoms: C_11  and  C_12 
REMARK       I    between atoms: C_12  and  N_13 
REMARK    4  A    between atoms: N_13  and  C_14 
REMARK    5  A    between atoms: C_14  and  C_15 
ROOT
HETATM    1  C   UNL     1      43.945 -10.835   7.364  1.00  0.00     0.175 A 
HETATM    2  S   UNL     1      44.287 -11.873   6.070  1.00  0.00    -0.044 SA
HETATM    3  C   UNL     1      42.986 -11.196   5.178  1.00  0.00     0.100 A 
HETATM    4  C   UNL     1      42.314 -10.289   5.998  1.00  0.00     0.056 A 
HETATM    5  C   UNL     1      41.076  -9.530   5.659  1.00  0.00     0.072 C 
HETATM    6  N   UNL     1      42.887 -10.075   7.249  1.00  0.00    -0.228 NA
ENDROOT
BRANCH   1   7
HETATM    7  N   UNL     1      44.831 -10.909   8.393  1.00  0.00    -0.287 N 
HETATM    8  C   UNL     1      44.631 -10.499   9.677  1.00  0.00     0.326 C 
HETATM    9  N   UNL     1      43.382 -10.044  10.000  1.00  0.00    -0.309 N 
HETATM   10  O   UNL     1      45.590 -10.590  10.445  1.00  0.00    -0.247 OA
HETATM   11  H   UNL     1      42.691 -10.116   9.257  1.00  0.00     0.170 HD
HETATM   12  H   UNL     1      45.757 -11.259   8.198  1.00  0.00     0.172 HD
BRANCH   9  13
HETATM   13  C   UNL     1      42.933  -9.557  11.243  1.00  0.00     0.036 A 
HETATM   14  C   UNL     1      43.573  -8.542  11.957  1.00  0.00     0.030 A 
HETATM   15  C   UNL     1      43.069  -8.112  13.189  1.00  0.00     0.009 A 
HETATM   16  C   UNL     1      41.918  -8.691  13.730  1.00  0.00    -0.062 A 
HETATM   17  C   UNL     1      41.412  -8.241  15.068  1.00  0.00     0.048 C 
HETATM   18  C   UNL     1      41.276  -9.708  13.018  1.00  0.00     0.009 A 
HETATM   19  C   UNL     1      41.775 -10.129  11.779  1.00  0.00     0.030 A 
ENDBRANCH   9  13
ENDBRANCH   1   7
BRANCH   3  20
HETATM   20  C   UNL     1      42.603 -11.618   3.840  1.00  0.00     0.260 C 
HETATM   21  N   UNL     1      41.982 -12.820   3.588  1.00  0.00    -0.352 N 
HETATM   22  H   UNL     1      41.739 -12.920   2.608  1.00  0.00     0.163 HD
HETATM   23  O   UNL     1      42.846 -10.925   2.849  1.00  0.00    -0.267 OA
BRANCH  21  24
HETATM   24  C   UNL     1      41.635 -13.908   4.479  1.00  0.00     0.167 C 
BRANCH  24  25
HETATM   25  C   UNL     1      42.153 -15.263   4.086  1.00  0.00     0.037 A 
HETATM   26  C   UNL     1      41.579 -15.903   2.981  1.00  0.00     0.127 A 
HETATM   27  F   UNL     1      40.553 -15.322   2.341  1.00  0.00    -0.205 F 
HETATM   28  C   UNL     1      42.050 -17.127   2.509  1.00  0.00     0.043 A 
HETATM   29  C   UNL     1      43.131 -17.738   3.138  1.00  0.00     0.006 A 
HETATM   30  C   UNL     1      43.730 -17.115   4.231  1.00  0.00     0.043 A 
HETATM   31  C   UNL     1      43.245 -15.888   4.687  1.00  0.00     0.127 A 
HETATM   32  F   UNL     1      43.863 -15.312   5.728  1.00  0.00    -0.205 F 
ENDBRANCH  24  25
ENDBRANCH  21  24
ENDBRANCH   3  20
TORSDOF 5
ENDMDL
