MODEL 1
REMARK VINA RESULT:      -9.0      0.000      0.000
REMARK  6 active torsions:
REMARK  status: ('A' for Active; 'I' for Inactive)
REMARK    1  A    between atoms: O_2  and  C_3 
REMARK    2  A    between atoms: C_6  and  C_7 
REMARK    3  A    between atoms: C_11  and  C_12 
REMARK       I    between atoms: C_12  and  N_13 
REMARK    4  A    between atoms: N_13  and  N_14 
REMARK       I    between atoms: N_14  and  C_15 
REMARK    5  A    between atoms: C_15  and  C_16 
REMARK    6  A    between atoms: C_17  and  C_18 
ROOT
HETATM    1  C   UNL     1      42.303 -11.803   6.101  1.00  0.00     0.288 C 
HETATM    2  N   UNL     1      43.094 -11.705   7.223  1.00  0.00    -0.262 N 
HETATM    3  O   UNL     1      41.377 -11.029   5.875  1.00  0.00    -0.264 OA
HETATM    4  H   UNL     1      43.904 -12.298   7.394  1.00  0.00     0.190 HD
ENDROOT
BRANCH   1   5
HETATM    5  C   UNL     1      42.639 -12.894   5.226  1.00  0.00     0.121 A 
HETATM    6  N   UNL     1      42.750 -12.746   3.873  1.00  0.00    -0.272 N 
HETATM    7  N   UNL     1      43.045 -13.880   3.218  1.00  0.00    -0.174 NA
HETATM    8  H   UNL     1      42.632 -11.888   3.340  1.00  0.00     0.189 HD
HETATM    9  C   UNL     1      43.097 -14.822   4.173  1.00  0.00     0.089 A 
HETATM   10  C   UNL     1      42.878 -14.235   5.450  1.00  0.00     0.071 A 
BRANCH   9  11
HETATM   11  C   UNL     1      43.340 -16.236   3.867  1.00  0.00    -0.005 A 
HETATM   12  C   UNL     1      43.986 -17.069   4.790  1.00  0.00     0.016 A 
HETATM   13  C   UNL     1      44.221 -18.421   4.501  1.00  0.00     0.037 A 
HETATM   14  C   UNL     1      43.816 -18.958   3.280  1.00  0.00     0.068 A 
HETATM   15  C   UNL     1      43.178 -18.132   2.354  1.00  0.00     0.037 A 
HETATM   16  C   UNL     1      42.941 -16.785   2.641  1.00  0.00     0.016 A 
BRANCH  14  17
HETATM   17  O   UNL     1      43.982 -20.251   2.869  1.00  0.00    -0.356 OA
HETATM   18  C   UNL     1      43.505 -20.579   1.571  1.00  0.00     0.210 C 
ENDBRANCH  14  17
ENDBRANCH   9  11
ENDBRANCH   1   5
BRANCH   2  19
HETATM   19  N   UNL     1      42.822 -10.747   8.206  1.00  0.00    -0.263 N 
HETATM   20  C   UNL     1      43.806 -10.543   9.150  1.00  0.00     0.271 C 
HETATM   21  O   UNL     1      44.897 -11.107   9.085  1.00  0.00    -0.266 OA
HETATM   22  H   UNL     1      41.861 -10.404   8.255  1.00  0.00     0.190 HD
BRANCH  20  23
HETATM   23  C   UNL     1      43.487  -9.687  10.324  1.00  0.00     0.048 A 
HETATM   24  C   UNL     1      43.468  -8.281  10.313  1.00  0.00     0.063 A 
HETATM   25  C   UNL     1      43.142  -7.604  11.506  1.00  0.00     0.017 A 
HETATM   26  C   UNL     1      42.867  -8.302  12.682  1.00  0.00     0.001 A 
HETATM   27  C   UNL     1      42.916  -9.690  12.692  1.00  0.00     0.001 A 
HETATM   28  C   UNL     1      43.226 -10.378  11.521  1.00  0.00     0.018 A 
BRANCH  24  29
HETATM   29  C   UNL     1      43.806  -7.483   9.084  1.00  0.00     0.418 C 
HETATM   30  F   UNL     1      42.918  -7.657   8.072  1.00  0.00    -0.166 F 
HETATM   31  F   UNL     1      43.836  -6.146   9.347  1.00  0.00    -0.166 F 
HETATM   32  F   UNL     1      45.028  -7.780   8.561  1.00  0.00    -0.166 F 
ENDBRANCH  24  29
ENDBRANCH  20  23
ENDBRANCH   2  19
TORSDOF 6
ENDMDL
MODEL 2
REMARK VINA RESULT:      -8.9      3.823     10.466
REMARK  6 active torsions:
REMARK  status: ('A' for Active; 'I' for Inactive)
REMARK    1  A    between atoms: O_2  and  C_3 
REMARK    2  A    between atoms: C_6  and  C_7 
REMARK    3  A    between atoms: C_11  and  C_12 
REMARK       I    between atoms: C_12  and  N_13 
REMARK    4  A    between atoms: N_13  and  N_14 
REMARK       I    between atoms: N_14  and  C_15 
REMARK    5  A    between atoms: C_15  and  C_16 
REMARK    6  A    between atoms: C_17  and  C_18 
ROOT
HETATM    1  C   UNL     1      44.682 -11.426   7.420  1.00  0.00     0.288 C 
HETATM    2  N   UNL     1      43.888 -12.545   7.319  1.00  0.00    -0.262 N 
HETATM    3  O   UNL     1      45.456 -11.081   6.530  1.00  0.00    -0.264 OA
HETATM    4  H   UNL     1      43.196 -12.809   8.017  1.00  0.00     0.190 HD
ENDROOT
BRANCH   1   5
HETATM    5  C   UNL     1      44.543 -10.704   8.656  1.00  0.00     0.121 A 
HETATM    6  N   UNL     1      45.585 -10.047   9.247  1.00  0.00    -0.272 N 
HETATM    7  N   UNL     1      45.272  -9.452  10.409  1.00  0.00    -0.174 NA
HETATM    8  H   UNL     1      46.537  -9.973   8.898  1.00  0.00     0.189 HD
HETATM    9  C   UNL     1      43.981  -9.758  10.612  1.00  0.00     0.089 A 
HETATM   10  C   UNL     1      43.481 -10.517   9.518  1.00  0.00     0.071 A 
BRANCH   9  11
HETATM   11  C   UNL     1      43.258  -9.343  11.819  1.00  0.00    -0.005 A 
HETATM   12  C   UNL     1      42.207 -10.119  12.327  1.00  0.00     0.016 A 
HETATM   13  C   UNL     1      41.513  -9.726  13.481  1.00  0.00     0.037 A 
HETATM   14  C   UNL     1      41.858  -8.547  14.140  1.00  0.00     0.068 A 
HETATM   15  C   UNL     1      42.898  -7.767  13.635  1.00  0.00     0.037 A 
HETATM   16  C   UNL     1      43.593  -8.158  12.486  1.00  0.00     0.016 A 
BRANCH  14  17
HETATM   17  O   UNL     1      41.267  -8.046  15.266  1.00  0.00    -0.356 OA
HETATM   18  C   UNL     1      41.944  -6.988  15.930  1.00  0.00     0.210 C 
ENDBRANCH  14  17
ENDBRANCH   9  11
ENDBRANCH   1   5
BRANCH   2  19
HETATM   19  N   UNL     1      43.987 -13.392   6.209  1.00  0.00    -0.263 N 
HETATM   20  C   UNL     1      42.859 -14.119   5.892  1.00  0.00     0.271 C 
HETATM   21  O   UNL     1      41.798 -13.968   6.494  1.00  0.00    -0.266 OA
HETATM   22  H   UNL     1      44.924 -13.541   5.832  1.00  0.00     0.190 HD
BRANCH  20  23
HETATM   23  C   UNL     1      42.974 -15.175   4.851  1.00  0.00     0.048 A 
HETATM   24  C   UNL     1      43.218 -16.536   5.108  1.00  0.00     0.063 A 
HETATM   25  C   UNL     1      43.295 -17.423   4.015  1.00  0.00     0.017 A 
HETATM   26  C   UNL     1      43.160 -16.968   2.703  1.00  0.00     0.001 A 
HETATM   27  C   UNL     1      42.947 -15.618   2.455  1.00  0.00     0.001 A 
HETATM   28  C   UNL     1      42.857 -14.726   3.522  1.00  0.00     0.018 A 
BRANCH  24  29
HETATM   29  C   UNL     1      43.420 -17.066   6.500  1.00  0.00     0.418 C 
HETATM   30  F   UNL     1      42.368 -16.825   7.324  1.00  0.00    -0.166 F 
HETATM   31  F   UNL     1      43.611 -18.415   6.501  1.00  0.00    -0.166 F 
HETATM   32  F   UNL     1      44.510 -16.543   7.129  1.00  0.00    -0.166 F 
ENDBRANCH  24  29
ENDBRANCH  20  23
ENDBRANCH   2  19
TORSDOF 6
ENDMDL
MODEL 3
REMARK VINA RESULT:      -8.6      7.145     10.372
REMARK  6 active torsions:
REMARK  status: ('A' for Active; 'I' for Inactive)
REMARK    1  A    between atoms: O_2  and  C_3 
REMARK    2  A    between atoms: C_6  and  C_7 
REMARK    3  A    between atoms: C_11  and  C_12 
REMARK       I    between atoms: C_12  and  N_13 
REMARK    4  A    between atoms: N_13  and  N_14 
REMARK       I    between atoms: N_14  and  C_15 
REMARK    5  A    between atoms: C_15  and  C_16 
REMARK    6  A    between atoms: C_17  and  C_18 
ROOT
HETATM    1  C   UNL     1      40.305 -15.307   0.966  1.00  0.00     0.288 C 
HETATM    2  N   UNL     1      41.436 -15.379   1.747  1.00  0.00    -0.262 N 
HETATM    3  O   UNL     1      39.471 -16.208   0.925  1.00  0.00    -0.264 OA
HETATM    4  H   UNL     1      42.104 -14.617   1.842  1.00  0.00     0.190 HD
ENDROOT
BRANCH   1   5
HETATM    5  C   UNL     1      40.189 -14.101   0.192  1.00  0.00     0.121 A 
HETATM    6  N   UNL     1      39.161 -13.881  -0.680  1.00  0.00    -0.272 N 
HETATM    7  N   UNL     1      39.233 -12.709  -1.332  1.00  0.00    -0.174 NA
HETATM    8  H   UNL     1      38.379 -14.501  -0.871  1.00  0.00     0.189 HD
HETATM    9  C   UNL     1      40.374 -12.148  -0.899  1.00  0.00     0.089 A 
HETATM   10  C   UNL     1      40.985 -12.979   0.081  1.00  0.00     0.071 A 
BRANCH   9  11
HETATM   11  C   UNL     1      40.862 -10.866  -1.417  1.00  0.00    -0.005 A 
HETATM   12  C   UNL     1      41.659 -10.029  -0.624  1.00  0.00     0.016 A 
HETATM   13  C   UNL     1      42.127  -8.801  -1.115  1.00  0.00     0.037 A 
HETATM   14  C   UNL     1      41.799  -8.391  -2.406  1.00  0.00     0.068 A 
HETATM   15  C   UNL     1      41.000  -9.216  -3.198  1.00  0.00     0.037 A 
HETATM   16  C   UNL     1      40.535 -10.441  -2.711  1.00  0.00     0.016 A 
BRANCH  14  17
HETATM   17  O   UNL     1      42.183  -7.225  -3.006  1.00  0.00    -0.356 OA
HETATM   18  C   UNL     1      41.767  -7.028  -4.352  1.00  0.00     0.210 C 
ENDBRANCH  14  17
ENDBRANCH   9  11
ENDBRANCH   1   5
BRANCH   2  19
HETATM   19  N   UNL     1      41.723 -16.535   2.481  1.00  0.00    -0.263 N 
HETATM   20  C   UNL     1      43.036 -16.957   2.469  1.00  0.00     0.271 C 
HETATM   21  O   UNL     1      43.923 -16.307   1.918  1.00  0.00    -0.266 OA
HETATM   22  H   UNL     1      40.923 -17.072   2.818  1.00  0.00     0.190 HD
BRANCH  20  23
HETATM   23  C   UNL     1      43.354 -18.282   3.064  1.00  0.00     0.048 A 
HETATM   24  C   UNL     1      43.642 -18.507   4.422  1.00  0.00     0.063 A 
HETATM   25  C   UNL     1      43.921 -19.824   4.841  1.00  0.00     0.017 A 
HETATM   26  C   UNL     1      43.938 -20.884   3.933  1.00  0.00     0.001 A 
HETATM   27  C   UNL     1      43.681 -20.650   2.588  1.00  0.00     0.001 A 
HETATM   28  C   UNL     1      43.393 -19.357   2.156  1.00  0.00     0.018 A 
BRANCH  24  29
HETATM   29  C   UNL     1      43.685 -17.392   5.429  1.00  0.00     0.418 C 
HETATM   30  F   UNL     1      44.598 -16.433   5.127  1.00  0.00    -0.166 F 
HETATM   31  F   UNL     1      42.481 -16.762   5.531  1.00  0.00    -0.166 F 
HETATM   32  F   UNL     1      43.988 -17.808   6.690  1.00  0.00    -0.166 F 
ENDBRANCH  24  29
ENDBRANCH  20  23
ENDBRANCH   2  19
TORSDOF 6
ENDMDL
MODEL 4
REMARK VINA RESULT:      -8.5      3.500     10.376
REMARK  6 active torsions:
REMARK  status: ('A' for Active; 'I' for Inactive)
REMARK    1  A    between atoms: O_2  and  C_3 
REMARK    2  A    between atoms: C_6  and  C_7 
REMARK    3  A    between atoms: C_11  and  C_12 
REMARK       I    between atoms: C_12  and  N_13 
REMARK    4  A    between atoms: N_13  and  N_14 
REMARK       I    between atoms: N_14  and  C_15 
REMARK    5  A    between atoms: C_15  and  C_16 
REMARK    6  A    between atoms: C_17  and  C_18 
ROOT
HETATM    1  C   UNL     1      44.392 -11.634   7.593  1.00  0.00     0.288 C 
HETATM    2  N   UNL     1      43.514 -12.655   7.311  1.00  0.00    -0.262 N 
HETATM    3  O   UNL     1      45.493 -11.542   7.058  1.00  0.00    -0.264 OA
HETATM    4  H   UNL     1      42.573 -12.712   7.696  1.00  0.00     0.190 HD
ENDROOT
BRANCH   1   5
HETATM    5  C   UNL     1      43.920 -10.695   8.575  1.00  0.00     0.121 A 
HETATM    6  N   UNL     1      43.742  -9.368   8.300  1.00  0.00    -0.272 N 
HETATM    7  N   UNL     1      43.320  -8.641   9.347  1.00  0.00    -0.174 NA
HETATM    8  H   UNL     1      43.896  -8.903   7.410  1.00  0.00     0.189 HD
HETATM    9  C   UNL     1      43.250  -9.516  10.363  1.00  0.00     0.089 A 
HETATM   10  C   UNL     1      43.590 -10.820   9.909  1.00  0.00     0.071 A 
BRANCH   9  11
HETATM   11  C   UNL     1      42.880  -9.109  11.722  1.00  0.00    -0.005 A 
HETATM   12  C   UNL     1      43.533  -8.041  12.354  1.00  0.00     0.016 A 
HETATM   13  C   UNL     1      43.182  -7.649  13.654  1.00  0.00     0.037 A 
HETATM   14  C   UNL     1      42.175  -8.323  14.343  1.00  0.00     0.068 A 
HETATM   15  C   UNL     1      41.526  -9.390  13.722  1.00  0.00     0.037 A 
HETATM   16  C   UNL     1      41.872  -9.781  12.426  1.00  0.00     0.016 A 
BRANCH  14  17
HETATM   17  O   UNL     1      41.736  -8.048  15.608  1.00  0.00    -0.356 OA
HETATM   18  C   UNL     1      42.187  -6.834  16.195  1.00  0.00     0.210 C 
ENDBRANCH  14  17
ENDBRANCH   9  11
ENDBRANCH   1   5
BRANCH   2  19
HETATM   19  N   UNL     1      43.880 -13.690   6.443  1.00  0.00    -0.263 N 
HETATM   20  C   UNL     1      42.848 -14.424   5.898  1.00  0.00     0.271 C 
HETATM   21  O   UNL     1      41.669 -14.132   6.091  1.00  0.00    -0.266 OA
HETATM   22  H   UNL     1      44.871 -13.936   6.418  1.00  0.00     0.190 HD
BRANCH  20  23
HETATM   23  C   UNL     1      43.187 -15.653   5.132  1.00  0.00     0.048 A 
HETATM   24  C   UNL     1      43.187 -15.754   3.729  1.00  0.00     0.063 A 
HETATM   25  C   UNL     1      43.537 -16.988   3.144  1.00  0.00     0.017 A 
HETATM   26  C   UNL     1      43.854 -18.097   3.929  1.00  0.00     0.001 A 
HETATM   27  C   UNL     1      43.824 -17.998   5.315  1.00  0.00     0.001 A 
HETATM   28  C   UNL     1      43.491 -16.784   5.912  1.00  0.00     0.018 A 
BRANCH  24  29
HETATM   29  C   UNL     1      42.804 -14.603   2.841  1.00  0.00     0.418 C 
HETATM   30  F   UNL     1      41.495 -14.257   2.947  1.00  0.00    -0.166 F 
HETATM   31  F   UNL     1      43.525 -13.484   3.133  1.00  0.00    -0.166 F 
HETATM   32  F   UNL     1      43.019 -14.841   1.517  1.00  0.00    -0.166 F 
ENDBRANCH  24  29
ENDBRANCH  20  23
ENDBRANCH   2  19
TORSDOF 6
ENDMDL
MODEL 5
REMARK VINA RESULT:      -8.2      2.034      2.752
REMARK  6 active torsions:
REMARK  status: ('A' for Active; 'I' for Inactive)
REMARK    1  A    between atoms: O_2  and  C_3 
REMARK    2  A    between atoms: C_6  and  C_7 
REMARK    3  A    between atoms: C_11  and  C_12 
REMARK       I    between atoms: C_12  and  N_13 
REMARK    4  A    between atoms: N_13  and  N_14 
REMARK       I    between atoms: N_14  and  C_15 
REMARK    5  A    between atoms: C_15  and  C_16 
REMARK    6  A    between atoms: C_17  and  C_18 
ROOT
HETATM    1  C   UNL     1      42.805 -11.573   6.578  1.00  0.00     0.288 C 
HETATM    2  N   UNL     1      43.025 -11.191   7.882  1.00  0.00    -0.262 N 
HETATM    3  O   UNL     1      42.468 -10.778   5.704  1.00  0.00    -0.264 OA
HETATM    4  H   UNL     1      43.366 -11.822   8.604  1.00  0.00     0.190 HD
ENDROOT
BRANCH   1   5
HETATM    5  C   UNL     1      42.987 -12.977   6.329  1.00  0.00     0.121 A 
HETATM    6  N   UNL     1      43.243 -13.876   7.325  1.00  0.00    -0.272 N 
HETATM    7  N   UNL     1      43.409 -15.138   6.899  1.00  0.00    -0.174 NA
HETATM    8  H   UNL     1      43.316 -13.680   8.320  1.00  0.00     0.189 HD
HETATM    9  C   UNL     1      43.294 -15.064   5.563  1.00  0.00     0.089 A 
HETATM   10  C   UNL     1      42.999 -13.729   5.171  1.00  0.00     0.071 A 
BRANCH   9  11
HETATM   11  C   UNL     1      43.471 -16.234   4.696  1.00  0.00    -0.005 A 
HETATM   12  C   UNL     1      42.984 -16.233   3.382  1.00  0.00     0.016 A 
HETATM   13  C   UNL     1      43.151 -17.350   2.550  1.00  0.00     0.037 A 
HETATM   14  C   UNL     1      43.803 -18.486   3.024  1.00  0.00     0.068 A 
HETATM   15  C   UNL     1      44.284 -18.497   4.333  1.00  0.00     0.037 A 
HETATM   16  C   UNL     1      44.121 -17.383   5.163  1.00  0.00     0.016 A 
BRANCH  14  17
HETATM   17  O   UNL     1      44.031 -19.639   2.325  1.00  0.00    -0.356 OA
HETATM   18  C   UNL     1      43.823 -20.862   3.018  1.00  0.00     0.210 C 
ENDBRANCH  14  17
ENDBRANCH   9  11
ENDBRANCH   1   5
BRANCH   2  19
HETATM   19  N   UNL     1      42.795  -9.871   8.286  1.00  0.00    -0.263 N 
HETATM   20  C   UNL     1      43.484  -9.444   9.402  1.00  0.00     0.271 C 
HETATM   21  O   UNL     1      44.321 -10.152   9.959  1.00  0.00    -0.266 OA
HETATM   22  H   UNL     1      42.014  -9.386   7.841  1.00  0.00     0.190 HD
BRANCH  20  23
HETATM   23  C   UNL     1      43.127  -8.124   9.986  1.00  0.00     0.048 A 
HETATM   24  C   UNL     1      42.474  -7.939  11.218  1.00  0.00     0.063 A 
HETATM   25  C   UNL     1      42.206  -6.623  11.646  1.00  0.00     0.017 A 
HETATM   26  C   UNL     1      42.553  -5.522  10.861  1.00  0.00     0.001 A 
HETATM   27  C   UNL     1      43.172  -5.714   9.632  1.00  0.00     0.001 A 
HETATM   28  C   UNL     1      43.456  -7.007   9.197  1.00  0.00     0.018 A 
BRANCH  24  29
HETATM   29  C   UNL     1      42.035  -9.094  12.076  1.00  0.00     0.418 C 
HETATM   30  F   UNL     1      41.180  -8.730  13.066  1.00  0.00    -0.166 F 
HETATM   31  F   UNL     1      41.396 -10.048  11.343  1.00  0.00    -0.166 F 
HETATM   32  F   UNL     1      43.066  -9.736  12.693  1.00  0.00    -0.166 F 
ENDBRANCH  24  29
ENDBRANCH  20  23
ENDBRANCH   2  19
TORSDOF 6
ENDMDL
MODEL 6
REMARK VINA RESULT:      -8.2      7.069     10.019
REMARK  6 active torsions:
REMARK  status: ('A' for Active; 'I' for Inactive)
REMARK    1  A    between atoms: O_2  and  C_3 
REMARK    2  A    between atoms: C_6  and  C_7 
REMARK    3  A    between atoms: C_11  and  C_12 
REMARK       I    between atoms: C_12  and  N_13 
REMARK    4  A    between atoms: N_13  and  N_14 
REMARK       I    between atoms: N_14  and  C_15 
REMARK    5  A    between atoms: C_15  and  C_16 
REMARK    6  A    between atoms: C_17  and  C_18 
ROOT
HETATM    1  C   UNL     1      40.188 -14.557   1.100  1.00  0.00     0.288 C 
HETATM    2  N   UNL     1      40.726 -14.177   2.308  1.00  0.00    -0.262 N 
HETATM    3  O   UNL     1      39.894 -15.721   0.843  1.00  0.00    -0.264 OA
HETATM    4  H   UNL     1      40.916 -13.210   2.561  1.00  0.00     0.190 HD
ENDROOT
BRANCH   1   5
HETATM    5  C   UNL     1      40.016 -13.482   0.159  1.00  0.00     0.121 A 
HETATM    6  N   UNL     1      38.882 -13.332  -0.587  1.00  0.00    -0.272 N 
HETATM    7  N   UNL     1      38.912 -12.286  -1.429  1.00  0.00    -0.174 NA
HETATM    8  H   UNL     1      38.052 -13.918  -0.563  1.00  0.00     0.189 HD
HETATM    9  C   UNL     1      40.129 -11.745  -1.257  1.00  0.00     0.089 A 
HETATM   10  C   UNL     1      40.839 -12.451  -0.246  1.00  0.00     0.071 A 
BRANCH   9  11
HETATM   11  C   UNL     1      40.594 -10.598  -2.044  1.00  0.00    -0.005 A 
HETATM   12  C   UNL     1      41.451  -9.643  -1.481  1.00  0.00     0.016 A 
HETATM   13  C   UNL     1      41.898  -8.544  -2.229  1.00  0.00     0.037 A 
HETATM   14  C   UNL     1      41.489  -8.383  -3.552  1.00  0.00     0.068 A 
HETATM   15  C   UNL     1      40.631  -9.327  -4.116  1.00  0.00     0.037 A 
HETATM   16  C   UNL     1      40.186 -10.424  -3.372  1.00  0.00     0.016 A 
BRANCH  14  17
HETATM   17  O   UNL     1      41.845  -7.364  -4.390  1.00  0.00    -0.356 OA
HETATM   18  C   UNL     1      41.059  -6.181  -4.333  1.00  0.00     0.210 C 
ENDBRANCH  14  17
ENDBRANCH   9  11
ENDBRANCH   1   5
BRANCH   2  19
HETATM   19  N   UNL     1      41.033 -15.133   3.283  1.00  0.00    -0.263 N 
HETATM   20  C   UNL     1      42.327 -15.126   3.760  1.00  0.00     0.271 C 
HETATM   21  O   UNL     1      43.143 -14.273   3.415  1.00  0.00    -0.266 OA
HETATM   22  H   UNL     1      40.340 -15.867   3.437  1.00  0.00     0.190 HD
BRANCH  20  23
HETATM   23  C   UNL     1      42.756 -16.243   4.644  1.00  0.00     0.048 A 
HETATM   24  C   UNL     1      43.211 -17.496   4.196  1.00  0.00     0.063 A 
HETATM   25  C   UNL     1      43.589 -18.456   5.156  1.00  0.00     0.017 A 
HETATM   26  C   UNL     1      43.495 -18.190   6.523  1.00  0.00     0.001 A 
HETATM   27  C   UNL     1      43.018 -16.959   6.958  1.00  0.00     0.001 A 
HETATM   28  C   UNL     1      42.649 -15.993   6.025  1.00  0.00     0.018 A 
BRANCH  24  29
HETATM   29  C   UNL     1      43.283 -17.849   2.736  1.00  0.00     0.418 C 
HETATM   30  F   UNL     1      43.928 -16.915   1.991  1.00  0.00    -0.166 F 
HETATM   31  F   UNL     1      43.939 -19.026   2.536  1.00  0.00    -0.166 F 
HETATM   32  F   UNL     1      42.061 -18.008   2.154  1.00  0.00    -0.166 F 
ENDBRANCH  24  29
ENDBRANCH  20  23
ENDBRANCH   2  19
TORSDOF 6
ENDMDL
MODEL 7
REMARK VINA RESULT:      -7.9      7.529      9.969
REMARK  6 active torsions:
REMARK  status: ('A' for Active; 'I' for Inactive)
REMARK    1  A    between atoms: O_2  and  C_3 
REMARK    2  A    between atoms: C_6  and  C_7 
REMARK    3  A    between atoms: C_11  and  C_12 
REMARK       I    between atoms: C_12  and  N_13 
REMARK    4  A    between atoms: N_13  and  N_14 
REMARK       I    between atoms: N_14  and  C_15 
REMARK    5  A    between atoms: C_15  and  C_16 
REMARK    6  A    between atoms: C_17  and  C_18 
ROOT
HETATM    1  C   UNL     1      40.108 -13.523   1.017  1.00  0.00     0.288 C 
HETATM    2  N   UNL     1      39.436 -13.916  -0.118  1.00  0.00    -0.262 N 
HETATM    3  O   UNL     1      39.853 -12.477   1.608  1.00  0.00    -0.264 OA
HETATM    4  H   UNL     1      39.590 -14.808  -0.584  1.00  0.00     0.190 HD
ENDROOT
BRANCH   1   5
HETATM    5  C   UNL     1      41.142 -14.427   1.442  1.00  0.00     0.121 A 
HETATM    6  N   UNL     1      42.470 -14.177   1.241  1.00  0.00    -0.272 N 
HETATM    7  N   UNL     1      43.286 -15.146   1.683  1.00  0.00    -0.174 NA
HETATM    8  H   UNL     1      42.876 -13.354   0.803  1.00  0.00     0.189 HD
HETATM    9  C   UNL     1      42.462 -16.093   2.163  1.00  0.00     0.089 A 
HETATM   10  C   UNL     1      41.111 -15.663   2.057  1.00  0.00     0.071 A 
BRANCH   9  11
HETATM   11  C   UNL     1      42.959 -17.366   2.695  1.00  0.00    -0.005 A 
HETATM   12  C   UNL     1      42.911 -18.534   1.922  1.00  0.00     0.016 A 
HETATM   13  C   UNL     1      43.385 -19.754   2.427  1.00  0.00     0.037 A 
HETATM   14  C   UNL     1      43.908 -19.823   3.716  1.00  0.00     0.068 A 
HETATM   15  C   UNL     1      43.953 -18.666   4.494  1.00  0.00     0.037 A 
HETATM   16  C   UNL     1      43.483 -17.448   3.991  1.00  0.00     0.016 A 
BRANCH  14  17
HETATM   17  O   UNL     1      44.400 -20.940   4.331  1.00  0.00    -0.356 OA
HETATM   18  C   UNL     1      44.168 -21.059   5.729  1.00  0.00     0.210 C 
ENDBRANCH  14  17
ENDBRANCH   9  11
ENDBRANCH   1   5
BRANCH   2  19
HETATM   19  N   UNL     1      38.468 -13.087  -0.696  1.00  0.00    -0.263 N 
HETATM   20  C   UNL     1      38.560 -12.897  -2.059  1.00  0.00     0.271 C 
HETATM   21  O   UNL     1      39.392 -13.490  -2.743  1.00  0.00    -0.266 OA
HETATM   22  H   UNL     1      37.883 -12.551  -0.053  1.00  0.00     0.190 HD
BRANCH  20  23
HETATM   23  C   UNL     1      37.683 -11.873  -2.687  1.00  0.00     0.048 A 
HETATM   24  C   UNL     1      38.065 -10.549  -2.970  1.00  0.00     0.063 A 
HETATM   25  C   UNL     1      37.123  -9.692  -3.574  1.00  0.00     0.017 A 
HETATM   26  C   UNL     1      35.830 -10.128  -3.865  1.00  0.00     0.001 A 
HETATM   27  C   UNL     1      35.450 -11.429  -3.555  1.00  0.00     0.001 A 
HETATM   28  C   UNL     1      36.371 -12.295  -2.968  1.00  0.00     0.018 A 
BRANCH  24  29
HETATM   29  C   UNL     1      39.430 -10.017  -2.631  1.00  0.00     0.418 C 
HETATM   30  F   UNL     1      40.431 -10.643  -3.302  1.00  0.00    -0.166 F 
HETATM   31  F   UNL     1      39.538  -8.691  -2.922  1.00  0.00    -0.166 F 
HETATM   32  F   UNL     1      39.744 -10.129  -1.309  1.00  0.00    -0.166 F 
ENDBRANCH  24  29
ENDBRANCH  20  23
ENDBRANCH   2  19
TORSDOF 6
ENDMDL
MODEL 8
REMARK VINA RESULT:      -7.7      2.487      3.442
REMARK  6 active torsions:
REMARK  status: ('A' for Active; 'I' for Inactive)
REMARK    1  A    between atoms: O_2  and  C_3 
REMARK    2  A    between atoms: C_6  and  C_7 
REMARK    3  A    between atoms: C_11  and  C_12 
REMARK       I    between atoms: C_12  and  N_13 
REMARK    4  A    between atoms: N_13  and  N_14 
REMARK       I    between atoms: N_14  and  C_15 
REMARK    5  A    between atoms: C_15  and  C_16 
REMARK    6  A    between atoms: C_17  and  C_18 
ROOT
HETATM    1  C   UNL     1      42.292  -9.961   7.300  1.00  0.00     0.288 C 
HETATM    2  N   UNL     1      42.414  -9.946   8.671  1.00  0.00    -0.262 N 
HETATM    3  O   UNL     1      42.238  -8.933   6.630  1.00  0.00    -0.264 OA
HETATM    4  H   UNL     1      42.525 -10.786   9.236  1.00  0.00     0.190 HD
ENDROOT
BRANCH   1   5
HETATM    5  C   UNL     1      42.217 -11.275   6.722  1.00  0.00     0.121 A 
HETATM    6  N   UNL     1      41.033 -11.855   6.361  1.00  0.00    -0.272 N 
HETATM    7  N   UNL     1      41.158 -13.095   5.861  1.00  0.00    -0.174 NA
HETATM    8  H   UNL     1      40.105 -11.446   6.434  1.00  0.00     0.189 HD
HETATM    9  C   UNL     1      42.473 -13.359   5.929  1.00  0.00     0.089 A 
HETATM   10  C   UNL     1      43.172 -12.229   6.435  1.00  0.00     0.071 A 
BRANCH   9  11
HETATM   11  C   UNL     1      43.032 -14.655   5.529  1.00  0.00    -0.005 A 
HETATM   12  C   UNL     1      42.799 -15.172   4.247  1.00  0.00     0.016 A 
HETATM   13  C   UNL     1      43.332 -16.410   3.861  1.00  0.00     0.037 A 
HETATM   14  C   UNL     1      44.102 -17.152   4.755  1.00  0.00     0.068 A 
HETATM   15  C   UNL     1      44.332 -16.647   6.035  1.00  0.00     0.037 A 
HETATM   16  C   UNL     1      43.803 -15.411   6.421  1.00  0.00     0.016 A 
BRANCH  14  17
HETATM   17  O   UNL     1      44.677 -18.368   4.513  1.00  0.00    -0.356 OA
HETATM   18  C   UNL     1      44.178 -19.105   3.404  1.00  0.00     0.210 C 
ENDBRANCH  14  17
ENDBRANCH   9  11
ENDBRANCH   1   5
BRANCH   2  19
HETATM   19  N   UNL     1      42.407  -8.736   9.374  1.00  0.00    -0.263 N 
HETATM   20  C   UNL     1      41.733  -8.732  10.577  1.00  0.00     0.271 C 
HETATM   21  O   UNL     1      41.242  -9.755  11.051  1.00  0.00    -0.266 OA
HETATM   22  H   UNL     1      42.741  -7.913   8.870  1.00  0.00     0.190 HD
BRANCH  20  23
HETATM   23  C   UNL     1      41.526  -7.429  11.263  1.00  0.00     0.048 A 
HETATM   24  C   UNL     1      42.199  -7.015  12.427  1.00  0.00     0.063 A 
HETATM   25  C   UNL     1      41.899  -5.745  12.960  1.00  0.00     0.017 A 
HETATM   26  C   UNL     1      40.941  -4.920  12.371  1.00  0.00     0.001 A 
HETATM   27  C   UNL     1      40.260  -5.347  11.237  1.00  0.00     0.001 A 
HETATM   28  C   UNL     1      40.549  -6.595  10.688  1.00  0.00     0.018 A 
BRANCH  24  29
HETATM   29  C   UNL     1      43.202  -7.888  13.128  1.00  0.00     0.418 C 
HETATM   30  F   UNL     1      43.891  -7.238  14.100  1.00  0.00    -0.166 F 
HETATM   31  F   UNL     1      42.605  -8.958  13.725  1.00  0.00    -0.166 F 
HETATM   32  F   UNL     1      44.144  -8.413  12.294  1.00  0.00    -0.166 F 
ENDBRANCH  24  29
ENDBRANCH  20  23
ENDBRANCH   2  19
TORSDOF 6
ENDMDL
MODEL 9
REMARK VINA RESULT:      -7.7     18.289     20.020
REMARK  6 active torsions:
REMARK  status: ('A' for Active; 'I' for Inactive)
REMARK    1  A    between atoms: O_2  and  C_3 
REMARK    2  A    between atoms: C_6  and  C_7 
REMARK    3  A    between atoms: C_11  and  C_12 
REMARK       I    between atoms: C_12  and  N_13 
REMARK    4  A    between atoms: N_13  and  N_14 
REMARK       I    between atoms: N_14  and  C_15 
REMARK    5  A    between atoms: C_15  and  C_16 
REMARK    6  A    between atoms: C_17  and  C_18 
ROOT
HETATM    1  C   UNL     1      41.502 -30.669   2.538  1.00  0.00     0.288 C 
HETATM    2  N   UNL     1      42.673 -29.951   2.462  1.00  0.00    -0.262 N 
HETATM    3  O   UNL     1      40.804 -30.904   1.555  1.00  0.00    -0.264 OA
HETATM    4  H   UNL     1      43.296 -29.802   3.253  1.00  0.00     0.190 HD
ENDROOT
BRANCH   1   5
HETATM    5  C   UNL     1      41.156 -31.107   3.864  1.00  0.00     0.121 A 
HETATM    6  N   UNL     1      39.865 -31.329   4.253  1.00  0.00    -0.272 N 
HETATM    7  N   UNL     1      39.734 -31.709   5.533  1.00  0.00    -0.174 NA
HETATM    8  H   UNL     1      39.030 -31.235   3.681  1.00  0.00     0.189 HD
HETATM    9  C   UNL     1      40.986 -31.703   6.021  1.00  0.00     0.089 A 
HETATM   10  C   UNL     1      41.908 -31.360   4.993  1.00  0.00     0.071 A 
BRANCH   9  11
HETATM   11  C   UNL     1      41.281 -32.007   7.424  1.00  0.00    -0.005 A 
HETATM   12  C   UNL     1      42.498 -31.619   8.002  1.00  0.00     0.016 A 
HETATM   13  C   UNL     1      42.784 -31.909   9.344  1.00  0.00     0.037 A 
HETATM   14  C   UNL     1      41.858 -32.596  10.127  1.00  0.00     0.068 A 
HETATM   15  C   UNL     1      40.648 -32.991   9.556  1.00  0.00     0.037 A 
HETATM   16  C   UNL     1      40.360 -32.701   8.219  1.00  0.00     0.016 A 
BRANCH  14  17
HETATM   17  O   UNL     1      42.008 -32.943  11.440  1.00  0.00    -0.356 OA
HETATM   18  C   UNL     1      40.819 -33.169  12.185  1.00  0.00     0.210 C 
ENDBRANCH  14  17
ENDBRANCH   9  11
ENDBRANCH   1   5
BRANCH   2  19
HETATM   19  N   UNL     1      43.084 -29.385   1.249  1.00  0.00    -0.263 N 
HETATM   20  C   UNL     1      44.117 -30.024   0.596  1.00  0.00     0.271 C 
HETATM   21  O   UNL     1      44.592 -31.081   1.007  1.00  0.00    -0.266 OA
HETATM   22  H   UNL     1      42.718 -28.458   1.031  1.00  0.00     0.190 HD
BRANCH  20  23
HETATM   23  C   UNL     1      44.721 -29.355  -0.587  1.00  0.00     0.048 A 
HETATM   24  C   UNL     1      45.941 -28.655  -0.581  1.00  0.00     0.063 A 
HETATM   25  C   UNL     1      46.389 -28.075  -1.785  1.00  0.00     0.017 A 
HETATM   26  C   UNL     1      45.636 -28.165  -2.957  1.00  0.00     0.001 A 
HETATM   27  C   UNL     1      44.418 -28.834  -2.948  1.00  0.00     0.001 A 
HETATM   28  C   UNL     1      43.962 -29.423  -1.771  1.00  0.00     0.018 A 
BRANCH  24  29
HETATM   29  C   UNL     1      46.764 -28.487   0.666  1.00  0.00     0.418 C 
HETATM   30  F   UNL     1      46.034 -28.082   1.738  1.00  0.00    -0.166 F 
HETATM   31  F   UNL     1      47.370 -29.653   1.028  1.00  0.00    -0.166 F 
HETATM   32  F   UNL     1      47.769 -27.577   0.536  1.00  0.00    -0.166 F 
ENDBRANCH  24  29
ENDBRANCH  20  23
ENDBRANCH   2  19
TORSDOF 6
ENDMDL
MODEL 10
REMARK VINA RESULT:      -7.7      3.094      3.789
REMARK  6 active torsions:
REMARK  status: ('A' for Active; 'I' for Inactive)
REMARK    1  A    between atoms: O_2  and  C_3 
REMARK    2  A    between atoms: C_6  and  C_7 
REMARK    3  A    between atoms: C_11  and  C_12 
REMARK       I    between atoms: C_12  and  N_13 
REMARK    4  A    between atoms: N_13  and  N_14 
REMARK       I    between atoms: N_14  and  C_15 
REMARK    5  A    between atoms: C_15  and  C_16 
REMARK    6  A    between atoms: C_17  and  C_18 
ROOT
HETATM    1  C   UNL     1      41.650 -11.518   5.467  1.00  0.00     0.288 C 
HETATM    2  N   UNL     1      41.036 -11.514   6.699  1.00  0.00    -0.262 N 
HETATM    3  O   UNL     1      42.145 -10.509   4.972  1.00  0.00    -0.264 OA
HETATM    4  H   UNL     1      40.678 -12.352   7.152  1.00  0.00     0.190 HD
ENDROOT
BRANCH   1   5
HETATM    5  C   UNL     1      41.649 -12.793   4.803  1.00  0.00     0.121 A 
HETATM    6  N   UNL     1      40.579 -13.251   4.087  1.00  0.00    -0.272 N 
HETATM    7  N   UNL     1      40.752 -14.473   3.560  1.00  0.00    -0.174 NA
HETATM    8  H   UNL     1      39.700 -12.767   3.926  1.00  0.00     0.189 HD
HETATM    9  C   UNL     1      41.972 -14.854   3.974  1.00  0.00     0.089 A 
HETATM   10  C   UNL     1      42.577 -13.813   4.732  1.00  0.00     0.071 A 
BRANCH   9  11
HETATM   11  C   UNL     1      42.528 -16.174   3.661  1.00  0.00    -0.005 A 
HETATM   12  C   UNL     1      42.374 -16.732   2.385  1.00  0.00     0.016 A 
HETATM   13  C   UNL     1      42.904 -17.995   2.080  1.00  0.00     0.037 A 
HETATM   14  C   UNL     1      43.592 -18.719   3.052  1.00  0.00     0.068 A 
HETATM   15  C   UNL     1      43.744 -18.172   4.326  1.00  0.00     0.037 A 
HETATM   16  C   UNL     1      43.218 -16.913   4.631  1.00  0.00     0.016 A 
BRANCH  14  17
HETATM   17  O   UNL     1      44.155 -19.954   2.893  1.00  0.00    -0.356 OA
HETATM   18  C   UNL     1      43.937 -20.898   3.933  1.00  0.00     0.210 C 
ENDBRANCH  14  17
ENDBRANCH   9  11
ENDBRANCH   1   5
BRANCH   2  19
HETATM   19  N   UNL     1      40.884 -10.322   7.415  1.00  0.00    -0.263 N 
HETATM   20  C   UNL     1      39.610 -10.032   7.856  1.00  0.00     0.271 C 
HETATM   21  O   UNL     1      38.675 -10.817   7.706  1.00  0.00    -0.266 OA
HETATM   22  H   UNL     1      41.677  -9.678   7.405  1.00  0.00     0.190 HD
BRANCH  20  23
HETATM   23  C   UNL     1      39.358  -8.689   8.444  1.00  0.00     0.048 A 
HETATM   24  C   UNL     1      39.477  -8.373   9.810  1.00  0.00     0.063 A 
HETATM   25  C   UNL     1      39.210  -7.051  10.219  1.00  0.00     0.017 A 
HETATM   26  C   UNL     1      38.810  -6.076   9.304  1.00  0.00     0.001 A 
HETATM   27  C   UNL     1      38.667  -6.403   7.961  1.00  0.00     0.001 A 
HETATM   28  C   UNL     1      38.937  -7.702   7.534  1.00  0.00     0.018 A 
BRANCH  24  29
HETATM   29  C   UNL     1      39.855  -9.399  10.841  1.00  0.00     0.418 C 
HETATM   30  F   UNL     1      39.709  -8.955  12.117  1.00  0.00    -0.166 F 
HETATM   31  F   UNL     1      39.093 -10.524  10.733  1.00  0.00    -0.166 F 
HETATM   32  F   UNL     1      41.147  -9.821  10.741  1.00  0.00    -0.166 F 
ENDBRANCH  24  29
ENDBRANCH  20  23
ENDBRANCH   2  19
TORSDOF 6
ENDMDL
