MODEL 1
REMARK VINA RESULT:      -8.6      0.000      0.000
REMARK  6 active torsions:
REMARK  status: ('A' for Active; 'I' for Inactive)
REMARK    1  A    between atoms: C_2  and  C_3 
REMARK    2  A    between atoms: C_7  and  O_8 
REMARK    3  A    between atoms: O_8  and  C_9 
REMARK    4  A    between atoms: C_9  and  C_10 
REMARK       I    between atoms: C_10  and  N_11 
REMARK    5  A    between atoms: N_11  and  N_12 
REMARK    6  A    between atoms: C_13  and  C_14 
ROOT
HETATM    1  C   UNL     1      41.281 -14.350   5.488  1.00  0.00     0.261 C 
HETATM    2  N   UNL     1      42.663 -14.316   5.398  1.00  0.00    -0.246 N 
HETATM    3  O   UNL     1      40.636 -14.980   6.326  1.00  0.00    -0.269 OA
HETATM    4  H   UNL     1      43.100 -13.815   4.632  1.00  0.00     0.192 HD
ENDROOT
BRANCH   1   5
HETATM    5  C   UNL     1      40.583 -13.577   4.373  1.00  0.00     0.280 C 
BRANCH   5   6
HETATM    6  O   UNL     1      41.459 -13.314   3.278  1.00  0.00    -0.341 OA
BRANCH   6   7
HETATM    7  C   UNL     1      40.898 -13.499   2.039  1.00  0.00     0.086 A 
HETATM    8  C   UNL     1      40.796 -12.396   1.187  1.00  0.00     0.044 A 
HETATM    9  C   UNL     1      40.246 -12.534  -0.096  1.00  0.00     0.029 A 
HETATM   10 BR   UNL     1      41.374 -10.670   1.730  1.00  0.00    -0.048 Br
HETATM   11  C   UNL     1      39.803 -13.782  -0.576  1.00  0.00    -0.049 A 
HETATM   12  C   UNL     1      39.930 -14.880   0.288  1.00  0.00     0.011 A 
HETATM   13  C   UNL     1      40.473 -14.743   1.575  1.00  0.00     0.039 A 
BRANCH  11  14
HETATM   14  C   UNL     1      39.212 -13.905  -1.992  1.00  0.00    -0.024 C 
HETATM   15  C   UNL     1      40.208 -13.343  -3.030  1.00  0.00     0.019 C 
HETATM   16  C   UNL     1      37.894 -13.106  -2.070  1.00  0.00     0.019 C 
HETATM   17  C   UNL     1      38.895 -15.359  -2.413  1.00  0.00     0.019 C 
ENDBRANCH  11  14
ENDBRANCH   6   7
ENDBRANCH   5   6
ENDBRANCH   1   5
BRANCH   2  18
HETATM   18  N   UNL     1      43.416 -15.057   6.255  1.00  0.00    -0.184 NA
HETATM   19  C   UNL     1      43.825 -16.244   5.925  1.00  0.00     0.152 C 
BRANCH  19  20
HETATM   20  C   UNL     1      43.666 -16.928   4.655  1.00  0.00     0.011 A 
HETATM   21  C   UNL     1      43.767 -18.345   4.451  1.00  0.00     0.004 A 
HETATM   22  C   UNL     1      43.612 -18.588   3.086  1.00  0.00     0.043 A 
HETATM   23  C   UNL     1      43.973 -19.448   5.308  1.00  0.00     0.014 A 
HETATM   24  C   UNL     1      43.656 -19.874   2.535  1.00  0.00     0.030 A 
HETATM   25  N   UNL     1      43.437 -17.368   2.476  1.00  0.00    -0.364 N 
HETATM   26  C   UNL     1      43.864 -20.948   3.406  1.00  0.00     0.002 A 
HETATM   27  C   UNL     1      44.021 -20.741   4.774  1.00  0.00     0.001 A 
HETATM   28  H   UNL     1      43.320 -17.237   1.480  1.00  0.00     0.165 HD
HETATM   29  C   UNL     1      43.492 -16.363   3.405  1.00  0.00     0.102 A 
ENDBRANCH  19  20
ENDBRANCH   2  18
TORSDOF 6
ENDMDL
MODEL 2
REMARK VINA RESULT:      -8.4      2.264      3.611
REMARK  6 active torsions:
REMARK  status: ('A' for Active; 'I' for Inactive)
REMARK    1  A    between atoms: C_2  and  C_3 
REMARK    2  A    between atoms: C_7  and  O_8 
REMARK    3  A    between atoms: O_8  and  C_9 
REMARK    4  A    between atoms: C_9  and  C_10 
REMARK       I    between atoms: C_10  and  N_11 
REMARK    5  A    between atoms: N_11  and  N_12 
REMARK    6  A    between atoms: C_13  and  C_14 
ROOT
HETATM    1  C   UNL     1      43.652 -14.802   7.001  1.00  0.00     0.261 C 
HETATM    2  N   UNL     1      44.412 -15.783   6.384  1.00  0.00    -0.246 N 
HETATM    3  O   UNL     1      42.827 -14.996   7.894  1.00  0.00    -0.269 OA
HETATM    4  H   UNL     1      45.022 -15.529   5.614  1.00  0.00     0.192 HD
ENDROOT
BRANCH   1   5
HETATM    5  C   UNL     1      43.864 -13.412   6.411  1.00  0.00     0.280 C 
BRANCH   5   6
HETATM    6  O   UNL     1      42.634 -12.700   6.269  1.00  0.00    -0.341 OA
BRANCH   6   7
HETATM    7  C   UNL     1      42.186 -12.585   4.977  1.00  0.00     0.086 A 
HETATM    8  C   UNL     1      40.917 -12.040   4.762  1.00  0.00     0.044 A 
HETATM    9  C   UNL     1      40.419 -11.884   3.460  1.00  0.00     0.029 A 
HETATM   10 BR   UNL     1      39.811 -11.507   6.211  1.00  0.00    -0.048 Br
HETATM   11  C   UNL     1      41.181 -12.247   2.333  1.00  0.00    -0.049 A 
HETATM   12  C   UNL     1      42.459 -12.776   2.568  1.00  0.00     0.011 A 
HETATM   13  C   UNL     1      42.957 -12.939   3.870  1.00  0.00     0.039 A 
BRANCH  11  14
HETATM   14  C   UNL     1      40.611 -12.056   0.915  1.00  0.00    -0.024 C 
HETATM   15  C   UNL     1      41.180 -10.765   0.287  1.00  0.00     0.019 C 
HETATM   16  C   UNL     1      39.074 -11.950   0.989  1.00  0.00     0.019 C 
HETATM   17  C   UNL     1      40.946 -13.214  -0.054  1.00  0.00     0.019 C 
ENDBRANCH  11  14
ENDBRANCH   6   7
ENDBRANCH   5   6
ENDBRANCH   1   5
BRANCH   2  18
HETATM   18  N   UNL     1      44.241 -17.088   6.726  1.00  0.00    -0.184 NA
HETATM   19  C   UNL     1      43.726 -17.933   5.887  1.00  0.00     0.152 C 
BRANCH  19  20
HETATM   20  C   UNL     1      43.352 -17.710   4.503  1.00  0.00     0.011 A 
HETATM   21  C   UNL     1      42.211 -16.963   4.056  1.00  0.00     0.004 A 
HETATM   22  C   UNL     1      42.175 -17.038   2.663  1.00  0.00     0.043 A 
HETATM   23  C   UNL     1      41.203 -16.224   4.712  1.00  0.00     0.014 A 
HETATM   24  C   UNL     1      41.183 -16.416   1.895  1.00  0.00     0.030 A 
HETATM   25  N   UNL     1      43.243 -17.810   2.272  1.00  0.00    -0.364 N 
HETATM   26  C   UNL     1      40.195 -15.693   2.572  1.00  0.00     0.002 A 
HETATM   27  C   UNL     1      40.203 -15.597   3.960  1.00  0.00     0.001 A 
HETATM   28  H   UNL     1      43.455 -18.051   1.314  1.00  0.00     0.165 HD
HETATM   29  C   UNL     1      43.943 -18.239   3.370  1.00  0.00     0.102 A 
ENDBRANCH  19  20
ENDBRANCH   2  18
TORSDOF 6
ENDMDL
MODEL 3
REMARK VINA RESULT:      -8.4      3.782      6.793
REMARK  6 active torsions:
REMARK  status: ('A' for Active; 'I' for Inactive)
REMARK    1  A    between atoms: C_2  and  C_3 
REMARK    2  A    between atoms: C_7  and  O_8 
REMARK    3  A    between atoms: O_8  and  C_9 
REMARK    4  A    between atoms: C_9  and  C_10 
REMARK       I    between atoms: C_10  and  N_11 
REMARK    5  A    between atoms: N_11  and  N_12 
REMARK    6  A    between atoms: C_13  and  C_14 
ROOT
HETATM    1  C   UNL     1      41.723 -13.510   2.715  1.00  0.00     0.261 C 
HETATM    2  N   UNL     1      42.880 -14.239   2.491  1.00  0.00    -0.246 N 
HETATM    3  O   UNL     1      40.655 -13.667   2.124  1.00  0.00    -0.269 OA
HETATM    4  H   UNL     1      43.729 -13.992   2.989  1.00  0.00     0.192 HD
ENDROOT
BRANCH   1   5
HETATM    5  C   UNL     1      41.901 -12.394   3.740  1.00  0.00     0.280 C 
BRANCH   5   6
HETATM    6  O   UNL     1      42.081 -12.906   5.060  1.00  0.00    -0.341 OA
BRANCH   6   7
HETATM    7  C   UNL     1      42.834 -12.109   5.885  1.00  0.00     0.086 A 
HETATM    8  C   UNL     1      42.210 -11.026   6.511  1.00  0.00     0.044 A 
HETATM    9  C   UNL     1      42.931 -10.190   7.376  1.00  0.00     0.029 A 
HETATM   10 BR   UNL     1      40.379 -10.628   6.203  1.00  0.00    -0.048 Br
HETATM   11  C   UNL     1      44.290 -10.425   7.663  1.00  0.00    -0.049 A 
HETATM   12  C   UNL     1      44.894 -11.527   7.039  1.00  0.00     0.011 A 
HETATM   13  C   UNL     1      44.177 -12.360   6.167  1.00  0.00     0.039 A 
BRANCH  11  14
HETATM   14  C   UNL     1      45.053  -9.495   8.625  1.00  0.00    -0.024 C 
HETATM   15  C   UNL     1      44.294  -8.159   8.778  1.00  0.00     0.019 C 
HETATM   16  C   UNL     1      46.462  -9.217   8.062  1.00  0.00     0.019 C 
HETATM   17  C   UNL     1      45.231 -10.078  10.046  1.00  0.00     0.019 C 
ENDBRANCH  11  14
ENDBRANCH   6   7
ENDBRANCH   5   6
ENDBRANCH   1   5
BRANCH   2  18
HETATM   18  N   UNL     1      42.903 -15.190   1.518  1.00  0.00    -0.184 NA
HETATM   19  C   UNL     1      43.216 -16.418   1.797  1.00  0.00     0.152 C 
BRANCH  19  20
HETATM   20  C   UNL     1      43.486 -17.004   3.097  1.00  0.00     0.011 A 
HETATM   21  C   UNL     1      43.634 -18.406   3.367  1.00  0.00     0.004 A 
HETATM   22  C   UNL     1      43.823 -18.554   4.741  1.00  0.00     0.043 A 
HETATM   23  C   UNL     1      43.627 -19.567   2.563  1.00  0.00     0.014 A 
HETATM   24  C   UNL     1      44.001 -19.801   5.352  1.00  0.00     0.030 A 
HETATM   25  N   UNL     1      43.779 -17.295   5.293  1.00  0.00    -0.364 N 
HETATM   26  C   UNL     1      43.987 -20.934   4.533  1.00  0.00     0.002 A 
HETATM   27  C   UNL     1      43.803 -20.821   3.158  1.00  0.00     0.001 A 
HETATM   28  H   UNL     1      43.867 -17.100   6.281  1.00  0.00     0.165 HD
HETATM   29  C   UNL     1      43.554 -16.359   4.318  1.00  0.00     0.102 A 
ENDBRANCH  19  20
ENDBRANCH   2  18
TORSDOF 6
ENDMDL
MODEL 4
REMARK VINA RESULT:      -8.3      2.931      5.916
REMARK  6 active torsions:
REMARK  status: ('A' for Active; 'I' for Inactive)
REMARK    1  A    between atoms: C_2  and  C_3 
REMARK    2  A    between atoms: C_7  and  O_8 
REMARK    3  A    between atoms: O_8  and  C_9 
REMARK    4  A    between atoms: C_9  and  C_10 
REMARK       I    between atoms: C_10  and  N_11 
REMARK    5  A    between atoms: N_11  and  N_12 
REMARK    6  A    between atoms: C_13  and  C_14 
ROOT
HETATM    1  C   UNL     1      40.356 -12.656   0.651  1.00  0.00     0.261 C 
HETATM    2  N   UNL     1      40.927 -13.901   0.439  1.00  0.00    -0.246 N 
HETATM    3  O   UNL     1      39.163 -12.447   0.870  1.00  0.00    -0.269 OA
HETATM    4  H   UNL     1      41.912 -13.963   0.204  1.00  0.00     0.192 HD
ENDROOT
BRANCH   1   5
HETATM    5  C   UNL     1      41.345 -11.504   0.504  1.00  0.00     0.280 C 
BRANCH   5   6
HETATM    6  O   UNL     1      41.221 -10.558   1.566  1.00  0.00    -0.341 OA
BRANCH   6   7
HETATM    7  C   UNL     1      41.955 -10.856   2.687  1.00  0.00     0.086 A 
HETATM    8  C   UNL     1      41.725 -10.112   3.847  1.00  0.00     0.044 A 
HETATM    9  C   UNL     1      42.437 -10.388   5.024  1.00  0.00     0.029 A 
HETATM   10 BR   UNL     1      40.463  -8.693   3.878  1.00  0.00    -0.048 Br
HETATM   11  C   UNL     1      43.382 -11.430   5.085  1.00  0.00    -0.049 A 
HETATM   12  C   UNL     1      43.586 -12.177   3.914  1.00  0.00     0.011 A 
HETATM   13  C   UNL     1      42.881 -11.898   2.734  1.00  0.00     0.039 A 
BRANCH  11  14
HETATM   14  C   UNL     1      44.142 -11.715   6.393  1.00  0.00    -0.024 C 
HETATM   15  C   UNL     1      45.642 -11.396   6.211  1.00  0.00     0.019 C 
HETATM   16  C   UNL     1      43.982 -13.203   6.767  1.00  0.00     0.019 C 
HETATM   17  C   UNL     1      43.646 -10.881   7.597  1.00  0.00     0.019 C 
ENDBRANCH  11  14
ENDBRANCH   6   7
ENDBRANCH   5   6
ENDBRANCH   1   5
BRANCH   2  18
HETATM   18  N   UNL     1      40.143 -15.012   0.421  1.00  0.00    -0.184 NA
HETATM   19  C   UNL     1      40.174 -15.864   1.400  1.00  0.00     0.152 C 
BRANCH  19  20
HETATM   20  C   UNL     1      40.908 -15.771   2.649  1.00  0.00     0.011 A 
HETATM   21  C   UNL     1      41.999 -16.617   3.041  1.00  0.00     0.004 A 
HETATM   22  C   UNL     1      42.384 -16.241   4.328  1.00  0.00     0.043 A 
HETATM   23  C   UNL     1      42.699 -17.671   2.415  1.00  0.00     0.014 A 
HETATM   24  C   UNL     1      43.428 -16.866   5.021  1.00  0.00     0.030 A 
HETATM   25  N   UNL     1      41.554 -15.214   4.715  1.00  0.00    -0.364 N 
HETATM   26  C   UNL     1      44.102 -17.908   4.378  1.00  0.00     0.002 A 
HETATM   27  C   UNL     1      43.745 -18.307   3.093  1.00  0.00     0.001 A 
HETATM   28  H   UNL     1      41.590 -14.756   5.615  1.00  0.00     0.165 HD
HETATM   29  C   UNL     1      40.649 -14.940   3.723  1.00  0.00     0.102 A 
ENDBRANCH  19  20
ENDBRANCH   2  18
TORSDOF 6
ENDMDL
MODEL 5
REMARK VINA RESULT:      -8.3      3.392      6.653
REMARK  6 active torsions:
REMARK  status: ('A' for Active; 'I' for Inactive)
REMARK    1  A    between atoms: C_2  and  C_3 
REMARK    2  A    between atoms: C_7  and  O_8 
REMARK    3  A    between atoms: O_8  and  C_9 
REMARK    4  A    between atoms: C_9  and  C_10 
REMARK       I    between atoms: C_10  and  N_11 
REMARK    5  A    between atoms: N_11  and  N_12 
REMARK    6  A    between atoms: C_13  and  C_14 
ROOT
HETATM    1  C   UNL     1      41.882  -9.908   3.751  1.00  0.00     0.261 C 
HETATM    2  N   UNL     1      42.433 -10.737   2.786  1.00  0.00    -0.246 N 
HETATM    3  O   UNL     1      40.986  -9.087   3.558  1.00  0.00    -0.269 OA
HETATM    4  H   UNL     1      43.213 -11.337   3.033  1.00  0.00     0.192 HD
ENDROOT
BRANCH   1   5
HETATM    5  C   UNL     1      42.554 -10.036   5.114  1.00  0.00     0.280 C 
BRANCH   5   6
HETATM    6  O   UNL     1      41.780 -10.825   6.018  1.00  0.00    -0.341 OA
BRANCH   6   7
HETATM    7  C   UNL     1      42.222 -12.115   6.174  1.00  0.00     0.086 A 
HETATM    8  C   UNL     1      41.298 -13.154   6.034  1.00  0.00     0.044 A 
HETATM    9  C   UNL     1      41.701 -14.490   6.167  1.00  0.00     0.029 A 
HETATM   10 BR   UNL     1      39.465 -12.805   5.678  1.00  0.00    -0.048 Br
HETATM   11  C   UNL     1      43.044 -14.831   6.421  1.00  0.00    -0.049 A 
HETATM   12  C   UNL     1      43.960 -13.775   6.542  1.00  0.00     0.011 A 
HETATM   13  C   UNL     1      43.558 -12.437   6.416  1.00  0.00     0.039 A 
BRANCH  11  14
HETATM   14  C   UNL     1      43.459 -16.308   6.554  1.00  0.00    -0.024 C 
HETATM   15  C   UNL     1      43.890 -16.605   8.007  1.00  0.00     0.019 C 
HETATM   16  C   UNL     1      44.641 -16.598   5.605  1.00  0.00     0.019 C 
HETATM   17  C   UNL     1      42.332 -17.308   6.205  1.00  0.00     0.019 C 
ENDBRANCH  11  14
ENDBRANCH   6   7
ENDBRANCH   5   6
ENDBRANCH   1   5
BRANCH   2  18
HETATM   18  N   UNL     1      42.013 -10.646   1.496  1.00  0.00    -0.184 NA
HETATM   19  C   UNL     1      41.286 -11.581   0.966  1.00  0.00     0.152 C 
BRANCH  19  20
HETATM   20  C   UNL     1      40.736 -12.762   1.605  1.00  0.00     0.011 A 
HETATM   21  C   UNL     1      41.468 -13.953   1.932  1.00  0.00     0.004 A 
HETATM   22  C   UNL     1      40.566 -14.868   2.475  1.00  0.00     0.043 A 
HETATM   23  C   UNL     1      42.822 -14.335   1.817  1.00  0.00     0.014 A 
HETATM   24  C   UNL     1      40.947 -16.144   2.906  1.00  0.00     0.030 A 
HETATM   25  N   UNL     1      39.329 -14.267   2.470  1.00  0.00    -0.364 N 
HETATM   26  C   UNL     1      42.294 -16.498   2.778  1.00  0.00     0.002 A 
HETATM   27  C   UNL     1      43.220 -15.608   2.242  1.00  0.00     0.001 A 
HETATM   28  H   UNL     1      38.477 -14.708   2.789  1.00  0.00     0.165 HD
HETATM   29  C   UNL     1      39.415 -13.012   1.927  1.00  0.00     0.102 A 
ENDBRANCH  19  20
ENDBRANCH   2  18
TORSDOF 6
ENDMDL
MODEL 6
REMARK VINA RESULT:      -8.3      4.614      7.780
REMARK  6 active torsions:
REMARK  status: ('A' for Active; 'I' for Inactive)
REMARK    1  A    between atoms: C_2  and  C_3 
REMARK    2  A    between atoms: C_7  and  O_8 
REMARK    3  A    between atoms: O_8  and  C_9 
REMARK    4  A    between atoms: C_9  and  C_10 
REMARK       I    between atoms: C_10  and  N_11 
REMARK    5  A    between atoms: N_11  and  N_12 
REMARK    6  A    between atoms: C_13  and  C_14 
ROOT
HETATM    1  C   UNL     1      40.033 -12.173   5.961  1.00  0.00     0.261 C 
HETATM    2  N   UNL     1      40.530 -13.465   6.037  1.00  0.00    -0.246 N 
HETATM    3  O   UNL     1      38.947 -11.800   6.405  1.00  0.00    -0.269 OA
HETATM    4  H   UNL     1      41.410 -13.687   5.585  1.00  0.00     0.192 HD
ENDROOT
BRANCH   1   5
HETATM    5  C   UNL     1      40.935 -11.223   5.181  1.00  0.00     0.280 C 
BRANCH   5   6
HETATM    6  O   UNL     1      41.011  -9.937   5.794  1.00  0.00    -0.341 OA
BRANCH   6   7
HETATM    7  C   UNL     1      41.767  -9.893   6.940  1.00  0.00     0.086 A 
HETATM    8  C   UNL     1      41.226  -9.268   8.067  1.00  0.00     0.044 A 
HETATM    9  C   UNL     1      41.950  -9.211   9.267  1.00  0.00     0.029 A 
HETATM   10 BR   UNL     1      39.510  -8.455   8.019  1.00  0.00    -0.048 Br
HETATM   11  C   UNL     1      43.225  -9.798   9.385  1.00  0.00    -0.049 A 
HETATM   12  C   UNL     1      43.743 -10.437   8.248  1.00  0.00     0.011 A 
HETATM   13  C   UNL     1      43.024 -10.488   7.044  1.00  0.00     0.039 A 
BRANCH  11  14
HETATM   14  C   UNL     1      43.992  -9.728  10.718  1.00  0.00    -0.024 C 
HETATM   15  C   UNL     1      43.582  -8.458  11.495  1.00  0.00     0.019 C 
HETATM   16  C   UNL     1      45.508  -9.683  10.437  1.00  0.00     0.019 C 
HETATM   17  C   UNL     1      43.732 -10.932  11.653  1.00  0.00     0.019 C 
ENDBRANCH  11  14
ENDBRANCH   6   7
ENDBRANCH   5   6
ENDBRANCH   1   5
BRANCH   2  18
HETATM   18  N   UNL     1      39.778 -14.447   6.601  1.00  0.00    -0.184 NA
HETATM   19  C   UNL     1      40.178 -15.682   6.587  1.00  0.00     0.152 C 
BRANCH  19  20
HETATM   20  C   UNL     1      41.439 -16.212   6.102  1.00  0.00     0.011 A 
HETATM   21  C   UNL     1      41.760 -16.478   4.729  1.00  0.00     0.004 A 
HETATM   22  C   UNL     1      43.039 -17.034   4.693  1.00  0.00     0.043 A 
HETATM   23  C   UNL     1      41.077 -16.291   3.507  1.00  0.00     0.014 A 
HETATM   24  C   UNL     1      43.667 -17.416   3.501  1.00  0.00     0.030 A 
HETATM   25  N   UNL     1      43.479 -17.118   5.993  1.00  0.00    -0.364 N 
HETATM   26  C   UNL     1      42.967 -17.223   2.307  1.00  0.00     0.002 A 
HETATM   27  C   UNL     1      41.690 -16.669   2.306  1.00  0.00     0.001 A 
HETATM   28  H   UNL     1      44.371 -17.504   6.272  1.00  0.00     0.165 HD
HETATM   29  C   UNL     1      42.517 -16.650   6.849  1.00  0.00     0.102 A 
ENDBRANCH  19  20
ENDBRANCH   2  18
TORSDOF 6
ENDMDL
MODEL 7
REMARK VINA RESULT:      -8.2      6.075      9.116
REMARK  6 active torsions:
REMARK  status: ('A' for Active; 'I' for Inactive)
REMARK    1  A    between atoms: C_2  and  C_3 
REMARK    2  A    between atoms: C_7  and  O_8 
REMARK    3  A    between atoms: O_8  and  C_9 
REMARK    4  A    between atoms: C_9  and  C_10 
REMARK       I    between atoms: C_10  and  N_11 
REMARK    5  A    between atoms: N_11  and  N_12 
REMARK    6  A    between atoms: C_13  and  C_14 
ROOT
HETATM    1  C   UNL     1      45.314 -10.253   7.637  1.00  0.00     0.261 C 
HETATM    2  N   UNL     1      44.144  -9.585   7.960  1.00  0.00    -0.246 N 
HETATM    3  O   UNL     1      46.441  -9.759   7.640  1.00  0.00    -0.269 OA
HETATM    4  H   UNL     1      43.255 -10.065   7.867  1.00  0.00     0.192 HD
ENDROOT
BRANCH   1   5
HETATM    5  C   UNL     1      45.083 -11.690   7.177  1.00  0.00     0.280 C 
BRANCH   5   6
HETATM    6  O   UNL     1      43.704 -11.952   6.921  1.00  0.00    -0.341 OA
BRANCH   6   7
HETATM    7  C   UNL     1      43.470 -12.995   6.061  1.00  0.00     0.086 A 
HETATM    8  C   UNL     1      43.082 -12.700   4.751  1.00  0.00     0.044 A 
HETATM    9  C   UNL     1      42.847 -13.729   3.827  1.00  0.00     0.029 A 
HETATM   10 BR   UNL     1      42.835 -10.908   4.173  1.00  0.00    -0.048 Br
HETATM   11  C   UNL     1      43.017 -15.083   4.176  1.00  0.00    -0.049 A 
HETATM   12  C   UNL     1      43.425 -15.358   5.490  1.00  0.00     0.011 A 
HETATM   13  C   UNL     1      43.653 -14.331   6.418  1.00  0.00     0.039 A 
BRANCH  11  14
HETATM   14  C   UNL     1      42.761 -16.191   3.138  1.00  0.00    -0.024 C 
HETATM   15  C   UNL     1      43.348 -15.778   1.770  1.00  0.00     0.019 C 
HETATM   16  C   UNL     1      41.242 -16.416   2.991  1.00  0.00     0.019 C 
HETATM   17  C   UNL     1      43.394 -17.552   3.508  1.00  0.00     0.019 C 
ENDBRANCH  11  14
ENDBRANCH   6   7
ENDBRANCH   5   6
ENDBRANCH   1   5
BRANCH   2  18
HETATM   18  N   UNL     1      44.184  -8.262   8.273  1.00  0.00    -0.184 NA
HETATM   19  C   UNL     1      43.368  -7.761   9.149  1.00  0.00     0.152 C 
BRANCH  19  20
HETATM   20  C   UNL     1      42.398  -8.457   9.975  1.00  0.00     0.011 A 
HETATM   21  C   UNL     1      42.391  -8.487  11.409  1.00  0.00     0.004 A 
HETATM   22  C   UNL     1      41.338  -9.310  11.810  1.00  0.00     0.043 A 
HETATM   23  C   UNL     1      43.186  -7.884  12.408  1.00  0.00     0.014 A 
HETATM   24  C   UNL     1      41.043  -9.563  13.155  1.00  0.00     0.030 A 
HETATM   25  N   UNL     1      40.732  -9.776  10.667  1.00  0.00    -0.364 N 
HETATM   26  C   UNL     1      41.848  -8.955  14.123  1.00  0.00     0.002 A 
HETATM   27  C   UNL     1      42.905  -8.126  13.758  1.00  0.00     0.001 A 
HETATM   28  H   UNL     1      39.947 -10.413  10.654  1.00  0.00     0.165 HD
HETATM   29  C   UNL     1      41.375  -9.289   9.559  1.00  0.00     0.102 A 
ENDBRANCH  19  20
ENDBRANCH   2  18
TORSDOF 6
ENDMDL
MODEL 8
REMARK VINA RESULT:      -8.1      1.847      2.513
REMARK  6 active torsions:
REMARK  status: ('A' for Active; 'I' for Inactive)
REMARK    1  A    between atoms: C_2  and  C_3 
REMARK    2  A    between atoms: C_7  and  O_8 
REMARK    3  A    between atoms: O_8  and  C_9 
REMARK    4  A    between atoms: C_9  and  C_10 
REMARK       I    between atoms: C_10  and  N_11 
REMARK    5  A    between atoms: N_11  and  N_12 
REMARK    6  A    between atoms: C_13  and  C_14 
ROOT
HETATM    1  C   UNL     1      40.348 -12.570   5.433  1.00  0.00     0.261 C 
HETATM    2  N   UNL     1      39.609 -13.726   5.628  1.00  0.00    -0.246 N 
HETATM    3  O   UNL     1      41.405 -12.295   6.000  1.00  0.00    -0.269 OA
HETATM    4  H   UNL     1      38.717 -13.832   5.157  1.00  0.00     0.192 HD
ENDROOT
BRANCH   1   5
HETATM    5  C   UNL     1      39.683 -11.580   4.481  1.00  0.00     0.280 C 
BRANCH   5   6
HETATM    6  O   UNL     1      40.561 -11.183   3.428  1.00  0.00    -0.341 OA
BRANCH   6   7
HETATM    7  C   UNL     1      40.240 -11.692   2.194  1.00  0.00     0.086 A 
HETATM    8  C   UNL     1      41.110 -12.619   1.614  1.00  0.00     0.044 A 
HETATM    9  C   UNL     1      40.820 -13.182   0.362  1.00  0.00     0.029 A 
HETATM   10 BR   UNL     1      42.720 -13.140   2.476  1.00  0.00    -0.048 Br
HETATM   11  C   UNL     1      39.642 -12.855  -0.337  1.00  0.00    -0.049 A 
HETATM   12  C   UNL     1      38.773 -11.936   0.271  1.00  0.00     0.011 A 
HETATM   13  C   UNL     1      39.064 -11.366   1.519  1.00  0.00     0.039 A 
BRANCH  11  14
HETATM   14  C   UNL     1      39.346 -13.496  -1.705  1.00  0.00    -0.024 C 
HETATM   15  C   UNL     1      39.221 -15.028  -1.553  1.00  0.00     0.019 C 
HETATM   16  C   UNL     1      40.497 -13.176  -2.682  1.00  0.00     0.019 C 
HETATM   17  C   UNL     1      38.036 -12.999  -2.358  1.00  0.00     0.019 C 
ENDBRANCH  11  14
ENDBRANCH   6   7
ENDBRANCH   5   6
ENDBRANCH   1   5
BRANCH   2  18
HETATM   18  N   UNL     1      40.021 -14.646   6.541  1.00  0.00    -0.184 NA
HETATM   19  C   UNL     1      40.582 -15.754   6.162  1.00  0.00     0.152 C 
BRANCH  19  20
HETATM   20  C   UNL     1      40.946 -16.162   4.818  1.00  0.00     0.011 A 
HETATM   21  C   UNL     1      42.122 -16.902   4.459  1.00  0.00     0.004 A 
HETATM   22  C   UNL     1      42.129 -17.037   3.070  1.00  0.00     0.043 A 
HETATM   23  C   UNL     1      43.184 -17.474   5.193  1.00  0.00     0.014 A 
HETATM   24  C   UNL     1      43.145 -17.710   2.379  1.00  0.00     0.030 A 
HETATM   25  N   UNL     1      41.010 -16.395   2.596  1.00  0.00    -0.364 N 
HETATM   26  C   UNL     1      44.185 -18.263   3.131  1.00  0.00     0.002 A 
HETATM   27  C   UNL     1      44.208 -18.149   4.518  1.00  0.00     0.001 A 
HETATM   28  H   UNL     1      40.767 -16.315   1.618  1.00  0.00     0.165 HD
HETATM   29  C   UNL     1      40.304 -15.846   3.634  1.00  0.00     0.102 A 
ENDBRANCH  19  20
ENDBRANCH   2  18
TORSDOF 6
ENDMDL
MODEL 9
REMARK VINA RESULT:      -8.1      2.507      3.615
REMARK  6 active torsions:
REMARK  status: ('A' for Active; 'I' for Inactive)
REMARK    1  A    between atoms: C_2  and  C_3 
REMARK    2  A    between atoms: C_7  and  O_8 
REMARK    3  A    between atoms: O_8  and  C_9 
REMARK    4  A    between atoms: C_9  and  C_10 
REMARK       I    between atoms: C_10  and  N_11 
REMARK    5  A    between atoms: N_11  and  N_12 
REMARK    6  A    between atoms: C_13  and  C_14 
ROOT
HETATM    1  C   UNL     1      44.207 -12.421   6.939  1.00  0.00     0.261 C 
HETATM    2  N   UNL     1      43.778 -13.691   6.591  1.00  0.00    -0.246 N 
HETATM    3  O   UNL     1      44.188 -11.948   8.075  1.00  0.00    -0.269 OA
HETATM    4  H   UNL     1      43.777 -13.966   5.614  1.00  0.00     0.192 HD
ENDROOT
BRANCH   1   5
HETATM    5  C   UNL     1      44.650 -11.583   5.743  1.00  0.00     0.280 C 
BRANCH   5   6
HETATM    6  O   UNL     1      43.627 -10.686   5.313  1.00  0.00    -0.341 OA
BRANCH   6   7
HETATM    7  C   UNL     1      42.917 -11.109   4.217  1.00  0.00     0.086 A 
HETATM    8  C   UNL     1      41.757 -10.414   3.869  1.00  0.00     0.044 A 
HETATM    9  C   UNL     1      41.005 -10.795   2.749  1.00  0.00     0.029 A 
HETATM   10 BR   UNL     1      41.138  -8.944   4.901  1.00  0.00    -0.048 Br
HETATM   11  C   UNL     1      41.402 -11.868   1.927  1.00  0.00    -0.049 A 
HETATM   12  C   UNL     1      42.580 -12.543   2.283  1.00  0.00     0.011 A 
HETATM   13  C   UNL     1      43.330 -12.168   3.408  1.00  0.00     0.039 A 
BRANCH  11  14
HETATM   14  C   UNL     1      40.561 -12.259   0.698  1.00  0.00    -0.024 C 
HETATM   15  C   UNL     1      40.825 -13.735   0.327  1.00  0.00     0.019 C 
HETATM   16  C   UNL     1      40.946 -11.360  -0.495  1.00  0.00     0.019 C 
HETATM   17  C   UNL     1      39.037 -12.114   0.913  1.00  0.00     0.019 C 
ENDBRANCH  11  14
ENDBRANCH   6   7
ENDBRANCH   5   6
ENDBRANCH   1   5
BRANCH   2  18
HETATM   18  N   UNL     1      43.244 -14.509   7.538  1.00  0.00    -0.184 NA
HETATM   19  C   UNL     1      43.012 -15.760   7.282  1.00  0.00     0.152 C 
BRANCH  19  20
HETATM   20  C   UNL     1      43.335 -16.506   6.080  1.00  0.00     0.011 A 
HETATM   21  C   UNL     1      42.604 -16.458   4.846  1.00  0.00     0.004 A 
HETATM   22  C   UNL     1      43.200 -17.362   3.966  1.00  0.00     0.043 A 
HETATM   23  C   UNL     1      41.486 -15.723   4.394  1.00  0.00     0.014 A 
HETATM   24  C   UNL     1      42.734 -17.570   2.661  1.00  0.00     0.030 A 
HETATM   25  N   UNL     1      44.246 -17.949   4.637  1.00  0.00    -0.364 N 
HETATM   26  C   UNL     1      41.624 -16.831   2.242  1.00  0.00     0.002 A 
HETATM   27  C   UNL     1      41.007 -15.919   3.094  1.00  0.00     0.001 A 
HETATM   28  H   UNL     1      44.847 -18.664   4.249  1.00  0.00     0.165 HD
HETATM   29  C   UNL     1      44.322 -17.461   5.915  1.00  0.00     0.102 A 
ENDBRANCH  19  20
ENDBRANCH   2  18
TORSDOF 6
ENDMDL
MODEL 10
REMARK VINA RESULT:      -8.0      5.756      8.992
REMARK  6 active torsions:
REMARK  status: ('A' for Active; 'I' for Inactive)
REMARK    1  A    between atoms: C_2  and  C_3 
REMARK    2  A    between atoms: C_7  and  O_8 
REMARK    3  A    between atoms: O_8  and  C_9 
REMARK    4  A    between atoms: C_9  and  C_10 
REMARK       I    between atoms: C_10  and  N_11 
REMARK    5  A    between atoms: N_11  and  N_12 
REMARK    6  A    between atoms: C_13  and  C_14 
ROOT
HETATM    1  C   UNL     1      43.679 -11.647   6.316  1.00  0.00     0.261 C 
HETATM    2  N   UNL     1      42.493 -12.281   6.649  1.00  0.00    -0.246 N 
HETATM    3  O   UNL     1      44.026 -11.335   5.177  1.00  0.00    -0.269 OA
HETATM    4  H   UNL     1      42.327 -12.552   7.612  1.00  0.00     0.192 HD
ENDROOT
BRANCH   1   5
HETATM    5  C   UNL     1      44.603 -11.426   7.510  1.00  0.00     0.280 C 
BRANCH   5   6
HETATM    6  O   UNL     1      44.792 -10.039   7.787  1.00  0.00    -0.341 OA
BRANCH   6   7
HETATM    7  C   UNL     1      44.279  -9.621   8.990  1.00  0.00     0.086 A 
HETATM    8  C   UNL     1      43.134  -8.820   8.979  1.00  0.00     0.044 A 
HETATM    9  C   UNL     1      42.559  -8.380  10.180  1.00  0.00     0.029 A 
HETATM   10 BR   UNL     1      42.323  -8.277   7.349  1.00  0.00    -0.048 Br
HETATM   11  C   UNL     1      43.096  -8.747  11.429  1.00  0.00    -0.049 A 
HETATM   12  C   UNL     1      44.235  -9.567  11.420  1.00  0.00     0.011 A 
HETATM   13  C   UNL     1      44.816 -10.002  10.219  1.00  0.00     0.039 A 
BRANCH  11  14
HETATM   14  C   UNL     1      42.438  -8.256  12.732  1.00  0.00    -0.024 C 
HETATM   15  C   UNL     1      41.181  -7.420  12.405  1.00  0.00     0.019 C 
HETATM   16  C   UNL     1      43.439  -7.382  13.516  1.00  0.00     0.019 C 
HETATM   17  C   UNL     1      41.987  -9.398  13.673  1.00  0.00     0.019 C 
ENDBRANCH  11  14
ENDBRANCH   6   7
ENDBRANCH   5   6
ENDBRANCH   1   5
BRANCH   2  18
HETATM   18  N   UNL     1      41.624 -12.648   5.670  1.00  0.00    -0.184 NA
HETATM   19  C   UNL     1      41.494 -13.894   5.329  1.00  0.00     0.152 C 
BRANCH  19  20
HETATM   20  C   UNL     1      42.116 -15.059   5.930  1.00  0.00     0.011 A 
HETATM   21  C   UNL     1      42.727 -16.143   5.214  1.00  0.00     0.004 A 
HETATM   22  C   UNL     1      43.148 -17.085   6.152  1.00  0.00     0.043 A 
HETATM   23  C   UNL     1      42.963 -16.408   3.847  1.00  0.00     0.014 A 
HETATM   24  C   UNL     1      43.789 -18.278   5.794  1.00  0.00     0.030 A 
HETATM   25  N   UNL     1      42.799 -16.605   7.392  1.00  0.00    -0.364 N 
HETATM   26  C   UNL     1      44.007 -18.516   4.434  1.00  0.00     0.002 A 
HETATM   27  C   UNL     1      43.601 -17.595   3.472  1.00  0.00     0.001 A 
HETATM   28  H   UNL     1      42.964 -17.092   8.263  1.00  0.00     0.165 HD
HETATM   29  C   UNL     1      42.157 -15.400   7.269  1.00  0.00     0.102 A 
ENDBRANCH  19  20
ENDBRANCH   2  18
TORSDOF 6
ENDMDL
