MODEL 1
REMARK VINA RESULT:      -9.1      0.000      0.000
REMARK  5 active torsions:
REMARK  status: ('A' for Active; 'I' for Inactive)
REMARK    1  A    between atoms: N_7  and  N_8 
REMARK       I    between atoms: N_8  and  C_9 
REMARK    2  A    between atoms: C_9  and  C_10 
REMARK    3  A    between atoms: C_13  and  O_14 
REMARK    4  A    between atoms: O_14  and  C_15 
REMARK    5  A    between atoms: C_15  and  C_16 
ROOT
HETATM    1  N   UNL     1      42.591 -12.761   4.509  1.00  0.00    -0.242 N 
HETATM    2  C   UNL     1      43.633 -11.847   4.449  1.00  0.00     0.271 C 
HETATM    3  O   UNL     1      44.241 -11.511   3.437  1.00  0.00    -0.266 OA
HETATM    4  H   UNL     1      42.328 -13.150   5.401  1.00  0.00     0.192 HD
ENDROOT
BRANCH   2   5
HETATM    5  C   UNL     1      44.041 -11.255   5.751  1.00  0.00     0.033 A 
HETATM    6  C   UNL     1      45.376 -11.380   6.152  1.00  0.00     0.020 A 
HETATM    7  C   UNL     1      45.820 -10.787   7.337  1.00  0.00     0.038 A 
HETATM    8  C   UNL     1      44.935 -10.043   8.119  1.00  0.00     0.069 A 
HETATM    9  C   UNL     1      43.596  -9.935   7.728  1.00  0.00     0.038 A 
HETATM   10  C   UNL     1      43.147 -10.530   6.546  1.00  0.00     0.020 A 
BRANCH   8  11
HETATM   11  O   UNL     1      45.254  -9.377   9.270  1.00  0.00    -0.347 OA
BRANCH  11  12
HETATM   12  C   UNL     1      45.147 -10.119  10.484  1.00  0.00     0.214 C 
BRANCH  12  13
HETATM   13  C   UNL     1      43.941  -9.621  11.246  1.00  0.00    -0.034 A 
HETATM   14  C   UNL     1      43.191 -10.498  12.042  1.00  0.00     0.011 A 
HETATM   15  C   UNL     1      42.074 -10.037  12.745  1.00  0.00     0.024 A 
HETATM   16  C   UNL     1      41.700  -8.699  12.651  1.00  0.00     0.034 A 
HETATM   17 CL   UNL     1      40.326  -8.131  13.516  1.00  0.00    -0.084 Cl
HETATM   18  C   UNL     1      42.431  -7.816  11.858  1.00  0.00     0.024 A 
HETATM   19  C   UNL     1      43.547  -8.276  11.156  1.00  0.00     0.011 A 
ENDBRANCH  12  13
ENDBRANCH  11  12
ENDBRANCH   8  11
ENDBRANCH   2   5
BRANCH   1  20
HETATM   20  N   UNL     1      42.201 -13.384   3.367  1.00  0.00    -0.166 NA
HETATM   21  C   UNL     1      42.475 -14.630   3.151  1.00  0.00     0.157 A 
HETATM   22  C   UNL     1      43.126 -15.692   3.935  1.00  0.00     0.027 A 
HETATM   23  C   UNL     1      42.103 -15.281   1.799  1.00  0.00     0.277 A 
HETATM   24  C   UNL     1      43.613 -15.760   5.229  1.00  0.00     0.016 A 
HETATM   25  C   UNL     1      43.168 -16.816   3.102  1.00  0.00     0.048 A 
HETATM   26  C   UNL     1      44.181 -16.968   5.654  1.00  0.00     0.001 A 
HETATM   27  C   UNL     1      44.239 -18.083   4.798  1.00  0.00     0.002 A 
HETATM   28  C   UNL     1      43.721 -18.015   3.504  1.00  0.00     0.030 A 
HETATM   29  N   UNL     1      42.579 -16.569   1.869  1.00  0.00    -0.321 N 
HETATM   30  H   UNL     1      42.469 -17.228   1.114  1.00  0.00     0.169 HD
HETATM   31  O   UNL     1      41.520 -14.762   0.874  1.00  0.00    -0.266 OA
ENDBRANCH   1  20
TORSDOF 5
ENDMDL
MODEL 2
REMARK VINA RESULT:      -8.9      5.931      8.668
REMARK  5 active torsions:
REMARK  status: ('A' for Active; 'I' for Inactive)
REMARK    1  A    between atoms: N_7  and  N_8 
REMARK       I    between atoms: N_8  and  C_9 
REMARK    2  A    between atoms: C_9  and  C_10 
REMARK    3  A    between atoms: C_13  and  O_14 
REMARK    4  A    between atoms: O_14  and  C_15 
REMARK    5  A    between atoms: C_15  and  C_16 
ROOT
HETATM    1  N   UNL     1      40.870 -14.274   0.019  1.00  0.00    -0.242 N 
HETATM    2  C   UNL     1      40.427 -15.221   0.932  1.00  0.00     0.271 C 
HETATM    3  O   UNL     1      39.565 -16.070   0.729  1.00  0.00    -0.266 OA
HETATM    4  H   UNL     1      41.391 -13.477   0.350  1.00  0.00     0.192 HD
ENDROOT
BRANCH   2   5
HETATM    5  C   UNL     1      41.061 -15.159   2.277  1.00  0.00     0.033 A 
HETATM    6  C   UNL     1      42.157 -14.309   2.458  1.00  0.00     0.020 A 
HETATM    7  C   UNL     1      42.747 -14.171   3.718  1.00  0.00     0.038 A 
HETATM    8  C   UNL     1      42.227 -14.865   4.812  1.00  0.00     0.069 A 
HETATM    9  C   UNL     1      41.143 -15.730   4.625  1.00  0.00     0.038 A 
HETATM   10  C   UNL     1      40.553 -15.875   3.366  1.00  0.00     0.020 A 
BRANCH   8  11
HETATM   11  O   UNL     1      42.681 -14.781   6.099  1.00  0.00    -0.347 OA
BRANCH  11  12
HETATM   12  C   UNL     1      43.972 -15.330   6.356  1.00  0.00     0.214 C 
BRANCH  12  13
HETATM   13  C   UNL     1      43.934 -16.808   6.047  1.00  0.00    -0.034 A 
HETATM   14  C   UNL     1      43.360 -17.709   6.956  1.00  0.00     0.011 A 
HETATM   15  C   UNL     1      43.326 -19.077   6.672  1.00  0.00     0.024 A 
HETATM   16  C   UNL     1      43.871 -19.551   5.481  1.00  0.00     0.034 A 
HETATM   17 CL   UNL     1      43.830 -21.235   5.130  1.00  0.00    -0.084 Cl
HETATM   18  C   UNL     1      44.453 -18.670   4.571  1.00  0.00     0.024 A 
HETATM   19  C   UNL     1      44.486 -17.303   4.855  1.00  0.00     0.011 A 
ENDBRANCH  12  13
ENDBRANCH  11  12
ENDBRANCH   8  11
ENDBRANCH   2   5
BRANCH   1  20
HETATM   20  N   UNL     1      40.297 -14.234  -1.211  1.00  0.00    -0.166 NA
HETATM   21  C   UNL     1      39.365 -13.382  -1.493  1.00  0.00     0.157 A 
HETATM   22  C   UNL     1      38.726 -12.275  -0.763  1.00  0.00     0.027 A 
HETATM   23  C   UNL     1      38.665 -13.429  -2.872  1.00  0.00     0.277 A 
HETATM   24  C   UNL     1      38.950 -11.693   0.472  1.00  0.00     0.016 A 
HETATM   25  C   UNL     1      37.731 -11.776  -1.613  1.00  0.00     0.048 A 
HETATM   26  C   UNL     1      38.127 -10.625   0.853  1.00  0.00     0.001 A 
HETATM   27  C   UNL     1      37.115 -10.148  -0.001  1.00  0.00     0.002 A 
HETATM   28  C   UNL     1      36.913 -10.723  -1.256  1.00  0.00     0.030 A 
HETATM   29  N   UNL     1      37.701 -12.450  -2.826  1.00  0.00    -0.321 N 
HETATM   30  H   UNL     1      37.090 -12.256  -3.605  1.00  0.00     0.169 HD
HETATM   31  O   UNL     1      38.914 -14.175  -3.792  1.00  0.00    -0.266 OA
ENDBRANCH   1  20
TORSDOF 5
ENDMDL
MODEL 3
REMARK VINA RESULT:      -8.6      4.395     10.165
REMARK  5 active torsions:
REMARK  status: ('A' for Active; 'I' for Inactive)
REMARK    1  A    between atoms: N_7  and  N_8 
REMARK       I    between atoms: N_8  and  C_9 
REMARK    2  A    between atoms: C_9  and  C_10 
REMARK    3  A    between atoms: C_13  and  O_14 
REMARK    4  A    between atoms: O_14  and  C_15 
REMARK    5  A    between atoms: C_15  and  C_16 
ROOT
HETATM    1  N   UNL     1      42.827  -7.994   8.672  1.00  0.00    -0.242 N 
HETATM    2  C   UNL     1      44.036  -8.532   8.253  1.00  0.00     0.271 C 
HETATM    3  O   UNL     1      45.142  -8.022   8.402  1.00  0.00    -0.266 OA
HETATM    4  H   UNL     1      41.967  -8.358   8.291  1.00  0.00     0.192 HD
ENDROOT
BRANCH   2   5
HETATM    5  C   UNL     1      43.944  -9.836   7.543  1.00  0.00     0.033 A 
HETATM    6  C   UNL     1      45.081 -10.650   7.494  1.00  0.00     0.020 A 
HETATM    7  C   UNL     1      45.027 -11.910   6.892  1.00  0.00     0.038 A 
HETATM    8  C   UNL     1      43.825 -12.375   6.355  1.00  0.00     0.069 A 
HETATM    9  C   UNL     1      42.694 -11.552   6.385  1.00  0.00     0.038 A 
HETATM   10  C   UNL     1      42.745 -10.289   6.983  1.00  0.00     0.020 A 
BRANCH   8  11
HETATM   11  O   UNL     1      43.629 -13.602   5.783  1.00  0.00    -0.347 OA
BRANCH  11  12
HETATM   12  C   UNL     1      42.911 -13.621   4.550  1.00  0.00     0.214 C 
BRANCH  12  13
HETATM   13  C   UNL     1      43.026 -15.003   3.951  1.00  0.00    -0.034 A 
HETATM   14  C   UNL     1      43.132 -16.130   4.779  1.00  0.00     0.011 A 
HETATM   15  C   UNL     1      43.240 -17.408   4.224  1.00  0.00     0.024 A 
HETATM   16  C   UNL     1      43.247 -17.565   2.841  1.00  0.00     0.034 A 
HETATM   17 CL   UNL     1      43.380 -19.139   2.157  1.00  0.00    -0.084 Cl
HETATM   18  C   UNL     1      43.150 -16.455   2.004  1.00  0.00     0.024 A 
HETATM   19  C   UNL     1      43.042 -15.177   2.558  1.00  0.00     0.011 A 
ENDBRANCH  12  13
ENDBRANCH  11  12
ENDBRANCH   8  11
ENDBRANCH   2   5
BRANCH   1  20
HETATM   20  N   UNL     1      42.827  -6.780   9.278  1.00  0.00    -0.166 NA
HETATM   21  C   UNL     1      42.681  -6.665  10.560  1.00  0.00     0.157 A 
HETATM   22  C   UNL     1      42.559  -7.621  11.672  1.00  0.00     0.027 A 
HETATM   23  C   UNL     1      42.586  -5.263  11.205  1.00  0.00     0.277 A 
HETATM   24  C   UNL     1      42.636  -9.001  11.756  1.00  0.00     0.016 A 
HETATM   25  C   UNL     1      42.363  -6.850  12.823  1.00  0.00     0.048 A 
HETATM   26  C   UNL     1      42.470  -9.591  13.015  1.00  0.00     0.001 A 
HETATM   27  C   UNL     1      42.249  -8.806  14.161  1.00  0.00     0.002 A 
HETATM   28  C   UNL     1      42.200  -7.415  14.073  1.00  0.00     0.030 A 
HETATM   29  N   UNL     1      42.376  -5.491  12.545  1.00  0.00    -0.321 N 
HETATM   30  H   UNL     1      42.279  -4.740  13.212  1.00  0.00     0.169 HD
HETATM   31  O   UNL     1      42.673  -4.194  10.645  1.00  0.00    -0.266 OA
ENDBRANCH   1  20
TORSDOF 5
ENDMDL
MODEL 4
REMARK VINA RESULT:      -8.5      6.776      9.915
REMARK  5 active torsions:
REMARK  status: ('A' for Active; 'I' for Inactive)
REMARK    1  A    between atoms: N_7  and  N_8 
REMARK       I    between atoms: N_8  and  C_9 
REMARK    2  A    between atoms: C_9  and  C_10 
REMARK    3  A    between atoms: C_13  and  O_14 
REMARK    4  A    between atoms: O_14  and  C_15 
REMARK    5  A    between atoms: C_15  and  C_16 
ROOT
HETATM    1  N   UNL     1      42.501 -14.801   3.122  1.00  0.00    -0.242 N 
HETATM    2  C   UNL     1      41.117 -14.705   3.150  1.00  0.00     0.271 C 
HETATM    3  O   UNL     1      40.401 -14.898   4.127  1.00  0.00    -0.266 OA
HETATM    4  H   UNL     1      42.973 -14.868   2.233  1.00  0.00     0.192 HD
ENDROOT
BRANCH   2   5
HETATM    5  C   UNL     1      40.473 -14.357   1.855  1.00  0.00     0.033 A 
HETATM    6  C   UNL     1      40.120 -13.023   1.624  1.00  0.00     0.020 A 
HETATM    7  C   UNL     1      39.570 -12.637   0.398  1.00  0.00     0.038 A 
HETATM    8  C   UNL     1      39.392 -13.580  -0.615  1.00  0.00     0.069 A 
HETATM    9  C   UNL     1      39.727 -14.917  -0.376  1.00  0.00     0.038 A 
HETATM   10  C   UNL     1      40.273 -15.309   0.850  1.00  0.00     0.020 A 
BRANCH   8  11
HETATM   11  O   UNL     1      38.909 -13.323  -1.869  1.00  0.00    -0.347 OA
BRANCH  11  12
HETATM   12  C   UNL     1      39.869 -12.941  -2.853  1.00  0.00     0.214 C 
BRANCH  12  13
HETATM   13  C   UNL     1      39.746 -11.454  -3.090  1.00  0.00    -0.034 A 
HETATM   14  C   UNL     1      40.885 -10.682  -3.360  1.00  0.00     0.011 A 
HETATM   15  C   UNL     1      40.772  -9.306  -3.577  1.00  0.00     0.024 A 
HETATM   16  C   UNL     1      39.521  -8.696  -3.520  1.00  0.00     0.034 A 
HETATM   17 CL   UNL     1      39.380  -7.002  -3.788  1.00  0.00    -0.084 Cl
HETATM   18  C   UNL     1      38.381  -9.449  -3.246  1.00  0.00     0.024 A 
HETATM   19  C   UNL     1      38.494 -10.824  -3.029  1.00  0.00     0.011 A 
ENDBRANCH  12  13
ENDBRANCH  11  12
ENDBRANCH   8  11
ENDBRANCH   2   5
BRANCH   1  20
HETATM   20  N   UNL     1      43.154 -15.170   4.253  1.00  0.00    -0.166 NA
HETATM   21  C   UNL     1      43.512 -16.397   4.457  1.00  0.00     0.157 A 
HETATM   22  C   UNL     1      43.439 -17.635   3.665  1.00  0.00     0.027 A 
HETATM   23  C   UNL     1      44.165 -16.800   5.799  1.00  0.00     0.277 A 
HETATM   24  C   UNL     1      43.029 -17.918   2.374  1.00  0.00     0.016 A 
HETATM   25  C   UNL     1      43.948 -18.648   4.486  1.00  0.00     0.048 A 
HETATM   26  C   UNL     1      43.103 -19.248   1.939  1.00  0.00     0.001 A 
HETATM   27  C   UNL     1      43.594 -20.261   2.782  1.00  0.00     0.002 A 
HETATM   28  C   UNL     1      44.031 -19.963   4.073  1.00  0.00     0.030 A 
HETATM   29  N   UNL     1      44.362 -18.159   5.717  1.00  0.00    -0.321 N 
HETATM   30  H   UNL     1      44.782 -18.690   6.464  1.00  0.00     0.169 HD
HETATM   31  O   UNL     1      44.439 -16.072   6.726  1.00  0.00    -0.266 OA
ENDBRANCH   1  20
TORSDOF 5
ENDMDL
MODEL 5
REMARK VINA RESULT:      -8.3      4.757     10.043
REMARK  5 active torsions:
REMARK  status: ('A' for Active; 'I' for Inactive)
REMARK    1  A    between atoms: N_7  and  N_8 
REMARK       I    between atoms: N_8  and  C_9 
REMARK    2  A    between atoms: C_9  and  C_10 
REMARK    3  A    between atoms: C_13  and  O_14 
REMARK    4  A    between atoms: O_14  and  C_15 
REMARK    5  A    between atoms: C_15  and  C_16 
ROOT
HETATM    1  N   UNL     1      39.761 -10.220   8.446  1.00  0.00    -0.242 N 
HETATM    2  C   UNL     1      40.088  -9.895   7.137  1.00  0.00     0.271 C 
HETATM    3  O   UNL     1      39.972  -8.788   6.620  1.00  0.00    -0.266 OA
HETATM    4  H   UNL     1      39.657 -11.190   8.701  1.00  0.00     0.192 HD
ENDROOT
BRANCH   2   5
HETATM    5  C   UNL     1      40.602 -11.017   6.307  1.00  0.00     0.033 A 
HETATM    6  C   UNL     1      41.888 -10.912   5.767  1.00  0.00     0.020 A 
HETATM    7  C   UNL     1      42.437 -11.967   5.033  1.00  0.00     0.038 A 
HETATM    8  C   UNL     1      41.711 -13.146   4.854  1.00  0.00     0.069 A 
HETATM    9  C   UNL     1      40.417 -13.242   5.377  1.00  0.00     0.038 A 
HETATM   10  C   UNL     1      39.862 -12.187   6.109  1.00  0.00     0.020 A 
BRANCH   8  11
HETATM   11  O   UNL     1      42.151 -14.263   4.199  1.00  0.00    -0.347 OA
BRANCH  11  12
HETATM   12  C   UNL     1      42.884 -15.208   4.977  1.00  0.00     0.214 C 
BRANCH  12  13
HETATM   13  C   UNL     1      43.050 -16.471   4.165  1.00  0.00    -0.034 A 
HETATM   14  C   UNL     1      42.293 -16.672   3.001  1.00  0.00     0.011 A 
HETATM   15  C   UNL     1      42.445 -17.841   2.251  1.00  0.00     0.024 A 
HETATM   16  C   UNL     1      43.350 -18.816   2.663  1.00  0.00     0.034 A 
HETATM   17 CL   UNL     1      43.538 -20.256   1.739  1.00  0.00    -0.084 Cl
HETATM   18  C   UNL     1      44.104 -18.635   3.820  1.00  0.00     0.024 A 
HETATM   19  C   UNL     1      43.953 -17.466   4.571  1.00  0.00     0.011 A 
ENDBRANCH  12  13
ENDBRANCH  11  12
ENDBRANCH   8  11
ENDBRANCH   2   5
BRANCH   1  20
HETATM   20  N   UNL     1      39.233  -9.260   9.247  1.00  0.00    -0.166 NA
HETATM   21  C   UNL     1      39.925  -8.721  10.200  1.00  0.00     0.157 A 
HETATM   22  C   UNL     1      41.316  -8.849  10.661  1.00  0.00     0.027 A 
HETATM   23  C   UNL     1      39.262  -7.701  11.155  1.00  0.00     0.277 A 
HETATM   24  C   UNL     1      42.418  -9.541  10.189  1.00  0.00     0.016 A 
HETATM   25  C   UNL     1      41.424  -8.030  11.792  1.00  0.00     0.048 A 
HETATM   26  C   UNL     1      43.619  -9.425  10.900  1.00  0.00     0.001 A 
HETATM   27  C   UNL     1      43.708  -8.619  12.049  1.00  0.00     0.002 A 
HETATM   28  C   UNL     1      42.600  -7.902  12.503  1.00  0.00     0.030 A 
HETATM   29  N   UNL     1      40.233  -7.375  12.072  1.00  0.00    -0.321 N 
HETATM   30  H   UNL     1      40.072  -6.717  12.819  1.00  0.00     0.169 HD
HETATM   31  O   UNL     1      38.127  -7.286  11.106  1.00  0.00    -0.266 OA
ENDBRANCH   1  20
TORSDOF 5
ENDMDL
MODEL 6
REMARK VINA RESULT:      -8.2      6.376     10.522
REMARK  5 active torsions:
REMARK  status: ('A' for Active; 'I' for Inactive)
REMARK    1  A    between atoms: N_7  and  N_8 
REMARK       I    between atoms: N_8  and  C_9 
REMARK    2  A    between atoms: C_9  and  C_10 
REMARK    3  A    between atoms: C_13  and  O_14 
REMARK    4  A    between atoms: O_14  and  C_15 
REMARK    5  A    between atoms: C_15  and  C_16 
ROOT
HETATM    1  N   UNL     1      41.363 -14.280   3.182  1.00  0.00    -0.242 N 
HETATM    2  C   UNL     1      41.608 -13.273   2.258  1.00  0.00     0.271 C 
HETATM    3  O   UNL     1      42.530 -12.464   2.302  1.00  0.00    -0.266 OA
HETATM    4  H   UNL     1      40.459 -14.726   3.196  1.00  0.00     0.192 HD
ENDROOT
BRANCH   2   5
HETATM    5  C   UNL     1      40.633 -13.180   1.139  1.00  0.00     0.033 A 
HETATM    6  C   UNL     1      40.568 -14.235   0.222  1.00  0.00     0.020 A 
HETATM    7  C   UNL     1      39.625 -14.221  -0.810  1.00  0.00     0.038 A 
HETATM    8  C   UNL     1      38.723 -13.161  -0.917  1.00  0.00     0.069 A 
HETATM    9  C   UNL     1      38.802 -12.098  -0.012  1.00  0.00     0.038 A 
HETATM   10  C   UNL     1      39.746 -12.105   1.019  1.00  0.00     0.020 A 
BRANCH   8  11
HETATM   11  O   UNL     1      37.727 -13.052  -1.848  1.00  0.00    -0.347 OA
BRANCH  11  12
HETATM   12  C   UNL     1      37.749 -11.885  -2.669  1.00  0.00     0.214 C 
BRANCH  12  13
HETATM   13  C   UNL     1      36.324 -11.477  -2.960  1.00  0.00    -0.034 A 
HETATM   14  C   UNL     1      35.813 -10.272  -2.457  1.00  0.00     0.011 A 
HETATM   15  C   UNL     1      34.494  -9.896  -2.724  1.00  0.00     0.024 A 
HETATM   16  C   UNL     1      33.679 -10.724  -3.491  1.00  0.00     0.034 A 
HETATM   17 CL   UNL     1      32.055 -10.261  -3.822  1.00  0.00    -0.084 Cl
HETATM   18  C   UNL     1      34.170 -11.929  -3.992  1.00  0.00     0.024 A 
HETATM   19  C   UNL     1      35.488 -12.305  -3.725  1.00  0.00     0.011 A 
ENDBRANCH  12  13
ENDBRANCH  11  12
ENDBRANCH   8  11
ENDBRANCH   2   5
BRANCH   1  20
HETATM   20  N   UNL     1      42.180 -14.390   4.260  1.00  0.00    -0.166 NA
HETATM   21  C   UNL     1      42.865 -15.466   4.481  1.00  0.00     0.157 A 
HETATM   22  C   UNL     1      43.059 -16.730   3.753  1.00  0.00     0.027 A 
HETATM   23  C   UNL     1      43.707 -15.596   5.772  1.00  0.00     0.277 A 
HETATM   24  C   UNL     1      42.637 -17.195   2.520  1.00  0.00     0.016 A 
HETATM   25  C   UNL     1      43.883 -17.519   4.565  1.00  0.00     0.048 A 
HETATM   26  C   UNL     1      43.025 -18.485   2.137  1.00  0.00     0.001 A 
HETATM   27  C   UNL     1      43.833 -19.278   2.972  1.00  0.00     0.002 A 
HETATM   28  C   UNL     1      44.278 -18.792   4.202  1.00  0.00     0.030 A 
HETATM   29  N   UNL     1      44.250 -16.859   5.729  1.00  0.00    -0.321 N 
HETATM   30  H   UNL     1      44.854 -17.212   6.454  1.00  0.00     0.169 HD
HETATM   31  O   UNL     1      43.852 -14.761   6.636  1.00  0.00    -0.266 OA
ENDBRANCH   1  20
TORSDOF 5
ENDMDL
MODEL 7
REMARK VINA RESULT:      -8.0      4.481      9.960
REMARK  5 active torsions:
REMARK  status: ('A' for Active; 'I' for Inactive)
REMARK    1  A    between atoms: N_7  and  N_8 
REMARK       I    between atoms: N_8  and  C_9 
REMARK    2  A    between atoms: C_9  and  C_10 
REMARK    3  A    between atoms: C_13  and  O_14 
REMARK    4  A    between atoms: O_14  and  C_15 
REMARK    5  A    between atoms: C_15  and  C_16 
ROOT
HETATM    1  N   UNL     1      42.333  -8.707   6.936  1.00  0.00    -0.242 N 
HETATM    2  C   UNL     1      41.848  -9.058   5.684  1.00  0.00     0.271 C 
HETATM    3  O   UNL     1      41.213  -8.329   4.927  1.00  0.00    -0.266 OA
HETATM    4  H   UNL     1      42.619  -9.433   7.574  1.00  0.00     0.192 HD
ENDROOT
BRANCH   2   5
HETATM    5  C   UNL     1      42.120 -10.457   5.260  1.00  0.00     0.033 A 
HETATM    6  C   UNL     1      41.929 -11.484   6.191  1.00  0.00     0.020 A 
HETATM    7  C   UNL     1      42.112 -12.820   5.821  1.00  0.00     0.038 A 
HETATM    8  C   UNL     1      42.465 -13.138   4.509  1.00  0.00     0.069 A 
HETATM    9  C   UNL     1      42.676 -12.110   3.584  1.00  0.00     0.038 A 
HETATM   10  C   UNL     1      42.498 -10.772   3.951  1.00  0.00     0.020 A 
BRANCH   8  11
HETATM   11  O   UNL     1      42.628 -14.402   4.011  1.00  0.00    -0.347 OA
BRANCH  11  12
HETATM   12  C   UNL     1      43.119 -15.385   4.920  1.00  0.00     0.214 C 
BRANCH  12  13
HETATM   13  C   UNL     1      43.323 -16.677   4.165  1.00  0.00    -0.034 A 
HETATM   14  C   UNL     1      42.716 -16.873   2.915  1.00  0.00     0.011 A 
HETATM   15  C   UNL     1      42.904 -18.070   2.217  1.00  0.00     0.024 A 
HETATM   16  C   UNL     1      43.693 -19.076   2.767  1.00  0.00     0.034 A 
HETATM   17 CL   UNL     1      43.924 -20.549   1.908  1.00  0.00    -0.084 Cl
HETATM   18  C   UNL     1      44.296 -18.900   4.011  1.00  0.00     0.024 A 
HETATM   19  C   UNL     1      44.109 -17.705   4.709  1.00  0.00     0.011 A 
ENDBRANCH  12  13
ENDBRANCH  11  12
ENDBRANCH   8  11
ENDBRANCH   2   5
BRANCH   1  20
HETATM   20  N   UNL     1      42.074  -7.463   7.413  1.00  0.00    -0.166 NA
HETATM   21  C   UNL     1      42.193  -7.184   8.671  1.00  0.00     0.157 A 
HETATM   22  C   UNL     1      42.644  -7.935   9.854  1.00  0.00     0.027 A 
HETATM   23  C   UNL     1      41.795  -5.784   9.195  1.00  0.00     0.277 A 
HETATM   24  C   UNL     1      43.183  -9.197  10.033  1.00  0.00     0.016 A 
HETATM   25  C   UNL     1      42.473  -7.075  10.945  1.00  0.00     0.048 A 
HETATM   26  C   UNL     1      43.508  -9.592  11.337  1.00  0.00     0.001 A 
HETATM   27  C   UNL     1      43.309  -8.727  12.429  1.00  0.00     0.002 A 
HETATM   28  C   UNL     1      42.791  -7.446  12.236  1.00  0.00     0.030 A 
HETATM   29  N   UNL     1      41.980  -5.837  10.556  1.00  0.00    -0.321 N 
HETATM   30  H   UNL     1      41.797  -5.048  11.157  1.00  0.00     0.169 HD
HETATM   31  O   UNL     1      41.400  -4.845   8.541  1.00  0.00    -0.266 OA
ENDBRANCH   1  20
TORSDOF 5
ENDMDL
MODEL 8
REMARK VINA RESULT:      -7.9      7.952     14.020
REMARK  5 active torsions:
REMARK  status: ('A' for Active; 'I' for Inactive)
REMARK    1  A    between atoms: N_7  and  N_8 
REMARK       I    between atoms: N_8  and  C_9 
REMARK    2  A    between atoms: C_9  and  C_10 
REMARK    3  A    between atoms: C_13  and  O_14 
REMARK    4  A    between atoms: O_14  and  C_15 
REMARK    5  A    between atoms: C_15  and  C_16 
ROOT
HETATM    1  N   UNL     1      42.395  -5.902  17.494  1.00  0.00    -0.242 N 
HETATM    2  C   UNL     1      41.586  -5.888  16.366  1.00  0.00     0.271 C 
HETATM    3  O   UNL     1      40.668  -5.104  16.147  1.00  0.00    -0.266 OA
HETATM    4  H   UNL     1      42.946  -6.722  17.694  1.00  0.00     0.192 HD
ENDROOT
BRANCH   2   5
HETATM    5  C   UNL     1      41.870  -6.948  15.361  1.00  0.00     0.033 A 
HETATM    6  C   UNL     1      40.994  -8.036  15.274  1.00  0.00     0.020 A 
HETATM    7  C   UNL     1      41.185  -9.024  14.304  1.00  0.00     0.038 A 
HETATM    8  C   UNL     1      42.241  -8.917  13.398  1.00  0.00     0.069 A 
HETATM    9  C   UNL     1      43.127  -7.840  13.498  1.00  0.00     0.038 A 
HETATM   10  C   UNL     1      42.943  -6.851  14.470  1.00  0.00     0.020 A 
BRANCH   8  11
HETATM   11  O   UNL     1      42.507  -9.788  12.377  1.00  0.00    -0.347 OA
BRANCH  11  12
HETATM   12  C   UNL     1      42.159  -9.354  11.064  1.00  0.00     0.214 C 
BRANCH  12  13
HETATM   13  C   UNL     1      43.296  -9.695  10.129  1.00  0.00    -0.034 A 
HETATM   14  C   UNL     1      44.614  -9.751  10.605  1.00  0.00     0.011 A 
HETATM   15  C   UNL     1      45.666 -10.064   9.740  1.00  0.00     0.024 A 
HETATM   16  C   UNL     1      45.406 -10.318   8.395  1.00  0.00     0.034 A 
HETATM   17 CL   UNL     1      46.700 -10.704   7.330  1.00  0.00    -0.084 Cl
HETATM   18  C   UNL     1      44.102 -10.259   7.906  1.00  0.00     0.024 A 
HETATM   19  C   UNL     1      43.051  -9.946   8.770  1.00  0.00     0.011 A 
ENDBRANCH  12  13
ENDBRANCH  11  12
ENDBRANCH   8  11
ENDBRANCH   2   5
BRANCH   1  20
HETATM   20  N   UNL     1      42.158  -4.999  18.479  1.00  0.00    -0.166 NA
HETATM   21  C   UNL     1      41.468  -5.311  19.529  1.00  0.00     0.157 A 
HETATM   22  C   UNL     1      40.848  -6.552  20.022  1.00  0.00     0.027 A 
HETATM   23  C   UNL     1      41.134  -4.232  20.585  1.00  0.00     0.277 A 
HETATM   24  C   UNL     1      40.846  -7.861  19.572  1.00  0.00     0.016 A 
HETATM   25  C   UNL     1      40.185  -6.207  21.206  1.00  0.00     0.048 A 
HETATM   26  C   UNL     1      40.130  -8.808  20.315  1.00  0.00     0.001 A 
HETATM   27  C   UNL     1      39.448  -8.444  21.491  1.00  0.00     0.002 A 
HETATM   28  C   UNL     1      39.477  -7.128  21.952  1.00  0.00     0.030 A 
HETATM   29  N   UNL     1      40.353  -4.866  21.522  1.00  0.00    -0.321 N 
HETATM   30  H   UNL     1      39.991  -4.391  22.335  1.00  0.00     0.169 HD
HETATM   31  O   UNL     1      41.484  -3.074  20.581  1.00  0.00    -0.266 OA
ENDBRANCH   1  20
TORSDOF 5
ENDMDL
MODEL 9
REMARK VINA RESULT:      -7.9      4.381      7.466
REMARK  5 active torsions:
REMARK  status: ('A' for Active; 'I' for Inactive)
REMARK    1  A    between atoms: N_7  and  N_8 
REMARK       I    between atoms: N_8  and  C_9 
REMARK    2  A    between atoms: C_9  and  C_10 
REMARK    3  A    between atoms: C_13  and  O_14 
REMARK    4  A    between atoms: O_14  and  C_15 
REMARK    5  A    between atoms: C_15  and  C_16 
ROOT
HETATM    1  N   UNL     1      44.365  -9.233  10.131  1.00  0.00    -0.242 N 
HETATM    2  C   UNL     1      43.845  -9.981  11.178  1.00  0.00     0.271 C 
HETATM    3  O   UNL     1      43.902 -11.202  11.289  1.00  0.00    -0.266 OA
HETATM    4  H   UNL     1      44.056  -8.281  10.005  1.00  0.00     0.192 HD
ENDROOT
BRANCH   2   5
HETATM    5  C   UNL     1      43.142  -9.204  12.234  1.00  0.00     0.033 A 
HETATM    6  C   UNL     1      42.246  -9.877  13.071  1.00  0.00     0.020 A 
HETATM    7  C   UNL     1      41.609  -9.202  14.117  1.00  0.00     0.038 A 
HETATM    8  C   UNL     1      41.883  -7.853  14.346  1.00  0.00     0.069 A 
HETATM    9  C   UNL     1      42.763  -7.176  13.495  1.00  0.00     0.038 A 
HETATM   10  C   UNL     1      43.400  -7.846  12.446  1.00  0.00     0.020 A 
BRANCH   8  11
HETATM   11  O   UNL     1      41.364  -7.094  15.359  1.00  0.00    -0.347 OA
BRANCH  11  12
HETATM   12  C   UNL     1      42.235  -6.811  16.452  1.00  0.00     0.214 C 
BRANCH  12  13
HETATM   13  C   UNL     1      41.499  -7.099  17.739  1.00  0.00    -0.034 A 
HETATM   14  C   UNL     1      40.322  -7.863  17.729  1.00  0.00     0.011 A 
HETATM   15  C   UNL     1      39.640  -8.128  18.919  1.00  0.00     0.024 A 
HETATM   16  C   UNL     1      40.127  -7.626  20.123  1.00  0.00     0.034 A 
HETATM   17 CL   UNL     1      39.287  -7.952  21.589  1.00  0.00    -0.084 Cl
HETATM   18  C   UNL     1      41.290  -6.859  20.149  1.00  0.00     0.024 A 
HETATM   19  C   UNL     1      41.972  -6.594  18.960  1.00  0.00     0.011 A 
ENDBRANCH  12  13
ENDBRANCH  11  12
ENDBRANCH   8  11
ENDBRANCH   2   5
BRANCH   1  20
HETATM   20  N   UNL     1      44.971  -9.879   9.103  1.00  0.00    -0.166 NA
HETATM   21  C   UNL     1      44.311 -10.245   8.052  1.00  0.00     0.157 A 
HETATM   22  C   UNL     1      42.921 -10.074   7.598  1.00  0.00     0.027 A 
HETATM   23  C   UNL     1      45.012 -11.066   6.945  1.00  0.00     0.277 A 
HETATM   24  C   UNL     1      41.832  -9.386   8.102  1.00  0.00     0.016 A 
HETATM   25  C   UNL     1      42.824 -10.768   6.386  1.00  0.00     0.048 A 
HETATM   26  C   UNL     1      40.631  -9.443   7.384  1.00  0.00     0.001 A 
HETATM   27  C   UNL     1      40.539 -10.164   6.179  1.00  0.00     0.002 A 
HETATM   28  C   UNL     1      41.650 -10.832   5.663  1.00  0.00     0.030 A 
HETATM   29  N   UNL     1      44.034 -11.340   6.018  1.00  0.00    -0.321 N 
HETATM   30  H   UNL     1      44.217 -11.867   5.178  1.00  0.00     0.169 HD
HETATM   31  O   UNL     1      46.175 -11.399   6.908  1.00  0.00    -0.266 OA
ENDBRANCH   1  20
TORSDOF 5
ENDMDL
MODEL 10
REMARK VINA RESULT:      -7.9     18.211     20.375
REMARK  5 active torsions:
REMARK  status: ('A' for Active; 'I' for Inactive)
REMARK    1  A    between atoms: N_7  and  N_8 
REMARK       I    between atoms: N_8  and  C_9 
REMARK    2  A    between atoms: C_9  and  C_10 
REMARK    3  A    between atoms: C_13  and  O_14 
REMARK    4  A    between atoms: O_14  and  C_15 
REMARK    5  A    between atoms: C_15  and  C_16 
ROOT
HETATM    1  N   UNL     1      43.630 -30.151   1.484  1.00  0.00    -0.242 N 
HETATM    2  C   UNL     1      42.336 -29.687   1.673  1.00  0.00     0.271 C 
HETATM    3  O   UNL     1      41.841 -28.696   1.143  1.00  0.00    -0.266 OA
HETATM    4  H   UNL     1      44.016 -30.813   2.139  1.00  0.00     0.192 HD
ENDROOT
BRANCH   2   5
HETATM    5  C   UNL     1      41.507 -30.470   2.627  1.00  0.00     0.033 A 
HETATM    6  C   UNL     1      40.701 -31.497   2.124  1.00  0.00     0.020 A 
HETATM    7  C   UNL     1      39.953 -32.301   2.989  1.00  0.00     0.038 A 
HETATM    8  C   UNL     1      40.025 -32.097   4.368  1.00  0.00     0.069 A 
HETATM    9  C   UNL     1      40.814 -31.057   4.869  1.00  0.00     0.038 A 
HETATM   10  C   UNL     1      41.561 -30.248   4.007  1.00  0.00     0.020 A 
BRANCH   8  11
HETATM   11  O   UNL     1      39.382 -32.841   5.319  1.00  0.00    -0.347 OA
BRANCH  11  12
HETATM   12  C   UNL     1      38.184 -33.500   4.908  1.00  0.00     0.214 C 
BRANCH  12  13
HETATM   13  C   UNL     1      37.503 -34.063   6.133  1.00  0.00    -0.034 A 
HETATM   14  C   UNL     1      36.121 -34.304   6.130  1.00  0.00     0.011 A 
HETATM   15  C   UNL     1      35.491 -34.823   7.265  1.00  0.00     0.024 A 
HETATM   16  C   UNL     1      36.238 -35.097   8.408  1.00  0.00     0.034 A 
HETATM   17 CL   UNL     1      35.462 -35.736   9.804  1.00  0.00    -0.084 Cl
HETATM   18  C   UNL     1      37.610 -34.856   8.429  1.00  0.00     0.024 A 
HETATM   19  C   UNL     1      38.240 -34.338   7.296  1.00  0.00     0.011 A 
ENDBRANCH  12  13
ENDBRANCH  11  12
ENDBRANCH   8  11
ENDBRANCH   2   5
BRANCH   1  20
HETATM   20  N   UNL     1      44.462 -29.455   0.669  1.00  0.00    -0.166 NA
HETATM   21  C   UNL     1      45.658 -29.131   1.044  1.00  0.00     0.157 A 
HETATM   22  C   UNL     1      46.471 -29.402   2.241  1.00  0.00     0.027 A 
HETATM   23  C   UNL     1      46.545 -28.253   0.130  1.00  0.00     0.277 A 
HETATM   24  C   UNL     1      46.273 -30.172   3.373  1.00  0.00     0.016 A 
HETATM   25  C   UNL     1      47.673 -28.709   2.055  1.00  0.00     0.048 A 
HETATM   26  C   UNL     1      47.291 -30.199   4.334  1.00  0.00     0.001 A 
HETATM   27  C   UNL     1      48.485 -29.479   4.147  1.00  0.00     0.002 A 
HETATM   28  C   UNL     1      48.689 -28.727   2.990  1.00  0.00     0.030 A 
HETATM   29  N   UNL     1      47.706 -28.046   0.836  1.00  0.00    -0.321 N 
HETATM   30  H   UNL     1      48.472 -27.502   0.470  1.00  0.00     0.169 HD
HETATM   31  O   UNL     1      46.268 -27.835  -0.971  1.00  0.00    -0.266 OA
ENDBRANCH   1  20
TORSDOF 5
ENDMDL
