MODEL 1
REMARK VINA RESULT:      -8.5      0.000      0.000
REMARK  7 active torsions:
REMARK  status: ('A' for Active; 'I' for Inactive)
REMARK    1  A    between atoms: CG_4  and  CB_5 
REMARK    2  A    between atoms: CB_5  and  CA_6 
REMARK    3  A    between atoms: CA_6  and  N_7 
REMARK    4  A    between atoms: CA_6  and  C_8 
REMARK       I    between atoms: N_7  and  C_14 
REMARK    5  A    between atoms: C_8  and  O_9 
REMARK       I    between atoms: C_14  and  N_15 
REMARK    6  A    between atoms: N_15  and  C_16 
REMARK    7  A    between atoms: C_22  and  C_23 
ROOT
ATOM      1  N   PHE A   1      41.791 -15.398   1.756  1.00  0.00    -0.336 N 
ATOM      2  H   PHE A   1      42.517 -14.714   1.618  1.00  0.00     0.164 HD
HETATM    3  C   UNK A   0      40.589 -15.214   1.111  1.00  0.00     0.321 C 
HETATM    4  N   UNK A   0      40.708 -14.324   0.072  1.00  0.00    -0.309 N 
HETATM    5  O   UNK A   0      39.580 -15.803   1.475  1.00  0.00    -0.247 OA
HETATM    6  H   UNK A   0      41.634 -13.966  -0.098  1.00  0.00     0.170 HD
ENDROOT
BRANCH   1   7
ATOM      7  CA  PHE A   1      41.957 -16.362   2.854  1.00  0.00     0.113 C 
BRANCH   7   8
ATOM      8  CB  PHE A   1      43.432 -16.803   2.969  1.00  0.00     0.065 C 
BRANCH   8   9
ATOM      9  CG  PHE A   1      43.612 -18.281   3.241  1.00  0.00    -0.056 A 
ATOM     10  CD1 PHE A   1      44.037 -18.725   4.500  1.00  0.00     0.007 A 
ATOM     11  CE1 PHE A   1      44.204 -20.089   4.751  1.00  0.00     0.001 A 
ATOM     12  CZ  PHE A   1      43.944 -21.021   3.748  1.00  0.00     0.000 A 
ATOM     13  CE2 PHE A   1      43.511 -20.593   2.496  1.00  0.00     0.001 A 
ATOM     14  CD2 PHE A   1      43.341 -19.230   2.244  1.00  0.00     0.007 A 
ENDBRANCH   8   9
ENDBRANCH   7   8
BRANCH   7  15
ATOM     15  C   PHE A   1      41.481 -15.769   4.197  1.00  0.00     0.189 C 
BRANCH  15  16
ATOM     16  O   PHE A   1      40.130 -16.107   4.497  1.00  0.00    -0.399 OA
ATOM     17  H   PHE A   1      39.966 -17.024   4.186  1.00  0.00     0.209 HD
ENDBRANCH  15  16
ENDBRANCH   7  15
ENDBRANCH   1   7
BRANCH   4  18
HETATM   18  C   UNK A   0      39.708 -13.924  -0.841  1.00  0.00     0.038 A 
HETATM   19  C   UNK A   0      39.014 -12.712  -0.751  1.00  0.00     0.063 A 
HETATM   20  C   UNK A   0      38.011 -12.427  -1.692  1.00  0.00     0.087 A 
HETATM   21  C   UNK A   0      37.738 -13.343  -2.701  1.00  0.00     0.063 A 
HETATM   22  N   UNK A   0      37.187 -11.331  -1.796  1.00  0.00    -0.228 NA
HETATM   23  N   UNK A   0      36.726 -12.766  -3.422  1.00  0.00    -0.338 N 
HETATM   24  C   UNK A   0      38.416 -14.553  -2.835  1.00  0.00     0.034 A 
HETATM   25  H   UNK A   0      36.271 -13.157  -4.235  1.00  0.00     0.167 HD
HETATM   26  C   UNK A   0      36.414 -11.561  -2.842  1.00  0.00     0.170 A 
HETATM   27  C   UNK A   0      39.404 -14.823  -1.878  1.00  0.00     0.032 A 
BRANCH  26  28
HETATM   28  C   UNK A   0      35.330 -10.707  -3.390  1.00  0.00     0.422 C 
HETATM   29  F   UNK A   0      34.461 -11.452  -4.128  1.00  0.00    -0.206 F 
HETATM   30  F   UNK A   0      34.584 -10.173  -2.381  1.00  0.00    -0.206 F 
ENDBRANCH  26  28
ENDBRANCH   4  18
TORSDOF 7
ENDMDL
MODEL 2
REMARK VINA RESULT:      -8.5      2.276      3.478
REMARK  7 active torsions:
REMARK  status: ('A' for Active; 'I' for Inactive)
REMARK    1  A    between atoms: CG_4  and  CB_5 
REMARK    2  A    between atoms: CB_5  and  CA_6 
REMARK    3  A    between atoms: CA_6  and  N_7 
REMARK    4  A    between atoms: CA_6  and  C_8 
REMARK       I    between atoms: N_7  and  C_14 
REMARK    5  A    between atoms: C_8  and  O_9 
REMARK       I    between atoms: C_14  and  N_15 
REMARK    6  A    between atoms: N_15  and  C_16 
REMARK    7  A    between atoms: C_22  and  C_23 
ROOT
ATOM      1  N   PHE A   1      42.730 -15.428   5.006  1.00  0.00    -0.336 N 
ATOM      2  H   PHE A   1      43.213 -14.571   5.228  1.00  0.00     0.164 HD
HETATM    3  C   UNK A   0      41.692 -15.378   4.105  1.00  0.00     0.321 C 
HETATM    4  N   UNK A   0      41.730 -14.225   3.358  1.00  0.00    -0.309 N 
HETATM    5  O   UNK A   0      40.872 -16.283   4.035  1.00  0.00    -0.247 OA
HETATM    6  H   UNK A   0      42.507 -13.610   3.536  1.00  0.00     0.170 HD
ENDROOT
BRANCH   1   7
ATOM      7  CA  PHE A   1      42.968 -16.592   5.871  1.00  0.00     0.113 C 
BRANCH   7   8
ATOM      8  CB  PHE A   1      44.277 -17.306   5.473  1.00  0.00     0.065 C 
BRANCH   8   9
ATOM      9  CG  PHE A   1      44.073 -18.520   4.593  1.00  0.00    -0.056 A 
ATOM     10  CD1 PHE A   1      43.840 -18.371   3.219  1.00  0.00     0.007 A 
ATOM     11  CE1 PHE A   1      43.651 -19.491   2.407  1.00  0.00     0.001 A 
ATOM     12  CZ  PHE A   1      43.698 -20.770   2.958  1.00  0.00     0.000 A 
ATOM     13  CE2 PHE A   1      43.939 -20.931   4.320  1.00  0.00     0.001 A 
ATOM     14  CD2 PHE A   1      44.131 -19.812   5.133  1.00  0.00     0.007 A 
ENDBRANCH   8   9
ENDBRANCH   7   8
BRANCH   7  15
ATOM     15  C   PHE A   1      43.026 -16.182   7.359  1.00  0.00     0.189 C 
BRANCH  15  16
ATOM     16  O   PHE A   1      43.789 -17.091   8.148  1.00  0.00    -0.399 OA
ATOM     17  H   PHE A   1      43.671 -17.993   7.778  1.00  0.00     0.209 HD
ENDBRANCH  15  16
ENDBRANCH   7  15
ENDBRANCH   1   7
BRANCH   4  18
HETATM   18  C   UNK A   0      40.863 -13.847   2.309  1.00  0.00     0.038 A 
HETATM   19  C   UNK A   0      40.771 -14.534   1.092  1.00  0.00     0.063 A 
HETATM   20  C   UNK A   0      39.901 -14.052   0.100  1.00  0.00     0.087 A 
HETATM   21  C   UNK A   0      39.141 -12.916   0.350  1.00  0.00     0.063 A 
HETATM   22  N   UNK A   0      39.658 -14.532  -1.165  1.00  0.00    -0.228 NA
HETATM   23  N   UNK A   0      38.426 -12.724  -0.804  1.00  0.00    -0.338 N 
HETATM   24  C   UNK A   0      39.192 -12.213   1.551  1.00  0.00     0.034 A 
HETATM   25  H   UNK A   0      37.764 -11.981  -0.982  1.00  0.00     0.167 HD
HETATM   26  C   UNK A   0      38.770 -13.710  -1.696  1.00  0.00     0.170 A 
HETATM   27  C   UNK A   0      40.075 -12.703   2.523  1.00  0.00     0.032 A 
BRANCH  26  28
HETATM   28  C   UNK A   0      38.173 -13.754  -3.054  1.00  0.00     0.422 C 
HETATM   29  F   UNK A   0      38.292 -15.000  -3.590  1.00  0.00    -0.206 F 
HETATM   30  F   UNK A   0      36.833 -13.509  -2.997  1.00  0.00    -0.206 F 
ENDBRANCH  26  28
ENDBRANCH   4  18
TORSDOF 7
ENDMDL
MODEL 3
REMARK VINA RESULT:      -8.1      5.016     10.081
REMARK  7 active torsions:
REMARK  status: ('A' for Active; 'I' for Inactive)
REMARK    1  A    between atoms: CG_4  and  CB_5 
REMARK    2  A    between atoms: CB_5  and  CA_6 
REMARK    3  A    between atoms: CA_6  and  N_7 
REMARK    4  A    between atoms: CA_6  and  C_8 
REMARK       I    between atoms: N_7  and  C_14 
REMARK    5  A    between atoms: C_8  and  O_9 
REMARK       I    between atoms: C_14  and  N_15 
REMARK    6  A    between atoms: N_15  and  C_16 
REMARK    7  A    between atoms: C_22  and  C_23 
ROOT
ATOM      1  N   PHE A   1      41.071 -13.346  -0.514  1.00  0.00    -0.336 N 
ATOM      2  H   PHE A   1      41.928 -12.875  -0.758  1.00  0.00     0.164 HD
HETATM    3  C   UNK A   0      41.132 -14.392   0.378  1.00  0.00     0.321 C 
HETATM    4  N   UNK A   0      42.307 -14.377   1.090  1.00  0.00    -0.309 N 
HETATM    5  O   UNK A   0      40.216 -15.199   0.469  1.00  0.00    -0.247 OA
HETATM    6  H   UNK A   0      42.928 -13.608   0.899  1.00  0.00     0.170 HD
ENDROOT
BRANCH   1   7
ATOM      7  CA  PHE A   1      39.885 -13.084  -1.342  1.00  0.00     0.113 C 
BRANCH   7   8
ATOM      8  CB  PHE A   1      39.648 -11.565  -1.485  1.00  0.00     0.065 C 
BRANCH   8   9
ATOM      9  CG  PHE A   1      38.407 -11.067  -0.777  1.00  0.00    -0.056 A 
ATOM     10  CD1 PHE A   1      37.544 -10.160  -1.408  1.00  0.00     0.007 A 
ATOM     11  CE1 PHE A   1      36.398  -9.701  -0.754  1.00  0.00     0.001 A 
ATOM     12  CZ  PHE A   1      36.101 -10.146   0.532  1.00  0.00     0.000 A 
ATOM     13  CE2 PHE A   1      36.944 -11.055   1.165  1.00  0.00     0.001 A 
ATOM     14  CD2 PHE A   1      38.090 -11.518   0.513  1.00  0.00     0.007 A 
ENDBRANCH   8   9
ENDBRANCH   7   8
BRANCH   7  15
ATOM     15  C   PHE A   1      40.025 -13.725  -2.739  1.00  0.00     0.189 C 
BRANCH  15  16
ATOM     16  O   PHE A   1      41.303 -13.492  -3.324  1.00  0.00    -0.399 OA
ATOM     17  H   PHE A   1      41.953 -14.085  -2.888  1.00  0.00     0.209 HD
ENDBRANCH  15  16
ENDBRANCH   7  15
ENDBRANCH   1   7
BRANCH   4  18
HETATM   18  C   UNK A   0      42.703 -15.258   2.121  1.00  0.00     0.038 A 
HETATM   19  C   UNK A   0      43.052 -16.597   1.906  1.00  0.00     0.063 A 
HETATM   20  C   UNK A   0      43.397 -17.397   3.008  1.00  0.00     0.087 A 
HETATM   21  C   UNK A   0      43.400 -16.843   4.282  1.00  0.00     0.063 A 
HETATM   22  N   UNK A   0      43.748 -18.726   3.054  1.00  0.00    -0.228 NA
HETATM   23  N   UNK A   0      43.768 -17.878   5.103  1.00  0.00    -0.338 N 
HETATM   24  C   UNK A   0      43.075 -15.513   4.536  1.00  0.00     0.034 A 
HETATM   25  H   UNK A   0      43.872 -17.837   6.107  1.00  0.00     0.167 HD
HETATM   26  C   UNK A   0      43.960 -18.996   4.330  1.00  0.00     0.170 A 
HETATM   27  C   UNK A   0      42.721 -14.735   3.425  1.00  0.00     0.032 A 
BRANCH  26  28
HETATM   28  C   UNK A   0      44.345 -20.292   4.944  1.00  0.00     0.422 C 
HETATM   29  F   UNK A   0      43.824 -20.402   6.197  1.00  0.00    -0.206 F 
HETATM   30  F   UNK A   0      43.816 -21.332   4.238  1.00  0.00    -0.206 F 
ENDBRANCH  26  28
ENDBRANCH   4  18
TORSDOF 7
ENDMDL
MODEL 4
REMARK VINA RESULT:      -7.8      7.949     11.124
REMARK  7 active torsions:
REMARK  status: ('A' for Active; 'I' for Inactive)
REMARK    1  A    between atoms: CG_4  and  CB_5 
REMARK    2  A    between atoms: CB_5  and  CA_6 
REMARK    3  A    between atoms: CA_6  and  N_7 
REMARK    4  A    between atoms: CA_6  and  C_8 
REMARK       I    between atoms: N_7  and  C_14 
REMARK    5  A    between atoms: C_8  and  O_9 
REMARK       I    between atoms: C_14  and  N_15 
REMARK    6  A    between atoms: N_15  and  C_16 
REMARK    7  A    between atoms: C_22  and  C_23 
ROOT
ATOM      1  N   PHE A   1      43.992 -11.455   8.283  1.00  0.00    -0.336 N 
ATOM      2  H   PHE A   1      43.474 -11.872   9.040  1.00  0.00     0.164 HD
HETATM    3  C   UNK A   0      44.204 -12.202   7.148  1.00  0.00     0.321 C 
HETATM    4  N   UNK A   0      43.338 -13.266   7.077  1.00  0.00    -0.309 N 
HETATM    5  O   UNK A   0      45.076 -11.898   6.345  1.00  0.00    -0.247 OA
HETATM    6  H   UNK A   0      42.661 -13.333   7.821  1.00  0.00     0.170 HD
ENDROOT
BRANCH   1   7
ATOM      7  CA  PHE A   1      44.731 -10.214   8.560  1.00  0.00     0.113 C 
BRANCH   7   8
ATOM      8  CB  PHE A   1      44.831  -9.971  10.081  1.00  0.00     0.065 C 
BRANCH   8   9
ATOM      9  CG  PHE A   1      43.994  -8.812  10.576  1.00  0.00    -0.056 A 
ATOM     10  CD1 PHE A   1      43.577  -7.808   9.691  1.00  0.00     0.007 A 
ATOM     11  CE1 PHE A   1      42.804  -6.737  10.147  1.00  0.00     0.001 A 
ATOM     12  CZ  PHE A   1      42.438  -6.662  11.489  1.00  0.00     0.000 A 
ATOM     13  CE2 PHE A   1      42.838  -7.658  12.376  1.00  0.00     0.001 A 
ATOM     14  CD2 PHE A   1      43.608  -8.731  11.922  1.00  0.00     0.007 A 
ENDBRANCH   8   9
ENDBRANCH   7   8
BRANCH   7  15
ATOM     15  C   PHE A   1      46.144 -10.254   7.941  1.00  0.00     0.189 C 
BRANCH  15  16
ATOM     16  O   PHE A   1      46.664  -8.954   7.677  1.00  0.00    -0.399 OA
ATOM     17  H   PHE A   1      47.015  -8.587   8.519  1.00  0.00     0.209 HD
ENDBRANCH  15  16
ENDBRANCH   7  15
ENDBRANCH   1   7
BRANCH   4  18
HETATM   18  C   UNK A   0      43.224 -14.220   6.042  1.00  0.00     0.038 A 
HETATM   19  C   UNK A   0      43.756 -15.513   6.116  1.00  0.00     0.063 A 
HETATM   20  C   UNK A   0      43.616 -16.372   5.013  1.00  0.00     0.087 A 
HETATM   21  C   UNK A   0      42.942 -15.930   3.881  1.00  0.00     0.063 A 
HETATM   22  N   UNK A   0      44.067 -17.659   4.839  1.00  0.00    -0.228 NA
HETATM   23  N   UNK A   0      42.996 -16.991   3.016  1.00  0.00    -0.338 N 
HETATM   24  C   UNK A   0      42.386 -14.657   3.774  1.00  0.00     0.034 A 
HETATM   25  H   UNK A   0      42.605 -17.025   2.084  1.00  0.00     0.167 HD
HETATM   26  C   UNK A   0      43.688 -18.010   3.623  1.00  0.00     0.170 A 
HETATM   27  C   UNK A   0      42.547 -13.811   4.880  1.00  0.00     0.032 A 
BRANCH  26  28
HETATM   28  C   UNK A   0      43.932 -19.294   2.918  1.00  0.00     0.422 C 
HETATM   29  F   UNK A   0      43.949 -20.330   3.802  1.00  0.00    -0.206 F 
HETATM   30  F   UNK A   0      42.912 -19.569   2.056  1.00  0.00    -0.206 F 
ENDBRANCH  26  28
ENDBRANCH   4  18
TORSDOF 7
ENDMDL
MODEL 5
REMARK VINA RESULT:      -7.8      1.790      2.512
REMARK  7 active torsions:
REMARK  status: ('A' for Active; 'I' for Inactive)
REMARK    1  A    between atoms: CG_4  and  CB_5 
REMARK    2  A    between atoms: CB_5  and  CA_6 
REMARK    3  A    between atoms: CA_6  and  N_7 
REMARK    4  A    between atoms: CA_6  and  C_8 
REMARK       I    between atoms: N_7  and  C_14 
REMARK    5  A    between atoms: C_8  and  O_9 
REMARK       I    between atoms: C_14  and  N_15 
REMARK    6  A    between atoms: N_15  and  C_16 
REMARK    7  A    between atoms: C_22  and  C_23 
ROOT
ATOM      1  N   PHE A   1      42.476 -15.369   4.723  1.00  0.00    -0.336 N 
ATOM      2  H   PHE A   1      43.001 -14.528   4.903  1.00  0.00     0.164 HD
HETATM    3  C   UNK A   0      41.478 -15.327   3.777  1.00  0.00     0.321 C 
HETATM    4  N   UNK A   0      41.616 -14.239   2.950  1.00  0.00    -0.309 N 
HETATM    5  O   UNK A   0      40.607 -16.186   3.738  1.00  0.00    -0.247 OA
HETATM    6  H   UNK A   0      42.422 -13.658   3.116  1.00  0.00     0.170 HD
ENDROOT
BRANCH   1   7
ATOM      7  CA  PHE A   1      42.608 -16.476   5.681  1.00  0.00     0.113 C 
BRANCH   7   8
ATOM      8  CB  PHE A   1      43.968 -17.185   5.507  1.00  0.00     0.065 C 
BRANCH   8   9
ATOM      9  CG  PHE A   1      43.901 -18.449   4.678  1.00  0.00    -0.056 A 
ATOM     10  CD1 PHE A   1      43.995 -19.706   5.290  1.00  0.00     0.007 A 
ATOM     11  CE1 PHE A   1      43.933 -20.873   4.524  1.00  0.00     0.001 A 
ATOM     12  CZ  PHE A   1      43.774 -20.795   3.142  1.00  0.00     0.000 A 
ATOM     13  CE2 PHE A   1      43.669 -19.552   2.524  1.00  0.00     0.001 A 
ATOM     14  CD2 PHE A   1      43.728 -18.384   3.288  1.00  0.00     0.007 A 
ENDBRANCH   8   9
ENDBRANCH   7   8
BRANCH   7  15
ATOM     15  C   PHE A   1      42.459 -15.980   7.136  1.00  0.00     0.189 C 
BRANCH  15  16
ATOM     16  O   PHE A   1      42.288 -14.567   7.217  1.00  0.00    -0.399 OA
ATOM     17  H   PHE A   1      41.332 -14.380   7.342  1.00  0.00     0.209 HD
ENDBRANCH  15  16
ENDBRANCH   7  15
ENDBRANCH   1   7
BRANCH   4  18
HETATM   18  C   UNK A   0      40.815 -13.891   1.840  1.00  0.00     0.038 A 
HETATM   19  C   UNK A   0      40.126 -12.677   1.729  1.00  0.00     0.063 A 
HETATM   20  C   UNK A   0      39.327 -12.446   0.597  1.00  0.00     0.087 A 
HETATM   21  C   UNK A   0      39.249 -13.416  -0.395  1.00  0.00     0.063 A 
HETATM   22  N   UNK A   0      38.548 -11.360   0.278  1.00  0.00    -0.228 NA
HETATM   23  N   UNK A   0      38.400 -12.881  -1.329  1.00  0.00    -0.338 N 
HETATM   24  C   UNK A   0      39.931 -14.629  -0.331  1.00  0.00     0.034 A 
HETATM   25  H   UNK A   0      38.109 -13.317  -2.193  1.00  0.00     0.167 HD
HETATM   26  C   UNK A   0      37.991 -11.647  -0.886  1.00  0.00     0.170 A 
HETATM   27  C   UNK A   0      40.712 -14.845   0.813  1.00  0.00     0.032 A 
BRANCH  26  28
HETATM   28  C   UNK A   0      37.040 -10.827  -1.678  1.00  0.00     0.422 C 
HETATM   29  F   UNK A   0      36.398 -11.596  -2.601  1.00  0.00    -0.206 F 
HETATM   30  F   UNK A   0      36.058 -10.325  -0.877  1.00  0.00    -0.206 F 
ENDBRANCH  26  28
ENDBRANCH   4  18
TORSDOF 7
ENDMDL
MODEL 6
REMARK VINA RESULT:      -7.7      6.559      9.191
REMARK  7 active torsions:
REMARK  status: ('A' for Active; 'I' for Inactive)
REMARK    1  A    between atoms: CG_4  and  CB_5 
REMARK    2  A    between atoms: CB_5  and  CA_6 
REMARK    3  A    between atoms: CA_6  and  N_7 
REMARK    4  A    between atoms: CA_6  and  C_8 
REMARK       I    between atoms: N_7  and  C_14 
REMARK    5  A    between atoms: C_8  and  O_9 
REMARK       I    between atoms: C_14  and  N_15 
REMARK    6  A    between atoms: N_15  and  C_16 
REMARK    7  A    between atoms: C_22  and  C_23 
ROOT
ATOM      1  N   PHE A   1      42.402 -14.170   2.568  1.00  0.00    -0.336 N 
ATOM      2  H   PHE A   1      43.343 -14.129   2.211  1.00  0.00     0.164 HD
HETATM    3  C   UNK A   0      42.133 -13.562   3.773  1.00  0.00     0.321 C 
HETATM    4  N   UNK A   0      43.113 -12.662   4.111  1.00  0.00    -0.309 N 
HETATM    5  O   UNK A   0      41.126 -13.841   4.410  1.00  0.00    -0.247 OA
HETATM    6  H   UNK A   0      43.853 -12.542   3.438  1.00  0.00     0.170 HD
ENDROOT
BRANCH   1   7
ATOM      7  CA  PHE A   1      41.470 -15.116   1.937  1.00  0.00     0.113 C 
BRANCH   7   8
ATOM      8  CB  PHE A   1      41.131 -16.270   2.905  1.00  0.00     0.065 C 
BRANCH   8   9
ATOM      9  CG  PHE A   1      42.324 -17.116   3.296  1.00  0.00    -0.056 A 
ATOM     10  CD1 PHE A   1      42.904 -17.996   2.372  1.00  0.00     0.007 A 
ATOM     11  CE1 PHE A   1      44.004 -18.777   2.733  1.00  0.00     0.001 A 
ATOM     12  CZ  PHE A   1      44.537 -18.682   4.017  1.00  0.00     0.000 A 
ATOM     13  CE2 PHE A   1      43.977 -17.804   4.940  1.00  0.00     0.001 A 
ATOM     14  CD2 PHE A   1      42.878 -17.020   4.580  1.00  0.00     0.007 A 
ENDBRANCH   8   9
ENDBRANCH   7   8
BRANCH   7  15
ATOM     15  C   PHE A   1      40.173 -14.410   1.488  1.00  0.00     0.189 C 
BRANCH  15  16
ATOM     16  O   PHE A   1      39.085 -14.646   2.377  1.00  0.00    -0.399 OA
ATOM     17  H   PHE A   1      39.449 -14.764   3.282  1.00  0.00     0.209 HD
ENDBRANCH  15  16
ENDBRANCH   7  15
ENDBRANCH   1   7
BRANCH   4  18
HETATM   18  C   UNK A   0      43.158 -11.819   5.243  1.00  0.00     0.038 A 
HETATM   19  C   UNK A   0      43.986 -12.049   6.349  1.00  0.00     0.063 A 
HETATM   20  C   UNK A   0      43.927 -11.166   7.441  1.00  0.00     0.087 A 
HETATM   21  C   UNK A   0      43.064 -10.078   7.396  1.00  0.00     0.063 A 
HETATM   22  N   UNK A   0      44.612 -11.195   8.632  1.00  0.00    -0.228 NA
HETATM   23  N   UNK A   0      43.251  -9.445   8.597  1.00  0.00    -0.338 N 
HETATM   24  C   UNK A   0      42.237  -9.806   6.309  1.00  0.00     0.034 A 
HETATM   25  H   UNK A   0      42.780  -8.608   8.913  1.00  0.00     0.167 HD
HETATM   26  C   UNK A   0      44.182 -10.151   9.319  1.00  0.00     0.170 A 
HETATM   27  C   UNK A   0      42.301 -10.705   5.236  1.00  0.00     0.032 A 
BRANCH  26  28
HETATM   28  C   UNK A   0      44.579  -9.720  10.683  1.00  0.00     0.422 C 
HETATM   29  F   UNK A   0      45.918  -9.476  10.737  1.00  0.00    -0.206 F 
HETATM   30  F   UNK A   0      43.981  -8.537  11.004  1.00  0.00    -0.206 F 
ENDBRANCH  26  28
ENDBRANCH   4  18
TORSDOF 7
ENDMDL
MODEL 7
REMARK VINA RESULT:      -7.6     15.430     17.115
REMARK  7 active torsions:
REMARK  status: ('A' for Active; 'I' for Inactive)
REMARK    1  A    between atoms: CG_4  and  CB_5 
REMARK    2  A    between atoms: CB_5  and  CA_6 
REMARK    3  A    between atoms: CA_6  and  N_7 
REMARK    4  A    between atoms: CA_6  and  C_8 
REMARK       I    between atoms: N_7  and  C_14 
REMARK    5  A    between atoms: C_8  and  O_9 
REMARK       I    between atoms: C_14  and  N_15 
REMARK    6  A    between atoms: N_15  and  C_16 
REMARK    7  A    between atoms: C_22  and  C_23 
ROOT
ATOM      1  N   PHE A   1      45.631 -28.745   2.314  1.00  0.00    -0.336 N 
ATOM      2  H   PHE A   1      45.416 -27.922   2.854  1.00  0.00     0.164 HD
HETATM    3  C   UNK A   0      44.753 -29.803   2.358  1.00  0.00     0.321 C 
HETATM    4  N   UNK A   0      43.523 -29.416   2.832  1.00  0.00    -0.309 N 
HETATM    5  O   UNK A   0      45.096 -30.924   2.005  1.00  0.00    -0.247 OA
HETATM    6  H   UNK A   0      43.420 -28.436   3.040  1.00  0.00     0.170 HD
ENDROOT
BRANCH   1   7
ATOM      7  CA  PHE A   1      46.991 -28.871   1.769  1.00  0.00     0.113 C 
BRANCH   7   8
ATOM      8  CB  PHE A   1      47.224 -27.833   0.650  1.00  0.00     0.065 C 
BRANCH   8   9
ATOM      9  CG  PHE A   1      46.694 -28.258  -0.702  1.00  0.00    -0.056 A 
ATOM     10  CD1 PHE A   1      47.439 -29.117  -1.521  1.00  0.00     0.007 A 
ATOM     11  CE1 PHE A   1      46.949 -29.509  -2.769  1.00  0.00     0.001 A 
ATOM     12  CZ  PHE A   1      45.709 -29.049  -3.209  1.00  0.00     0.000 A 
ATOM     13  CE2 PHE A   1      44.955 -28.203  -2.400  1.00  0.00     0.001 A 
ATOM     14  CD2 PHE A   1      45.442 -27.812  -1.151  1.00  0.00     0.007 A 
ENDBRANCH   8   9
ENDBRANCH   7   8
BRANCH   7  15
ATOM     15  C   PHE A   1      48.055 -28.698   2.874  1.00  0.00     0.189 C 
BRANCH  15  16
ATOM     16  O   PHE A   1      48.596 -27.380   2.913  1.00  0.00    -0.399 OA
ATOM     17  H   PHE A   1      49.562 -27.439   2.744  1.00  0.00     0.209 HD
ENDBRANCH  15  16
ENDBRANCH   7  15
ENDBRANCH   1   7
BRANCH   4  18
HETATM   18  C   UNK A   0      42.364 -30.209   2.973  1.00  0.00     0.038 A 
HETATM   19  C   UNK A   0      41.819 -30.575   4.210  1.00  0.00     0.063 A 
HETATM   20  C   UNK A   0      40.681 -31.398   4.239  1.00  0.00     0.087 A 
HETATM   21  C   UNK A   0      40.110 -31.819   3.044  1.00  0.00     0.063 A 
HETATM   22  N   UNK A   0      39.988 -31.904   5.313  1.00  0.00    -0.228 NA
HETATM   23  N   UNK A   0      39.047 -32.594   3.428  1.00  0.00    -0.338 N 
HETATM   24  C   UNK A   0      40.612 -31.465   1.793  1.00  0.00     0.034 A 
HETATM   25  H   UNK A   0      38.401 -33.071   2.814  1.00  0.00     0.167 HD
HETATM   26  C   UNK A   0      39.010 -32.629   4.800  1.00  0.00     0.170 A 
HETATM   27  C   UNK A   0      41.755 -30.654   1.787  1.00  0.00     0.032 A 
BRANCH  26  28
HETATM   28  C   UNK A   0      37.974 -33.415   5.517  1.00  0.00     0.422 C 
HETATM   29  F   UNK A   0      38.002 -33.140   6.850  1.00  0.00    -0.206 F 
HETATM   30  F   UNK A   0      36.727 -33.058   5.098  1.00  0.00    -0.206 F 
ENDBRANCH  26  28
ENDBRANCH   4  18
TORSDOF 7
ENDMDL
MODEL 8
REMARK VINA RESULT:      -7.5      7.831     11.062
REMARK  7 active torsions:
REMARK  status: ('A' for Active; 'I' for Inactive)
REMARK    1  A    between atoms: CG_4  and  CB_5 
REMARK    2  A    between atoms: CB_5  and  CA_6 
REMARK    3  A    between atoms: CA_6  and  N_7 
REMARK    4  A    between atoms: CA_6  and  C_8 
REMARK       I    between atoms: N_7  and  C_14 
REMARK    5  A    between atoms: C_8  and  O_9 
REMARK       I    between atoms: C_14  and  N_15 
REMARK    6  A    between atoms: N_15  and  C_16 
REMARK    7  A    between atoms: C_22  and  C_23 
ROOT
ATOM      1  N   PHE A   1      43.924 -10.631   7.956  1.00  0.00    -0.336 N 
ATOM      2  H   PHE A   1      43.497 -10.917   8.822  1.00  0.00     0.164 HD
HETATM    3  C   UNK A   0      44.116 -11.580   6.978  1.00  0.00     0.321 C 
HETATM    4  N   UNK A   0      43.339 -12.691   7.196  1.00  0.00    -0.309 N 
HETATM    5  O   UNK A   0      44.901 -11.390   6.058  1.00  0.00    -0.247 OA
HETATM    6  H   UNK A   0      42.725 -12.649   7.994  1.00  0.00     0.170 HD
ENDROOT
BRANCH   1   7
ATOM      7  CA  PHE A   1      44.575  -9.313   7.914  1.00  0.00     0.113 C 
BRANCH   7   8
ATOM      8  CB  PHE A   1      43.731  -8.268   8.673  1.00  0.00     0.065 C 
BRANCH   8   9
ATOM      9  CG  PHE A   1      43.078  -8.800   9.931  1.00  0.00    -0.056 A 
ATOM     10  CD1 PHE A   1      43.837  -9.019  11.088  1.00  0.00     0.007 A 
ATOM     11  CE1 PHE A   1      43.234  -9.511  12.248  1.00  0.00     0.001 A 
ATOM     12  CZ  PHE A   1      41.868  -9.783  12.264  1.00  0.00     0.000 A 
ATOM     13  CE2 PHE A   1      41.101  -9.559  11.124  1.00  0.00     0.001 A 
ATOM     14  CD2 PHE A   1      41.701  -9.065   9.963  1.00  0.00     0.007 A 
ENDBRANCH   8   9
ENDBRANCH   7   8
BRANCH   7  15
ATOM     15  C   PHE A   1      45.998  -9.372   8.512  1.00  0.00     0.189 C 
BRANCH  15  16
ATOM     16  O   PHE A   1      46.995  -8.921   7.600  1.00  0.00    -0.399 OA
ATOM     17  H   PHE A   1      47.425  -9.709   7.200  1.00  0.00     0.209 HD
ENDBRANCH  15  16
ENDBRANCH   7  15
ENDBRANCH   1   7
BRANCH   4  18
HETATM   18  C   UNK A   0      43.231 -13.842   6.386  1.00  0.00     0.038 A 
HETATM   19  C   UNK A   0      43.918 -15.036   6.638  1.00  0.00     0.063 A 
HETATM   20  C   UNK A   0      43.766 -16.112   5.747  1.00  0.00     0.087 A 
HETATM   21  C   UNK A   0      42.929 -15.977   4.646  1.00  0.00     0.063 A 
HETATM   22  N   UNK A   0      44.346 -17.359   5.767  1.00  0.00    -0.228 NA
HETATM   23  N   UNK A   0      43.018 -17.183   4.001  1.00  0.00    -0.338 N 
HETATM   24  C   UNK A   0      42.217 -14.813   4.369  1.00  0.00     0.034 A 
HETATM   25  H   UNK A   0      42.538 -17.443   3.150  1.00  0.00     0.167 HD
HETATM   26  C   UNK A   0      43.886 -17.985   4.699  1.00  0.00     0.170 A 
HETATM   27  C   UNK A   0      42.392 -13.747   5.262  1.00  0.00     0.032 A 
BRANCH  26  28
HETATM   28  C   UNK A   0      44.206 -19.357   4.228  1.00  0.00     0.422 C 
HETATM   29  F   UNK A   0      43.698 -20.287   5.084  1.00  0.00    -0.206 F 
HETATM   30  F   UNK A   0      43.608 -19.603   3.028  1.00  0.00    -0.206 F 
ENDBRANCH  26  28
ENDBRANCH   4  18
TORSDOF 7
ENDMDL
MODEL 9
REMARK VINA RESULT:      -7.3      4.880      9.853
REMARK  7 active torsions:
REMARK  status: ('A' for Active; 'I' for Inactive)
REMARK    1  A    between atoms: CG_4  and  CB_5 
REMARK    2  A    between atoms: CB_5  and  CA_6 
REMARK    3  A    between atoms: CA_6  and  N_7 
REMARK    4  A    between atoms: CA_6  and  C_8 
REMARK       I    between atoms: N_7  and  C_14 
REMARK    5  A    between atoms: C_8  and  O_9 
REMARK       I    between atoms: C_14  and  N_15 
REMARK    6  A    between atoms: N_15  and  C_16 
REMARK    7  A    between atoms: C_22  and  C_23 
ROOT
ATOM      1  N   PHE A   1      40.499 -14.035  -0.784  1.00  0.00    -0.336 N 
ATOM      2  H   PHE A   1      41.335 -13.751  -1.270  1.00  0.00     0.164 HD
HETATM    3  C   UNK A   0      40.629 -14.835   0.327  1.00  0.00     0.321 C 
HETATM    4  N   UNK A   0      41.909 -14.802   0.824  1.00  0.00    -0.309 N 
HETATM    5  O   UNK A   0      39.678 -15.471   0.762  1.00  0.00    -0.247 OA
HETATM    6  H   UNK A   0      42.550 -14.188   0.348  1.00  0.00     0.170 HD
ENDROOT
BRANCH   1   7
ATOM      7  CA  PHE A   1      39.210 -13.828  -1.461  1.00  0.00     0.113 C 
BRANCH   7   8
ATOM      8  CB  PHE A   1      39.062 -12.357  -1.907  1.00  0.00     0.065 C 
BRANCH   8   9
ATOM      9  CG  PHE A   1      38.113 -11.548  -1.052  1.00  0.00    -0.056 A 
ATOM     10  CD1 PHE A   1      38.068 -11.739   0.336  1.00  0.00     0.007 A 
ATOM     11  CE1 PHE A   1      37.191 -10.991   1.126  1.00  0.00     0.001 A 
ATOM     12  CZ  PHE A   1      36.355 -10.044   0.538  1.00  0.00     0.000 A 
ATOM     13  CE2 PHE A   1      36.398  -9.838  -0.838  1.00  0.00     0.001 A 
ATOM     14  CD2 PHE A   1      37.276 -10.582  -1.630  1.00  0.00     0.007 A 
ENDBRANCH   8   9
ENDBRANCH   7   8
BRANCH   7  15
ATOM     15  C   PHE A   1      39.062 -14.763  -2.681  1.00  0.00     0.189 C 
BRANCH  15  16
ATOM     16  O   PHE A   1      38.776 -14.054  -3.883  1.00  0.00    -0.399 OA
ATOM     17  H   PHE A   1      37.919 -13.588  -3.768  1.00  0.00     0.209 HD
ENDBRANCH  15  16
ENDBRANCH   7  15
ENDBRANCH   1   7
BRANCH   4  18
HETATM   18  C   UNK A   0      42.406 -15.453   1.974  1.00  0.00     0.038 A 
HETATM   19  C   UNK A   0      42.307 -14.927   3.267  1.00  0.00     0.063 A 
HETATM   20  C   UNK A   0      42.868 -15.641   4.340  1.00  0.00     0.087 A 
HETATM   21  C   UNK A   0      43.495 -16.857   4.099  1.00  0.00     0.063 A 
HETATM   22  N   UNK A   0      42.919 -15.323   5.676  1.00  0.00    -0.228 NA
HETATM   23  N   UNK A   0      43.924 -17.269   5.334  1.00  0.00    -0.338 N 
HETATM   24  C   UNK A   0      43.601 -17.422   2.830  1.00  0.00     0.034 A 
HETATM   25  H   UNK A   0      44.428 -18.122   5.539  1.00  0.00     0.167 HD
HETATM   26  C   UNK A   0      43.568 -16.317   6.256  1.00  0.00     0.170 A 
HETATM   27  C   UNK A   0      43.046 -16.688   1.773  1.00  0.00     0.032 A 
BRANCH  26  28
HETATM   28  C   UNK A   0      43.921 -16.473   7.690  1.00  0.00     0.422 C 
HETATM   29  F   UNK A   0      43.071 -15.752   8.473  1.00  0.00    -0.206 F 
HETATM   30  F   UNK A   0      43.766 -17.769   8.083  1.00  0.00    -0.206 F 
ENDBRANCH  26  28
ENDBRANCH   4  18
TORSDOF 7
ENDMDL
MODEL 10
REMARK VINA RESULT:      -7.0      5.199      9.889
REMARK  7 active torsions:
REMARK  status: ('A' for Active; 'I' for Inactive)
REMARK    1  A    between atoms: CG_4  and  CB_5 
REMARK    2  A    between atoms: CB_5  and  CA_6 
REMARK    3  A    between atoms: CA_6  and  N_7 
REMARK    4  A    between atoms: CA_6  and  C_8 
REMARK       I    between atoms: N_7  and  C_14 
REMARK    5  A    between atoms: C_8  and  O_9 
REMARK       I    between atoms: C_14  and  N_15 
REMARK    6  A    between atoms: N_15  and  C_16 
REMARK    7  A    between atoms: C_22  and  C_23 
ROOT
ATOM      1  N   PHE A   1      40.662 -13.649  -1.345  1.00  0.00    -0.336 N 
ATOM      2  H   PHE A   1      41.176 -14.337  -1.872  1.00  0.00     0.164 HD
HETATM    3  C   UNK A   0      40.450 -13.876  -0.005  1.00  0.00     0.321 C 
HETATM    4  N   UNK A   0      41.311 -14.827   0.486  1.00  0.00    -0.309 N 
HETATM    5  O   UNK A   0      39.582 -13.270   0.609  1.00  0.00    -0.247 OA
HETATM    6  H   UNK A   0      41.985 -15.191  -0.168  1.00  0.00     0.170 HD
ENDROOT
BRANCH   1   7
ATOM      7  CA  PHE A   1      39.928 -12.619  -2.096  1.00  0.00     0.113 C 
BRANCH   7   8
ATOM      8  CB  PHE A   1      40.841 -11.970  -3.159  1.00  0.00     0.065 C 
BRANCH   8   9
ATOM      9  CG  PHE A   1      41.102 -10.498  -2.928  1.00  0.00    -0.056 A 
ATOM     10  CD1 PHE A   1      41.588 -10.047  -1.693  1.00  0.00     0.007 A 
ATOM     11  CE1 PHE A   1      41.829  -8.688  -1.480  1.00  0.00     0.001 A 
ATOM     12  CZ  PHE A   1      41.592  -7.768  -2.499  1.00  0.00     0.000 A 
ATOM     13  CE2 PHE A   1      41.120  -8.205  -3.734  1.00  0.00     0.001 A 
ATOM     14  CD2 PHE A   1      40.880  -9.564  -3.950  1.00  0.00     0.007 A 
ENDBRANCH   8   9
ENDBRANCH   7   8
BRANCH   7  15
ATOM     15  C   PHE A   1      38.672 -13.209  -2.774  1.00  0.00     0.189 C 
BRANCH  15  16
ATOM     16  O   PHE A   1      37.689 -13.630  -1.833  1.00  0.00    -0.399 OA
ATOM     17  H   PHE A   1      36.859 -13.824  -2.321  1.00  0.00     0.209 HD
ENDBRANCH  15  16
ENDBRANCH   7  15
ENDBRANCH   1   7
BRANCH   4  18
HETATM   18  C   UNK A   0      41.424 -15.285   1.817  1.00  0.00     0.038 A 
HETATM   19  C   UNK A   0      42.635 -15.347   2.516  1.00  0.00     0.063 A 
HETATM   20  C   UNK A   0      42.642 -15.854   3.827  1.00  0.00     0.087 A 
HETATM   21  C   UNK A   0      41.449 -16.267   4.407  1.00  0.00     0.063 A 
HETATM   22  N   UNK A   0      43.693 -16.034   4.694  1.00  0.00    -0.228 NA
HETATM   23  N   UNK A   0      41.810 -16.701   5.656  1.00  0.00    -0.338 N 
HETATM   24  C   UNK A   0      40.222 -16.207   3.751  1.00  0.00     0.034 A 
HETATM   25  H   UNK A   0      41.191 -17.076   6.362  1.00  0.00     0.167 HD
HETATM   26  C   UNK A   0      43.169 -16.555   5.790  1.00  0.00     0.170 A 
HETATM   27  C   UNK A   0      40.238 -15.711   2.441  1.00  0.00     0.032 A 
BRANCH  26  28
HETATM   28  C   UNK A   0      43.862 -16.964   7.037  1.00  0.00     0.422 C 
HETATM   29  F   UNK A   0      43.530 -16.134   8.064  1.00  0.00    -0.206 F 
HETATM   30  F   UNK A   0      43.455 -18.206   7.426  1.00  0.00    -0.206 F 
ENDBRANCH  26  28
ENDBRANCH   4  18
TORSDOF 7
ENDMDL
