MODEL 1
REMARK VINA RESULT:      -9.1      0.000      0.000
REMARK  3 active torsions:
REMARK  status: ('A' for Active; 'I' for Inactive)
REMARK    1  A    between atoms: O_2  and  C_3 
REMARK    2  A    between atoms: C_9  and  C_10 
REMARK       I    between atoms: C_10  and  N_11 
REMARK    3  A    between atoms: N_11  and  C_12 
ROOT
HETATM    1  C   UNL     1      43.641 -19.267   3.210  1.00  0.00     0.068 A 
HETATM    2  C   UNL     1      44.087 -18.670   4.393  1.00  0.00     0.044 A 
HETATM    3  C   UNL     1      43.904 -17.299   4.617  1.00  0.00    -0.043 A 
HETATM    4  C   UNL     1      43.287 -16.512   3.618  1.00  0.00    -0.001 A 
HETATM    5  C   UNL     1      43.115 -15.101   3.922  1.00  0.00     0.069 A 
HETATM    6  C   UNL     1      43.312 -14.543   5.165  1.00  0.00     0.007 A 
HETATM    7  C   UNL     1      43.008 -13.168   5.021  1.00  0.00     0.153 A 
HETATM    8  N   UNL     1      42.668 -12.886   3.739  1.00  0.00    -0.168 NA
HETATM    9  N   UNL     1      42.747 -14.077   3.108  1.00  0.00    -0.276 N 
HETATM   10  H   UNL     1      42.534 -14.111   2.117  1.00  0.00     0.189 HD
HETATM   11  C   UNL     1      43.710 -15.372   6.336  1.00  0.00     0.048 C 
HETATM   12  C   UNL     1      44.455 -16.651   5.883  1.00  0.00     0.044 C 
HETATM   13  C   UNL     1      42.849 -17.107   2.435  1.00  0.00     0.017 A 
HETATM   14  C   UNL     1      43.024 -18.482   2.234  1.00  0.00     0.037 A 
ENDROOT
BRANCH   7  15
HETATM   15  C   UNL     1      43.010 -12.119   6.062  1.00  0.00     0.277 C 
HETATM   16  N   UNL     1      44.255 -11.988   6.645  1.00  0.00    -0.322 N 
HETATM   17  H   UNL     1      44.940 -12.638   6.266  1.00  0.00     0.169 HD
HETATM   18  O   UNL     1      42.005 -11.468   6.331  1.00  0.00    -0.266 OA
BRANCH  16  19
HETATM   19  C   UNL     1      44.669 -11.087   7.639  1.00  0.00     0.037 A 
HETATM   20  C   UNL     1      44.052 -10.965   8.884  1.00  0.00     0.071 A 
HETATM   21  C   UNL     1      44.530 -10.033   9.803  1.00  0.00     0.118 A 
HETATM   22  F   UNL     1      43.932  -9.918  10.996  1.00  0.00    -0.206 F 
HETATM   23  C   UNL     1      45.616  -9.218   9.508  1.00  0.00     0.042 A 
HETATM   24  C   UNL     1      46.239  -9.334   8.269  1.00  0.00     0.005 A 
HETATM   25  C   UNL     1      45.766 -10.266   7.339  1.00  0.00     0.029 A 
ENDBRANCH  16  19
ENDBRANCH   7  15
BRANCH   1  26
HETATM   26  O   UNL     1      43.872 -20.613   3.130  1.00  0.00    -0.356 OA
HETATM   27  C   UNL     1      43.992 -21.322   4.356  1.00  0.00     0.210 C 
ENDBRANCH   1  26
TORSDOF 3
ENDMDL
MODEL 2
REMARK VINA RESULT:      -9.1      1.752      2.373
REMARK  3 active torsions:
REMARK  status: ('A' for Active; 'I' for Inactive)
REMARK    1  A    between atoms: O_2  and  C_3 
REMARK    2  A    between atoms: C_9  and  C_10 
REMARK       I    between atoms: C_10  and  N_11 
REMARK    3  A    between atoms: N_11  and  C_12 
ROOT
HETATM    1  C   UNL     1      43.784 -20.023   3.767  1.00  0.00     0.068 A 
HETATM    2  C   UNL     1      43.531 -18.770   3.202  1.00  0.00     0.044 A 
HETATM    3  C   UNL     1      43.367 -17.638   4.011  1.00  0.00    -0.043 A 
HETATM    4  C   UNL     1      43.431 -17.779   5.416  1.00  0.00    -0.001 A 
HETATM    5  C   UNL     1      43.267 -16.563   6.195  1.00  0.00     0.069 A 
HETATM    6  C   UNL     1      43.270 -15.292   5.664  1.00  0.00     0.007 A 
HETATM    7  C   UNL     1      43.114 -14.417   6.766  1.00  0.00     0.153 A 
HETATM    8  N   UNL     1      42.991 -15.118   7.920  1.00  0.00    -0.168 NA
HETATM    9  N   UNL     1      43.086 -16.408   7.533  1.00  0.00    -0.276 N 
HETATM   10  H   UNL     1      43.017 -17.129   8.243  1.00  0.00     0.189 HD
HETATM   11  C   UNL     1      43.466 -15.058   4.208  1.00  0.00     0.048 C 
HETATM   12  C   UNL     1      43.024 -16.291   3.383  1.00  0.00     0.044 C 
HETATM   13  C   UNL     1      43.677 -19.031   5.980  1.00  0.00     0.017 A 
HETATM   14  C   UNL     1      43.855 -20.149   5.156  1.00  0.00     0.037 A 
ENDROOT
BRANCH   7  15
HETATM   15  C   UNL     1      43.099 -12.939   6.761  1.00  0.00     0.277 C 
HETATM   16  N   UNL     1      43.947 -12.421   7.719  1.00  0.00    -0.322 N 
HETATM   17  H   UNL     1      44.419 -13.141   8.262  1.00  0.00     0.169 HD
HETATM   18  O   UNL     1      42.406 -12.299   5.976  1.00  0.00    -0.266 OA
BRANCH  16  19
HETATM   19  C   UNL     1      44.235 -11.076   8.003  1.00  0.00     0.037 A 
HETATM   20  C   UNL     1      43.275 -10.137   8.381  1.00  0.00     0.071 A 
HETATM   21  C   UNL     1      43.658  -8.821   8.632  1.00  0.00     0.118 A 
HETATM   22  F   UNL     1      42.731  -7.924   8.992  1.00  0.00    -0.206 F 
HETATM   23  C   UNL     1      44.983  -8.419   8.516  1.00  0.00     0.042 A 
HETATM   24  C   UNL     1      45.948  -9.349   8.142  1.00  0.00     0.005 A 
HETATM   25  C   UNL     1      45.574 -10.672   7.887  1.00  0.00     0.029 A 
ENDBRANCH  16  19
ENDBRANCH   7  15
BRANCH   1  26
HETATM   26  O   UNL     1      43.937 -21.037   2.860  1.00  0.00    -0.356 OA
HETATM   27  C   UNL     1      43.672 -20.728   1.497  1.00  0.00     0.210 C 
ENDBRANCH   1  26
TORSDOF 3
ENDMDL
MODEL 3
REMARK VINA RESULT:      -8.4      5.209      7.262
REMARK  3 active torsions:
REMARK  status: ('A' for Active; 'I' for Inactive)
REMARK    1  A    between atoms: O_2  and  C_3 
REMARK    2  A    between atoms: C_9  and  C_10 
REMARK       I    between atoms: C_10  and  N_11 
REMARK    3  A    between atoms: N_11  and  C_12 
ROOT
HETATM    1  C   UNL     1      44.002 -18.936   5.031  1.00  0.00     0.068 A 
HETATM    2  C   UNL     1      43.888 -18.564   3.689  1.00  0.00     0.044 A 
HETATM    3  C   UNL     1      43.267 -17.361   3.328  1.00  0.00    -0.043 A 
HETATM    4  C   UNL     1      42.727 -16.533   4.337  1.00  0.00    -0.001 A 
HETATM    5  C   UNL     1      42.111 -15.293   3.895  1.00  0.00     0.069 A 
HETATM    6  C   UNL     1      42.208 -14.788   2.617  1.00  0.00     0.007 A 
HETATM    7  C   UNL     1      41.495 -13.565   2.634  1.00  0.00     0.153 A 
HETATM    8  N   UNL     1      40.958 -13.342   3.858  1.00  0.00    -0.168 NA
HETATM    9  N   UNL     1      41.350 -14.406   4.589  1.00  0.00    -0.276 N 
HETATM   10  H   UNL     1      41.056 -14.458   5.559  1.00  0.00     0.189 HD
HETATM   11  C   UNL     1      42.994 -15.486   1.563  1.00  0.00     0.048 C 
HETATM   12  C   UNL     1      43.090 -17.003   1.856  1.00  0.00     0.044 C 
HETATM   13  C   UNL     1      42.836 -16.907   5.677  1.00  0.00     0.017 A 
HETATM   14  C   UNL     1      43.474 -18.104   6.022  1.00  0.00     0.037 A 
ENDROOT
BRANCH   7  15
HETATM   15  C   UNL     1      41.325 -12.595   1.532  1.00  0.00     0.277 C 
HETATM   16  N   UNL     1      40.510 -13.097   0.537  1.00  0.00    -0.322 N 
HETATM   17  H   UNL     1      40.184 -14.041   0.731  1.00  0.00     0.169 HD
HETATM   18  O   UNL     1      41.857 -11.489   1.552  1.00  0.00    -0.266 OA
BRANCH  16  19
HETATM   19  C   UNL     1      40.083 -12.474  -0.647  1.00  0.00     0.037 A 
HETATM   20  C   UNL     1      40.936 -12.123  -1.693  1.00  0.00     0.071 A 
HETATM   21  C   UNL     1      40.418 -11.498  -2.826  1.00  0.00     0.118 A 
HETATM   22  F   UNL     1      41.243 -11.161  -3.826  1.00  0.00    -0.206 F 
HETATM   23  C   UNL     1      39.063 -11.215  -2.939  1.00  0.00     0.042 A 
HETATM   24  C   UNL     1      38.204 -11.563  -1.902  1.00  0.00     0.005 A 
HETATM   25  C   UNL     1      38.713 -12.190  -0.760  1.00  0.00     0.029 A 
ENDBRANCH  16  19
ENDBRANCH   7  15
BRANCH   1  26
HETATM   26  O   UNL     1      44.643 -20.127   5.240  1.00  0.00    -0.356 OA
HETATM   27  C   UNL     1      43.870 -21.310   5.085  1.00  0.00     0.210 C 
ENDBRANCH   1  26
TORSDOF 3
ENDMDL
MODEL 4
REMARK VINA RESULT:      -8.2      5.741      9.045
REMARK  3 active torsions:
REMARK  status: ('A' for Active; 'I' for Inactive)
REMARK    1  A    between atoms: O_2  and  C_3 
REMARK    2  A    between atoms: C_9  and  C_10 
REMARK       I    between atoms: C_10  and  N_11 
REMARK    3  A    between atoms: N_11  and  C_12 
ROOT
HETATM    1  C   UNL     1      41.333  -9.033  -1.554  1.00  0.00     0.068 A 
HETATM    2  C   UNL     1      41.677  -9.424  -0.257  1.00  0.00     0.044 A 
HETATM    3  C   UNL     1      41.427 -10.728   0.190  1.00  0.00    -0.043 A 
HETATM    4  C   UNL     1      40.792 -11.645  -0.678  1.00  0.00    -0.001 A 
HETATM    5  C   UNL     1      40.577 -12.985  -0.157  1.00  0.00     0.069 A 
HETATM    6  C   UNL     1      41.127 -13.463   1.011  1.00  0.00     0.007 A 
HETATM    7  C   UNL     1      40.687 -14.804   1.121  1.00  0.00     0.153 A 
HETATM    8  N   UNL     1      39.877 -15.128   0.083  1.00  0.00    -0.168 NA
HETATM    9  N   UNL     1      39.834 -14.004  -0.664  1.00  0.00    -0.276 N 
HETATM   10  H   UNL     1      39.273 -14.009  -1.509  1.00  0.00     0.189 HD
HETATM   11  C   UNL     1      42.030 -12.625   1.846  1.00  0.00     0.048 C 
HETATM   12  C   UNL     1      41.747 -11.118   1.629  1.00  0.00     0.044 C 
HETATM   13  C   UNL     1      40.442 -11.253  -1.970  1.00  0.00     0.017 A 
HETATM   14  C   UNL     1      40.715  -9.951  -2.407  1.00  0.00     0.037 A 
ENDROOT
BRANCH   7  15
HETATM   15  C   UNL     1      41.026 -15.792   2.167  1.00  0.00     0.277 C 
HETATM   16  N   UNL     1      42.238 -16.403   1.912  1.00  0.00    -0.322 N 
HETATM   17  H   UNL     1      42.673 -16.076   1.052  1.00  0.00     0.169 HD
HETATM   18  O   UNL     1      40.290 -16.001   3.126  1.00  0.00    -0.266 OA
BRANCH  16  19
HETATM   19  C   UNL     1      42.917 -17.362   2.681  1.00  0.00     0.037 A 
HETATM   20  C   UNL     1      43.099 -18.687   2.286  1.00  0.00     0.071 A 
HETATM   21  C   UNL     1      43.779 -19.570   3.123  1.00  0.00     0.118 A 
HETATM   22  F   UNL     1      43.949 -20.842   2.739  1.00  0.00    -0.206 F 
HETATM   23  C   UNL     1      44.285 -19.158   4.349  1.00  0.00     0.042 A 
HETATM   24  C   UNL     1      44.111 -17.837   4.750  1.00  0.00     0.005 A 
HETATM   25  C   UNL     1      43.428 -16.944   3.918  1.00  0.00     0.029 A 
ENDBRANCH  16  19
ENDBRANCH   7  15
BRANCH   1  26
HETATM   26  O   UNL     1      41.646  -7.737  -1.861  1.00  0.00    -0.356 OA
HETATM   27  C   UNL     1      43.009  -7.354  -1.727  1.00  0.00     0.210 C 
ENDBRANCH   1  26
TORSDOF 3
ENDMDL
MODEL 5
REMARK VINA RESULT:      -8.0      6.241     12.021
REMARK  3 active torsions:
REMARK  status: ('A' for Active; 'I' for Inactive)
REMARK    1  A    between atoms: O_2  and  C_3 
REMARK    2  A    between atoms: C_9  and  C_10 
REMARK       I    between atoms: C_10  and  N_11 
REMARK    3  A    between atoms: N_11  and  C_12 
ROOT
HETATM    1  C   UNL     1      39.920  -4.988  15.775  1.00  0.00     0.068 A 
HETATM    2  C   UNL     1      41.233  -5.442  15.626  1.00  0.00     0.044 A 
HETATM    3  C   UNL     1      41.530  -6.508  14.767  1.00  0.00    -0.043 A 
HETATM    4  C   UNL     1      40.479  -7.146  14.069  1.00  0.00    -0.001 A 
HETATM    5  C   UNL     1      40.858  -8.234  13.183  1.00  0.00     0.069 A 
HETATM    6  C   UNL     1      42.155  -8.533  12.829  1.00  0.00     0.007 A 
HETATM    7  C   UNL     1      42.065  -9.631  11.939  1.00  0.00     0.153 A 
HETATM    8  N   UNL     1      40.774 -10.011  11.778  1.00  0.00    -0.168 NA
HETATM    9  N   UNL     1      40.077  -9.146  12.546  1.00  0.00    -0.276 N 
HETATM   10  H   UNL     1      39.068  -9.242  12.585  1.00  0.00     0.189 HD
HETATM   11  C   UNL     1      43.303  -7.725  13.324  1.00  0.00     0.048 C 
HETATM   12  C   UNL     1      42.957  -7.036  14.667  1.00  0.00     0.044 C 
HETATM   13  C   UNL     1      39.168  -6.696  14.223  1.00  0.00     0.017 A 
HETATM   14  C   UNL     1      38.890  -5.618  15.073  1.00  0.00     0.037 A 
ENDROOT
BRANCH   7  15
HETATM   15  C   UNL     1      43.161 -10.317  11.225  1.00  0.00     0.277 C 
HETATM   16  N   UNL     1      43.294  -9.849   9.933  1.00  0.00    -0.322 N 
HETATM   17  H   UNL     1      42.612  -9.129   9.700  1.00  0.00     0.169 HD
HETATM   18  O   UNL     1      43.845 -11.183  11.762  1.00  0.00    -0.266 OA
BRANCH  16  19
HETATM   19  C   UNL     1      44.233 -10.219   8.956  1.00  0.00     0.037 A 
HETATM   20  C   UNL     1      44.086 -11.322   8.115  1.00  0.00     0.071 A 
HETATM   21  C   UNL     1      45.078 -11.615   7.181  1.00  0.00     0.118 A 
HETATM   22  F   UNL     1      44.933 -12.678   6.378  1.00  0.00    -0.206 F 
HETATM   23  C   UNL     1      46.217 -10.828   7.066  1.00  0.00     0.042 A 
HETATM   24  C   UNL     1      46.371  -9.724   7.899  1.00  0.00     0.005 A 
HETATM   25  C   UNL     1      45.382  -9.422   8.840  1.00  0.00     0.029 A 
ENDBRANCH  16  19
ENDBRANCH   7  15
BRANCH   1  26
HETATM   26  O   UNL     1      39.776  -3.932  16.634  1.00  0.00    -0.356 OA
HETATM   27  C   UNL     1      38.452  -3.587  17.017  1.00  0.00     0.210 C 
ENDBRANCH   1  26
TORSDOF 3
ENDMDL
MODEL 6
REMARK VINA RESULT:      -7.9      3.735      8.663
REMARK  3 active torsions:
REMARK  status: ('A' for Active; 'I' for Inactive)
REMARK    1  A    between atoms: O_2  and  C_3 
REMARK    2  A    between atoms: C_9  and  C_10 
REMARK       I    between atoms: C_10  and  N_11 
REMARK    3  A    between atoms: N_11  and  C_12 
ROOT
HETATM    1  C   UNL     1      40.626  -9.246   6.971  1.00  0.00     0.068 A 
HETATM    2  C   UNL     1      39.898 -10.433   6.855  1.00  0.00     0.044 A 
HETATM    3  C   UNL     1      40.373 -11.492   6.070  1.00  0.00    -0.043 A 
HETATM    4  C   UNL     1      41.590 -11.339   5.368  1.00  0.00    -0.001 A 
HETATM    5  C   UNL     1      42.033 -12.481   4.586  1.00  0.00     0.069 A 
HETATM    6  C   UNL     1      41.471 -13.736   4.655  1.00  0.00     0.007 A 
HETATM    7  C   UNL     1      42.219 -14.540   3.761  1.00  0.00     0.153 A 
HETATM    8  N   UNL     1      43.178 -13.806   3.147  1.00  0.00    -0.168 NA
HETATM    9  N   UNL     1      43.033 -12.570   3.669  1.00  0.00    -0.276 N 
HETATM   10  H   UNL     1      43.654 -11.835   3.348  1.00  0.00     0.189 HD
HETATM   11  C   UNL     1      40.344 -14.035   5.580  1.00  0.00     0.048 C 
HETATM   12  C   UNL     1      39.534 -12.754   5.899  1.00  0.00     0.044 C 
HETATM   13  C   UNL     1      42.314 -10.151   5.480  1.00  0.00     0.017 A 
HETATM   14  C   UNL     1      41.833  -9.109   6.282  1.00  0.00     0.037 A 
ENDROOT
BRANCH   7  15
HETATM   15  C   UNL     1      42.065 -15.984   3.487  1.00  0.00     0.277 C 
HETATM   16  N   UNL     1      43.228 -16.678   3.756  1.00  0.00    -0.322 N 
HETATM   17  H   UNL     1      43.982 -16.075   4.082  1.00  0.00     0.169 HD
HETATM   18  O   UNL     1      41.010 -16.459   3.078  1.00  0.00    -0.266 OA
BRANCH  16  19
HETATM   19  C   UNL     1      43.472 -18.057   3.658  1.00  0.00     0.037 A 
HETATM   20  C   UNL     1      43.934 -18.842   4.714  1.00  0.00     0.071 A 
HETATM   21  C   UNL     1      44.156 -20.203   4.516  1.00  0.00     0.118 A 
HETATM   22  F   UNL     1      44.603 -20.952   5.533  1.00  0.00    -0.206 F 
HETATM   23  C   UNL     1      43.924 -20.802   3.284  1.00  0.00     0.042 A 
HETATM   24  C   UNL     1      43.460 -20.027   2.226  1.00  0.00     0.005 A 
HETATM   25  C   UNL     1      43.236 -18.660   2.413  1.00  0.00     0.029 A 
ENDBRANCH  16  19
ENDBRANCH   7  15
BRANCH   1  26
HETATM   26  O   UNL     1      40.052  -8.302   7.780  1.00  0.00    -0.356 OA
HETATM   27  C   UNL     1      39.593  -8.737   9.053  1.00  0.00     0.210 C 
ENDBRANCH   1  26
TORSDOF 3
ENDMDL
MODEL 7
REMARK VINA RESULT:      -7.9      3.226      3.603
REMARK  3 active torsions:
REMARK  status: ('A' for Active; 'I' for Inactive)
REMARK    1  A    between atoms: O_2  and  C_3 
REMARK    2  A    between atoms: C_9  and  C_10 
REMARK       I    between atoms: C_10  and  N_11 
REMARK    3  A    between atoms: N_11  and  C_12 
ROOT
HETATM    1  C   UNL     1      43.788 -19.474   3.614  1.00  0.00     0.068 A 
HETATM    2  C   UNL     1      43.915 -18.491   4.600  1.00  0.00     0.044 A 
HETATM    3  C   UNL     1      43.628 -17.150   4.316  1.00  0.00    -0.043 A 
HETATM    4  C   UNL     1      43.232 -16.790   3.008  1.00  0.00    -0.001 A 
HETATM    5  C   UNL     1      42.934 -15.385   2.786  1.00  0.00     0.069 A 
HETATM    6  C   UNL     1      42.807 -14.449   3.788  1.00  0.00     0.007 A 
HETATM    7  C   UNL     1      42.488 -13.232   3.138  1.00  0.00     0.153 A 
HETATM    8  N   UNL     1      42.450 -13.405   1.794  1.00  0.00    -0.168 NA
HETATM    9  N   UNL     1      42.726 -14.715   1.622  1.00  0.00    -0.276 N 
HETATM   10  H   UNL     1      42.756 -15.081   0.676  1.00  0.00     0.189 HD
HETATM   11  C   UNL     1      42.951 -14.820   5.222  1.00  0.00     0.048 C 
HETATM   12  C   UNL     1      43.836 -16.080   5.383  1.00  0.00     0.044 C 
HETATM   13  C   UNL     1      43.112 -17.771   2.023  1.00  0.00     0.017 A 
HETATM   14  C   UNL     1      43.387 -19.109   2.328  1.00  0.00     0.037 A 
ENDROOT
BRANCH   7  15
HETATM   15  C   UNL     1      42.200 -11.919   3.751  1.00  0.00     0.277 C 
HETATM   16  N   UNL     1      40.930 -11.881   4.291  1.00  0.00    -0.322 N 
HETATM   17  H   UNL     1      40.418 -12.751   4.162  1.00  0.00     0.169 HD
HETATM   18  O   UNL     1      43.025 -11.011   3.759  1.00  0.00    -0.266 OA
BRANCH  16  19
HETATM   19  C   UNL     1      40.301 -10.834   4.985  1.00  0.00     0.037 A 
HETATM   20  C   UNL     1      40.204 -10.770   6.374  1.00  0.00     0.071 A 
HETATM   21  C   UNL     1      39.551  -9.694   6.972  1.00  0.00     0.118 A 
HETATM   22  F   UNL     1      39.459  -9.639   8.307  1.00  0.00    -0.206 F 
HETATM   23  C   UNL     1      38.991  -8.675   6.211  1.00  0.00     0.042 A 
HETATM   24  C   UNL     1      39.085  -8.729   4.824  1.00  0.00     0.005 A 
HETATM   25  C   UNL     1      39.737  -9.806   4.214  1.00  0.00     0.029 A 
ENDBRANCH  16  19
ENDBRANCH   7  15
BRANCH   1  26
HETATM   26  O   UNL     1      44.088 -20.742   4.033  1.00  0.00    -0.356 OA
HETATM   27  C   UNL     1      44.229 -20.943   5.433  1.00  0.00     0.210 C 
ENDBRANCH   1  26
TORSDOF 3
ENDMDL
MODEL 8
REMARK VINA RESULT:      -7.9      6.242      9.135
REMARK  3 active torsions:
REMARK  status: ('A' for Active; 'I' for Inactive)
REMARK    1  A    between atoms: O_2  and  C_3 
REMARK    2  A    between atoms: C_9  and  C_10 
REMARK       I    between atoms: C_10  and  N_11 
REMARK    3  A    between atoms: N_11  and  C_12 
ROOT
HETATM    1  C   UNL     1      38.552 -10.445  -2.638  1.00  0.00     0.068 A 
HETATM    2  C   UNL     1      39.016 -11.763  -2.686  1.00  0.00     0.044 A 
HETATM    3  C   UNL     1      39.475 -12.404  -1.528  1.00  0.00    -0.043 A 
HETATM    4  C   UNL     1      39.492 -11.693  -0.306  1.00  0.00    -0.001 A 
HETATM    5  C   UNL     1      39.965 -12.422   0.859  1.00  0.00     0.069 A 
HETATM    6  C   UNL     1      40.186 -13.781   0.889  1.00  0.00     0.007 A 
HETATM    7  C   UNL     1      40.605 -14.072   2.210  1.00  0.00     0.153 A 
HETATM    8  N   UNL     1      40.669 -12.938   2.951  1.00  0.00    -0.168 NA
HETATM    9  N   UNL     1      40.278 -11.966   2.101  1.00  0.00    -0.276 N 
HETATM   10  H   UNL     1      40.250 -11.011   2.441  1.00  0.00     0.189 HD
HETATM   11  C   UNL     1      39.930 -14.638  -0.300  1.00  0.00     0.048 C 
HETATM   12  C   UNL     1      40.040 -13.818  -1.609  1.00  0.00     0.044 C 
HETATM   13  C   UNL     1      39.035 -10.376  -0.260  1.00  0.00     0.017 A 
HETATM   14  C   UNL     1      38.564  -9.756  -1.424  1.00  0.00     0.037 A 
ENDROOT
BRANCH   7  15
HETATM   15  C   UNL     1      40.928 -15.390   2.795  1.00  0.00     0.277 C 
HETATM   16  N   UNL     1      42.256 -15.717   2.603  1.00  0.00    -0.322 N 
HETATM   17  H   UNL     1      42.769 -15.005   2.088  1.00  0.00     0.169 HD
HETATM   18  O   UNL     1      40.086 -16.066   3.377  1.00  0.00    -0.266 OA
BRANCH  16  19
HETATM   19  C   UNL     1      42.951 -16.858   3.037  1.00  0.00     0.037 A 
HETATM   20  C   UNL     1      43.071 -18.027   2.287  1.00  0.00     0.071 A 
HETATM   21  C   UNL     1      43.774 -19.112   2.807  1.00  0.00     0.118 A 
HETATM   22  F   UNL     1      43.884 -20.234   2.083  1.00  0.00    -0.206 F 
HETATM   23  C   UNL     1      44.364 -19.055   4.064  1.00  0.00     0.042 A 
HETATM   24  C   UNL     1      44.251 -17.892   4.819  1.00  0.00     0.005 A 
HETATM   25  C   UNL     1      43.547 -16.798   4.306  1.00  0.00     0.029 A 
ENDBRANCH  16  19
ENDBRANCH   7  15
BRANCH   1  26
HETATM   26  O   UNL     1      38.122  -9.949  -3.839  1.00  0.00    -0.356 OA
HETATM   27  C   UNL     1      39.020  -9.106  -4.548  1.00  0.00     0.210 C 
ENDBRANCH   1  26
TORSDOF 3
ENDMDL
MODEL 9
REMARK VINA RESULT:      -7.9      3.799      8.939
REMARK  3 active torsions:
REMARK  status: ('A' for Active; 'I' for Inactive)
REMARK    1  A    between atoms: O_2  and  C_3 
REMARK    2  A    between atoms: C_9  and  C_10 
REMARK       I    between atoms: C_10  and  N_11 
REMARK    3  A    between atoms: N_11  and  C_12 
ROOT
HETATM    1  C   UNL     1      41.620  -8.624   6.127  1.00  0.00     0.068 A 
HETATM    2  C   UNL     1      41.167  -9.494   5.131  1.00  0.00     0.044 A 
HETATM    3  C   UNL     1      41.556 -10.840   5.123  1.00  0.00    -0.043 A 
HETATM    4  C   UNL     1      42.439 -11.309   6.122  1.00  0.00    -0.001 A 
HETATM    5  C   UNL     1      42.789 -12.718   6.065  1.00  0.00     0.069 A 
HETATM    6  C   UNL     1      42.166 -13.643   5.256  1.00  0.00     0.007 A 
HETATM    7  C   UNL     1      42.792 -14.881   5.537  1.00  0.00     0.153 A 
HETATM    8  N   UNL     1      43.776 -14.721   6.455  1.00  0.00    -0.168 NA
HETATM    9  N   UNL     1      43.745 -13.404   6.747  1.00  0.00    -0.276 N 
HETATM   10  H   UNL     1      44.410 -13.044   7.423  1.00  0.00     0.189 HD
HETATM   11  C   UNL     1      41.037 -13.261   4.365  1.00  0.00     0.048 C 
HETATM   12  C   UNL     1      41.107 -11.759   3.993  1.00  0.00     0.044 C 
HETATM   13  C   UNL     1      42.896 -10.439   7.112  1.00  0.00     0.017 A 
HETATM   14  C   UNL     1      42.484  -9.100   7.114  1.00  0.00     0.037 A 
ENDROOT
BRANCH   7  15
HETATM   15  C   UNL     1      42.474 -16.211   4.978  1.00  0.00     0.277 C 
HETATM   16  N   UNL     1      43.611 -16.978   4.816  1.00  0.00    -0.322 N 
HETATM   17  H   UNL     1      44.460 -16.492   5.098  1.00  0.00     0.169 HD
HETATM   18  O   UNL     1      41.323 -16.547   4.715  1.00  0.00    -0.266 OA
BRANCH  16  19
HETATM   19  C   UNL     1      43.722 -18.298   4.351  1.00  0.00     0.037 A 
HETATM   20  C   UNL     1      43.630 -18.659   3.007  1.00  0.00     0.071 A 
HETATM   21  C   UNL     1      43.743 -20.000   2.643  1.00  0.00     0.118 A 
HETATM   22  F   UNL     1      43.651 -20.341   1.351  1.00  0.00    -0.206 F 
HETATM   23  C   UNL     1      43.948 -20.992   3.594  1.00  0.00     0.042 A 
HETATM   24  C   UNL     1      44.044 -20.641   4.937  1.00  0.00     0.005 A 
HETATM   25  C   UNL     1      43.930 -19.299   5.312  1.00  0.00     0.029 A 
ENDBRANCH  16  19
ENDBRANCH   7  15
BRANCH   1  26
HETATM   26  O   UNL     1      41.151  -7.342   6.020  1.00  0.00    -0.356 OA
HETATM   27  C   UNL     1      41.270  -6.514   7.169  1.00  0.00     0.210 C 
ENDBRANCH   1  26
TORSDOF 3
ENDMDL
MODEL 10
REMARK VINA RESULT:      -7.7      3.986      9.965
REMARK  3 active torsions:
REMARK  status: ('A' for Active; 'I' for Inactive)
REMARK    1  A    between atoms: O_2  and  C_3 
REMARK    2  A    between atoms: C_9  and  C_10 
REMARK       I    between atoms: C_10  and  N_11 
REMARK    3  A    between atoms: N_11  and  C_12 
ROOT
HETATM    1  C   UNL     1      42.502  -6.685  13.159  1.00  0.00     0.068 A 
HETATM    2  C   UNL     1      42.835  -8.042  13.139  1.00  0.00     0.044 A 
HETATM    3  C   UNL     1      42.967  -8.730  11.926  1.00  0.00    -0.043 A 
HETATM    4  C   UNL     1      42.730  -8.044  10.714  1.00  0.00    -0.001 A 
HETATM    5  C   UNL     1      42.899  -8.814   9.492  1.00  0.00     0.069 A 
HETATM    6  C   UNL     1      43.466 -10.067   9.434  1.00  0.00     0.007 A 
HETATM    7  C   UNL     1      43.460 -10.427   8.065  1.00  0.00     0.153 A 
HETATM    8  N   UNL     1      42.887  -9.453   7.317  1.00  0.00    -0.168 NA
HETATM    9  N   UNL     1      42.560  -8.498   8.214  1.00  0.00    -0.276 N 
HETATM   10  H   UNL     1      42.106  -7.657   7.877  1.00  0.00     0.189 HD
HETATM   11  C   UNL     1      43.985 -10.743  10.654  1.00  0.00     0.048 C 
HETATM   12  C   UNL     1      43.265 -10.226  11.924  1.00  0.00     0.044 C 
HETATM   13  C   UNL     1      42.390  -6.691  10.734  1.00  0.00     0.017 A 
HETATM   14  C   UNL     1      42.280  -6.014  11.955  1.00  0.00     0.037 A 
ENDROOT
BRANCH   7  15
HETATM   15  C   UNL     1      43.997 -11.656   7.443  1.00  0.00     0.277 C 
HETATM   16  N   UNL     1      42.999 -12.580   7.204  1.00  0.00    -0.322 N 
HETATM   17  H   UNL     1      42.081 -12.258   7.505  1.00  0.00     0.169 HD
HETATM   18  O   UNL     1      45.190 -11.785   7.185  1.00  0.00    -0.266 OA
BRANCH  16  19
HETATM   19  C   UNL     1      43.098 -13.843   6.599  1.00  0.00     0.037 A 
HETATM   20  C   UNL     1      43.070 -14.050   5.221  1.00  0.00     0.071 A 
HETATM   21  C   UNL     1      43.165 -15.345   4.715  1.00  0.00     0.118 A 
HETATM   22  F   UNL     1      43.134 -15.538   3.390  1.00  0.00    -0.206 F 
HETATM   23  C   UNL     1      43.290 -16.443   5.557  1.00  0.00     0.042 A 
HETATM   24  C   UNL     1      43.321 -16.246   6.935  1.00  0.00     0.005 A 
HETATM   25  C   UNL     1      43.225 -14.950   7.452  1.00  0.00     0.029 A 
ENDBRANCH  16  19
ENDBRANCH   7  15
BRANCH   1  26
HETATM   26  O   UNL     1      42.420  -6.136  14.411  1.00  0.00    -0.356 OA
HETATM   27  C   UNL     1      42.220  -7.033  15.496  1.00  0.00     0.210 C 
ENDBRANCH   1  26
TORSDOF 3
ENDMDL
