MODEL 1
REMARK VINA RESULT:     -10.0      0.000      0.000
REMARK  9 active torsions:
REMARK  status: ('A' for Active; 'I' for Inactive)
REMARK    1  A    between atoms: C_4  and  C_5 
REMARK    2  A    between atoms: C_13  and  C_14 
REMARK    3  A    between atoms: C_14  and  N_15 
REMARK    4  A    between atoms: C_19  and  C_20 
REMARK       I    between atoms: C_20  and  N_21 
REMARK    5  A    between atoms: N_21  and  C_22 
REMARK    6  A    between atoms: C_22  and  C_23 
REMARK    7  A    between atoms: C_23  and  C_24 
REMARK    8  A    between atoms: C_24  and  N_25 
REMARK    9  A    between atoms: N_29  and  C_30 
ROOT
HETATM    1  N   UNL     1      39.316 -12.562   3.813  1.00  0.00    -0.066 N 
HETATM    2  H   UNL     1      38.321 -12.803   3.941  1.00  0.00     0.280 HD
HETATM    3  C   UNL     1      40.017 -12.922   5.098  1.00  0.00     0.236 C 
HETATM    4  C   UNL     1      39.593 -11.977   6.221  1.00  0.00     0.042 C 
HETATM    5  C   UNL     1      39.850 -10.512   5.867  1.00  0.00     0.081 C 
HETATM    6  C   UNL     1      39.137 -10.169   4.558  1.00  0.00     0.042 C 
HETATM    7  C   UNL     1      39.450 -11.119   3.411  1.00  0.00     0.236 C 
ENDROOT
BRANCH   5   8
HETATM    8  C   UNL     1      41.358 -10.275   5.800  1.00  0.00     0.221 C 
HETATM    9  N   UNL     1      42.091 -10.956   6.744  1.00  0.00    -0.361 N 
HETATM   10  H   UNL     1      41.602 -11.525   7.431  1.00  0.00     0.162 HD
HETATM   11  O   UNL     1      41.876  -9.625   4.896  1.00  0.00    -0.273 OA
BRANCH   9  12
HETATM   12  C   UNL     1      43.528 -11.133   6.626  1.00  0.00     0.124 C 
BRANCH  12  13
HETATM   13  C   UNL     1      44.274 -11.133   7.965  1.00  0.00     0.047 C 
BRANCH  13  14
HETATM   14  C   UNL     1      43.819  -9.945   8.811  1.00  0.00     0.236 C 
BRANCH  14  15
HETATM   15  N   UNL     1      42.940 -10.366   9.968  1.00  0.00    -0.068 N 
HETATM   16  H   UNL     1      42.460 -11.243   9.725  1.00  0.00     0.280 HD
HETATM   17  C   UNL     1      43.806 -10.672  11.210  1.00  0.00     0.254 C 
HETATM   18  C   UNL     1      42.937 -11.062  12.424  1.00  0.00     0.150 C 
HETATM   19  N   UNL     1      41.898 -10.051  12.689  1.00  0.00    -0.378 N 
HETATM   20  C   UNL     1      41.019  -9.791  11.532  1.00  0.00     0.150 C 
HETATM   21  C   UNL     1      41.855  -9.331  10.317  1.00  0.00     0.254 C 
BRANCH  19  22
HETATM   22  C   UNL     1      42.137  -8.985  13.560  1.00  0.00     0.031 A 
HETATM   23  C   UNL     1      41.487  -8.833  14.793  1.00  0.00     0.053 A 
HETATM   24  C   UNL     1      41.769  -7.753  15.641  1.00  0.00     0.036 A 
HETATM   25 CL   UNL     1      40.971  -7.647  17.163  1.00  0.00    -0.084 Cl
HETATM   26  C   UNL     1      42.687  -6.780  15.274  1.00  0.00     0.024 A 
HETATM   27  C   UNL     1      43.320  -6.883  14.042  1.00  0.00     0.004 A 
HETATM   28  C   UNL     1      43.043  -7.969  13.200  1.00  0.00     0.029 A 
ENDBRANCH  19  22
ENDBRANCH  14  15
ENDBRANCH  13  14
ENDBRANCH  12  13
ENDBRANCH   9  12
ENDBRANCH   5   8
BRANCH   1  29
HETATM   29  C   UNL     1      39.768 -13.446   2.652  1.00  0.00     0.296 C 
BRANCH  29  30
HETATM   30  C   UNL     1      41.034 -14.188   2.869  1.00  0.00     0.092 A 
HETATM   31  C   UNL     1      42.316 -13.690   2.950  1.00  0.00     0.078 A 
HETATM   32  C   UNL     1      42.927 -12.351   2.867  1.00  0.00     0.079 C 
HETATM   33  O   UNL     1      43.156 -14.741   3.162  1.00  0.00    -0.294 OA
HETATM   34  C   UNL     1      42.342 -15.843   3.189  1.00  0.00     0.180 A 
HETATM   35  N   UNL     1      41.058 -15.562   3.019  1.00  0.00    -0.224 NA
BRANCH  34  36
HETATM   36  C   UNL     1      43.000 -17.126   3.424  1.00  0.00     0.019 A 
HETATM   37  C   UNL     1      42.973 -18.115   2.431  1.00  0.00     0.039 A 
HETATM   38  C   UNL     1      43.586 -19.350   2.648  1.00  0.00     0.035 A 
HETATM   39 CL   UNL     1      43.529 -20.550   1.418  1.00  0.00    -0.084 Cl
HETATM   40  C   UNL     1      44.237 -19.618   3.850  1.00  0.00     0.024 A 
HETATM   41  C   UNL     1      44.274 -18.645   4.844  1.00  0.00     0.003 A 
HETATM   42  C   UNL     1      43.659 -17.407   4.633  1.00  0.00     0.016 A 
ENDBRANCH  34  36
ENDBRANCH  29  30
ENDBRANCH   1  29
TORSDOF 9
ENDMDL
MODEL 2
REMARK VINA RESULT:      -9.8      2.943      4.558
REMARK  9 active torsions:
REMARK  status: ('A' for Active; 'I' for Inactive)
REMARK    1  A    between atoms: C_4  and  C_5 
REMARK    2  A    between atoms: C_13  and  C_14 
REMARK    3  A    between atoms: C_14  and  N_15 
REMARK    4  A    between atoms: C_19  and  C_20 
REMARK       I    between atoms: C_20  and  N_21 
REMARK    5  A    between atoms: N_21  and  C_22 
REMARK    6  A    between atoms: C_22  and  C_23 
REMARK    7  A    between atoms: C_23  and  C_24 
REMARK    8  A    between atoms: C_24  and  N_25 
REMARK    9  A    between atoms: N_29  and  C_30 
ROOT
HETATM    1  N   UNL     1      40.195 -11.468   4.310  1.00  0.00    -0.066 N 
HETATM    2  H   UNL     1      40.844 -11.327   3.521  1.00  0.00     0.280 HD
HETATM    3  C   UNL     1      39.202 -10.336   4.262  1.00  0.00     0.236 C 
HETATM    4  C   UNL     1      39.878  -9.015   4.626  1.00  0.00     0.042 C 
HETATM    5  C   UNL     1      40.551  -9.075   5.998  1.00  0.00     0.081 C 
HETATM    6  C   UNL     1      41.549 -10.233   6.029  1.00  0.00     0.042 C 
HETATM    7  C   UNL     1      40.965 -11.571   5.598  1.00  0.00     0.236 C 
ENDROOT
BRANCH   5   8
HETATM    8  C   UNL     1      39.474  -9.192   7.074  1.00  0.00     0.221 C 
HETATM    9  N   UNL     1      39.824  -9.959   8.160  1.00  0.00    -0.361 N 
HETATM   10  H   UNL     1      40.731 -10.420   8.166  1.00  0.00     0.162 HD
HETATM   11  O   UNL     1      38.429  -8.548   7.023  1.00  0.00    -0.273 OA
BRANCH   9  12
HETATM   12  C   UNL     1      39.090  -9.906   9.413  1.00  0.00     0.124 C 
BRANCH  12  13
HETATM   13  C   UNL     1      39.961  -9.618  10.641  1.00  0.00     0.047 C 
BRANCH  13  14
HETATM   14  C   UNL     1      40.629  -8.252  10.492  1.00  0.00     0.236 C 
BRANCH  14  15
HETATM   15  N   UNL     1      42.138  -8.352  10.436  1.00  0.00    -0.068 N 
HETATM   16  H   UNL     1      42.545  -7.709  11.129  1.00  0.00     0.280 HD
HETATM   17  C   UNL     1      42.592  -9.772  10.838  1.00  0.00     0.254 C 
HETATM   18  C   UNL     1      44.125  -9.923  10.749  1.00  0.00     0.150 C 
HETATM   19  N   UNL     1      44.629  -9.518   9.425  1.00  0.00    -0.378 N 
HETATM   20  C   UNL     1      44.259  -8.140   9.049  1.00  0.00     0.150 C 
HETATM   21  C   UNL     1      42.723  -7.975   9.062  1.00  0.00     0.254 C 
BRANCH  19  22
HETATM   22  C   UNL     1      44.760 -10.448   8.390  1.00  0.00     0.031 A 
HETATM   23  C   UNL     1      43.992 -11.618   8.299  1.00  0.00     0.053 A 
HETATM   24  C   UNL     1      44.149 -12.516   7.234  1.00  0.00     0.036 A 
HETATM   25 CL   UNL     1      43.144 -13.912   7.154  1.00  0.00    -0.084 Cl
HETATM   26  C   UNL     1      45.092 -12.288   6.243  1.00  0.00     0.024 A 
HETATM   27  C   UNL     1      45.893 -11.156   6.324  1.00  0.00     0.004 A 
HETATM   28  C   UNL     1      45.728 -10.255   7.385  1.00  0.00     0.029 A 
ENDBRANCH  19  22
ENDBRANCH  14  15
ENDBRANCH  13  14
ENDBRANCH  12  13
ENDBRANCH   9  12
ENDBRANCH   5   8
BRANCH   1  29
HETATM   29  C   UNL     1      39.537 -12.815   4.015  1.00  0.00     0.296 C 
BRANCH  29  30
HETATM   30  C   UNL     1      40.427 -13.844   3.424  1.00  0.00     0.092 A 
HETATM   31  C   UNL     1      40.748 -14.040   2.098  1.00  0.00     0.078 A 
HETATM   32  C   UNL     1      40.391 -13.387   0.826  1.00  0.00     0.079 C 
HETATM   33  O   UNL     1      41.604 -15.098   2.031  1.00  0.00    -0.294 OA
HETATM   34  C   UNL     1      41.757 -15.511   3.329  1.00  0.00     0.180 A 
HETATM   35  N   UNL     1      41.071 -14.787   4.203  1.00  0.00    -0.224 NA
BRANCH  34  36
HETATM   36  C   UNL     1      42.656 -16.641   3.545  1.00  0.00     0.019 A 
HETATM   37  C   UNL     1      42.649 -17.718   2.647  1.00  0.00     0.039 A 
HETATM   38  C   UNL     1      43.494 -18.811   2.849  1.00  0.00     0.035 A 
HETATM   39 CL   UNL     1      43.458 -20.124   1.739  1.00  0.00    -0.084 Cl
HETATM   40  C   UNL     1      44.358 -18.849   3.940  1.00  0.00     0.024 A 
HETATM   41  C   UNL     1      44.378 -17.785   4.838  1.00  0.00     0.003 A 
HETATM   42  C   UNL     1      43.531 -16.689   4.642  1.00  0.00     0.016 A 
ENDBRANCH  34  36
ENDBRANCH  29  30
ENDBRANCH   1  29
TORSDOF 9
ENDMDL
MODEL 3
REMARK VINA RESULT:      -9.8      1.856      2.514
REMARK  9 active torsions:
REMARK  status: ('A' for Active; 'I' for Inactive)
REMARK    1  A    between atoms: C_4  and  C_5 
REMARK    2  A    between atoms: C_13  and  C_14 
REMARK    3  A    between atoms: C_14  and  N_15 
REMARK    4  A    between atoms: C_19  and  C_20 
REMARK       I    between atoms: C_20  and  N_21 
REMARK    5  A    between atoms: N_21  and  C_22 
REMARK    6  A    between atoms: C_22  and  C_23 
REMARK    7  A    between atoms: C_23  and  C_24 
REMARK    8  A    between atoms: C_24  and  N_25 
REMARK    9  A    between atoms: N_29  and  C_30 
ROOT
HETATM    1  N   UNL     1      39.189 -12.609   3.961  1.00  0.00    -0.066 N 
HETATM    2  H   UNL     1      38.186 -12.794   4.117  1.00  0.00     0.280 HD
HETATM    3  C   UNL     1      39.904 -12.998   5.229  1.00  0.00     0.236 C 
HETATM    4  C   UNL     1      39.563 -12.025   6.356  1.00  0.00     0.042 C 
HETATM    5  C   UNL     1      39.889 -10.578   5.984  1.00  0.00     0.081 C 
HETATM    6  C   UNL     1      39.159 -10.205   4.692  1.00  0.00     0.042 C 
HETATM    7  C   UNL     1      39.389 -11.177   3.544  1.00  0.00     0.236 C 
ENDROOT
BRANCH   5   8
HETATM    8  C   UNL     1      41.405 -10.424   5.874  1.00  0.00     0.221 C 
HETATM    9  N   UNL     1      42.132 -11.386   6.536  1.00  0.00    -0.361 N 
HETATM   10  H   UNL     1      41.637 -12.094   7.072  1.00  0.00     0.162 HD
HETATM   11  O   UNL     1      41.923  -9.578   5.150  1.00  0.00    -0.273 OA
BRANCH   9  12
HETATM   12  C   UNL     1      43.542 -11.609   6.268  1.00  0.00     0.124 C 
BRANCH  12  13
HETATM   13  C   UNL     1      44.428 -11.609   7.519  1.00  0.00     0.047 C 
BRANCH  13  14
HETATM   14  C   UNL     1      45.339 -10.383   7.507  1.00  0.00     0.236 C 
BRANCH  14  15
HETATM   15  N   UNL     1      45.039  -9.432   8.645  1.00  0.00    -0.068 N 
HETATM   16  H   UNL     1      45.797  -8.739   8.714  1.00  0.00     0.280 HD
HETATM   17  C   UNL     1      43.748  -8.639   8.348  1.00  0.00     0.254 C 
HETATM   18  C   UNL     1      43.387  -7.689   9.509  1.00  0.00     0.150 C 
HETATM   19  N   UNL     1      43.330  -8.408  10.794  1.00  0.00    -0.378 N 
HETATM   20  C   UNL     1      44.579  -9.121  11.126  1.00  0.00     0.150 C 
HETATM   21  C   UNL     1      44.932 -10.132  10.012  1.00  0.00     0.254 C 
BRANCH  19  22
HETATM   22  C   UNL     1      42.135  -8.968  11.254  1.00  0.00     0.031 A 
HETATM   23  C   UNL     1      41.076  -9.330  10.409  1.00  0.00     0.053 A 
HETATM   24  C   UNL     1      39.899  -9.901  10.914  1.00  0.00     0.036 A 
HETATM   25 CL   UNL     1      38.654 -10.369   9.821  1.00  0.00    -0.084 Cl
HETATM   26  C   UNL     1      39.734 -10.104  12.276  1.00  0.00     0.024 A 
HETATM   27  C   UNL     1      40.750  -9.721  13.142  1.00  0.00     0.004 A 
HETATM   28  C   UNL     1      41.929  -9.158  12.633  1.00  0.00     0.029 A 
ENDBRANCH  19  22
ENDBRANCH  14  15
ENDBRANCH  13  14
ENDBRANCH  12  13
ENDBRANCH   9  12
ENDBRANCH   5   8
BRANCH   1  29
HETATM   29  C   UNL     1      39.560 -13.522   2.794  1.00  0.00     0.296 C 
BRANCH  29  30
HETATM   30  C   UNL     1      40.852 -14.238   2.930  1.00  0.00     0.092 A 
HETATM   31  C   UNL     1      42.129 -13.725   2.855  1.00  0.00     0.078 A 
HETATM   32  C   UNL     1      42.709 -12.388   2.634  1.00  0.00     0.079 C 
HETATM   33  O   UNL     1      43.001 -14.753   3.047  1.00  0.00    -0.294 OA
HETATM   34  C   UNL     1      42.210 -15.859   3.218  1.00  0.00     0.180 A 
HETATM   35  N   UNL     1      40.911 -15.600   3.158  1.00  0.00    -0.224 NA
BRANCH  34  36
HETATM   36  C   UNL     1      42.907 -17.119   3.464  1.00  0.00     0.019 A 
HETATM   37  C   UNL     1      42.935 -18.105   2.468  1.00  0.00     0.039 A 
HETATM   38  C   UNL     1      43.586 -19.319   2.695  1.00  0.00     0.035 A 
HETATM   39 CL   UNL     1      43.596 -20.517   1.461  1.00  0.00    -0.084 Cl
HETATM   40  C   UNL     1      44.220 -19.569   3.909  1.00  0.00     0.024 A 
HETATM   41  C   UNL     1      44.203 -18.597   4.906  1.00  0.00     0.003 A 
HETATM   42  C   UNL     1      43.550 -17.381   4.685  1.00  0.00     0.016 A 
ENDBRANCH  34  36
ENDBRANCH  29  30
ENDBRANCH   1  29
TORSDOF 9
ENDMDL
MODEL 4
REMARK VINA RESULT:      -9.7      2.531     12.724
REMARK  9 active torsions:
REMARK  status: ('A' for Active; 'I' for Inactive)
REMARK    1  A    between atoms: C_4  and  C_5 
REMARK    2  A    between atoms: C_13  and  C_14 
REMARK    3  A    between atoms: C_14  and  N_15 
REMARK    4  A    between atoms: C_19  and  C_20 
REMARK       I    between atoms: C_20  and  N_21 
REMARK    5  A    between atoms: N_21  and  C_22 
REMARK    6  A    between atoms: C_22  and  C_23 
REMARK    7  A    between atoms: C_23  and  C_24 
REMARK    8  A    between atoms: C_24  and  N_25 
REMARK    9  A    between atoms: N_29  and  C_30 
ROOT
HETATM    1  N   UNL     1      42.905  -9.246  11.644  1.00  0.00    -0.066 N 
HETATM    2  H   UNL     1      43.425  -8.719  12.362  1.00  0.00     0.280 HD
HETATM    3  C   UNL     1      43.796 -10.380  11.208  1.00  0.00     0.236 C 
HETATM    4  C   UNL     1      44.993  -9.848  10.421  1.00  0.00     0.042 C 
HETATM    5  C   UNL     1      44.561  -9.016   9.213  1.00  0.00     0.081 C 
HETATM    6  C   UNL     1      43.653  -7.875   9.675  1.00  0.00     0.042 C 
HETATM    7  C   UNL     1      42.479  -8.323  10.535  1.00  0.00     0.236 C 
ENDROOT
BRANCH   5   8
HETATM    8  C   UNL     1      43.889  -9.934   8.193  1.00  0.00     0.221 C 
HETATM    9  N   UNL     1      44.643 -11.016   7.806  1.00  0.00    -0.361 N 
HETATM   10  H   UNL     1      45.585 -11.118   8.177  1.00  0.00     0.162 HD
HETATM   11  O   UNL     1      42.721  -9.777   7.846  1.00  0.00    -0.273 OA
BRANCH   9  12
HETATM   12  C   UNL     1      44.060 -12.162   7.131  1.00  0.00     0.124 C 
BRANCH  12  13
HETATM   13  C   UNL     1      44.245 -12.159   5.610  1.00  0.00     0.047 C 
BRANCH  13  14
HETATM   14  C   UNL     1      42.992 -11.602   4.937  1.00  0.00     0.236 C 
BRANCH  14  15
HETATM   15  N   UNL     1      42.318 -12.619   4.042  1.00  0.00    -0.068 N 
HETATM   16  H   UNL     1      41.563 -12.157   3.516  1.00  0.00     0.280 HD
HETATM   17  C   UNL     1      43.319 -13.151   2.994  1.00  0.00     0.254 C 
HETATM   18  C   UNL     1      42.677 -14.225   2.091  1.00  0.00     0.150 C 
HETATM   19  N   UNL     1      42.062 -15.301   2.889  1.00  0.00    -0.378 N 
HETATM   20  C   UNL     1      41.055 -14.818   3.853  1.00  0.00     0.150 C 
HETATM   21  C   UNL     1      41.686 -13.789   4.818  1.00  0.00     0.254 C 
BRANCH  19  22
HETATM   22  C   UNL     1      42.791 -16.439   3.244  1.00  0.00     0.031 A 
HETATM   23  C   UNL     1      42.813 -17.613   2.478  1.00  0.00     0.053 A 
HETATM   24  C   UNL     1      43.570 -18.727   2.868  1.00  0.00     0.036 A 
HETATM   25 CL   UNL     1      43.595 -20.123   1.860  1.00  0.00    -0.084 Cl
HETATM   26  C   UNL     1      44.305 -18.713   4.045  1.00  0.00     0.024 A 
HETATM   27  C   UNL     1      44.273 -17.577   4.844  1.00  0.00     0.004 A 
HETATM   28  C   UNL     1      43.523 -16.462   4.447  1.00  0.00     0.029 A 
ENDBRANCH  19  22
ENDBRANCH  14  15
ENDBRANCH  13  14
ENDBRANCH  12  13
ENDBRANCH   9  12
ENDBRANCH   5   8
BRANCH   1  29
HETATM   29  C   UNL     1      41.662  -9.748  12.377  1.00  0.00     0.296 C 
BRANCH  29  30
HETATM   30  C   UNL     1      41.142  -8.854  13.440  1.00  0.00     0.092 A 
HETATM   31  C   UNL     1      40.086  -7.971  13.377  1.00  0.00     0.078 A 
HETATM   32  C   UNL     1      39.115  -7.571  12.342  1.00  0.00     0.079 C 
HETATM   33  O   UNL     1      39.974  -7.371  14.595  1.00  0.00    -0.294 OA
HETATM   34  C   UNL     1      40.983  -7.911  15.348  1.00  0.00     0.180 A 
HETATM   35  N   UNL     1      41.712  -8.809  14.699  1.00  0.00    -0.224 NA
BRANCH  34  36
HETATM   36  C   UNL     1      41.079  -7.445  16.729  1.00  0.00     0.019 A 
HETATM   37  C   UNL     1      40.276  -8.030  17.719  1.00  0.00     0.039 A 
HETATM   38  C   UNL     1      40.349  -7.585  19.040  1.00  0.00     0.035 A 
HETATM   39 CL   UNL     1      39.346  -8.312  20.233  1.00  0.00    -0.084 Cl
HETATM   40  C   UNL     1      41.219  -6.558  19.397  1.00  0.00     0.024 A 
HETATM   41  C   UNL     1      42.024  -5.970  18.425  1.00  0.00     0.003 A 
HETATM   42  C   UNL     1      41.953  -6.410  17.100  1.00  0.00     0.016 A 
ENDBRANCH  34  36
ENDBRANCH  29  30
ENDBRANCH   1  29
TORSDOF 9
ENDMDL
MODEL 5
REMARK VINA RESULT:      -9.5      1.720      2.199
REMARK  9 active torsions:
REMARK  status: ('A' for Active; 'I' for Inactive)
REMARK    1  A    between atoms: C_4  and  C_5 
REMARK    2  A    between atoms: C_13  and  C_14 
REMARK    3  A    between atoms: C_14  and  N_15 
REMARK    4  A    between atoms: C_19  and  C_20 
REMARK       I    between atoms: C_20  and  N_21 
REMARK    5  A    between atoms: N_21  and  C_22 
REMARK    6  A    between atoms: C_22  and  C_23 
REMARK    7  A    between atoms: C_23  and  C_24 
REMARK    8  A    between atoms: C_24  and  N_25 
REMARK    9  A    between atoms: N_29  and  C_30 
ROOT
HETATM    1  N   UNL     1      41.074 -12.155   4.433  1.00  0.00    -0.066 N 
HETATM    2  H   UNL     1      40.559 -13.047   4.486  1.00  0.00     0.280 HD
HETATM    3  C   UNL     1      41.023 -11.542   5.808  1.00  0.00     0.236 C 
HETATM    4  C   UNL     1      39.604 -11.083   6.137  1.00  0.00     0.042 C 
HETATM    5  C   UNL     1      39.062 -10.101   5.096  1.00  0.00     0.081 C 
HETATM    6  C   UNL     1      39.129 -10.739   3.708  1.00  0.00     0.042 C 
HETATM    7  C   UNL     1      40.498 -11.294   3.342  1.00  0.00     0.236 C 
ENDROOT
BRANCH   5   8
HETATM    8  C   UNL     1      39.852  -8.796   5.188  1.00  0.00     0.221 C 
HETATM    9  N   UNL     1      40.088  -8.354   6.468  1.00  0.00    -0.361 N 
HETATM   10  H   UNL     1      39.704  -8.880   7.250  1.00  0.00     0.162 HD
HETATM   11  O   UNL     1      40.338  -8.258   4.197  1.00  0.00    -0.273 OA
BRANCH   9  12
HETATM   12  C   UNL     1      41.094  -7.349   6.765  1.00  0.00     0.124 C 
BRANCH  12  13
HETATM   13  C   UNL     1      41.892  -7.615   8.046  1.00  0.00     0.047 C 
BRANCH  13  14
HETATM   14  C   UNL     1      42.362  -9.069   8.070  1.00  0.00     0.236 C 
BRANCH  14  15
HETATM   15  N   UNL     1      42.043  -9.755   9.381  1.00  0.00    -0.068 N 
HETATM   16  H   UNL     1      41.848 -10.750   9.201  1.00  0.00     0.280 HD
HETATM   17  C   UNL     1      43.272  -9.713  10.315  1.00  0.00     0.254 C 
HETATM   18  C   UNL     1      42.967 -10.367  11.680  1.00  0.00     0.150 C 
HETATM   19  N   UNL     1      41.762  -9.786  12.297  1.00  0.00    -0.378 N 
HETATM   20  C   UNL     1      40.561  -9.874  11.444  1.00  0.00     0.150 C 
HETATM   21  C   UNL     1      40.811  -9.167  10.093  1.00  0.00     0.254 C 
BRANCH  19  22
HETATM   22  C   UNL     1      41.852  -8.691  13.160  1.00  0.00     0.031 A 
HETATM   23  C   UNL     1      40.750  -8.142  13.831  1.00  0.00     0.053 A 
HETATM   24  C   UNL     1      40.890  -7.049  14.698  1.00  0.00     0.036 A 
HETATM   25 CL   UNL     1      39.506  -6.451  15.530  1.00  0.00    -0.084 Cl
HETATM   26  C   UNL     1      42.127  -6.455  14.901  1.00  0.00     0.024 A 
HETATM   27  C   UNL     1      43.232  -6.953  14.221  1.00  0.00     0.004 A 
HETATM   28  C   UNL     1      43.090  -8.051  13.362  1.00  0.00     0.029 A 
ENDBRANCH  19  22
ENDBRANCH  14  15
ENDBRANCH  13  14
ENDBRANCH  12  13
ENDBRANCH   9  12
ENDBRANCH   5   8
BRANCH   1  29
HETATM   29  C   UNL     1      42.493 -12.565   4.044  1.00  0.00     0.296 C 
BRANCH  29  30
HETATM   30  C   UNL     1      42.874 -13.956   4.393  1.00  0.00     0.092 A 
HETATM   31  C   UNL     1      43.310 -14.446   5.605  1.00  0.00     0.078 A 
HETATM   32  C   UNL     1      43.561 -13.871   6.940  1.00  0.00     0.079 C 
HETATM   33  O   UNL     1      43.534 -15.781   5.456  1.00  0.00    -0.294 OA
HETATM   34  C   UNL     1      43.235 -16.045   4.145  1.00  0.00     0.180 A 
HETATM   35  N   UNL     1      42.832 -14.980   3.466  1.00  0.00    -0.224 NA
BRANCH  34  36
HETATM   36  C   UNL     1      43.376 -17.434   3.716  1.00  0.00     0.019 A 
HETATM   37  C   UNL     1      43.900 -18.386   4.602  1.00  0.00     0.039 A 
HETATM   38  C   UNL     1      44.052 -19.714   4.201  1.00  0.00     0.035 A 
HETATM   39 CL   UNL     1      44.707 -20.861   5.303  1.00  0.00    -0.084 Cl
HETATM   40  C   UNL     1      43.683 -20.116   2.920  1.00  0.00     0.024 A 
HETATM   41  C   UNL     1      43.159 -19.182   2.030  1.00  0.00     0.003 A 
HETATM   42  C   UNL     1      43.007 -17.849   2.426  1.00  0.00     0.016 A 
ENDBRANCH  34  36
ENDBRANCH  29  30
ENDBRANCH   1  29
TORSDOF 9
ENDMDL
MODEL 6
REMARK VINA RESULT:      -9.3      5.694      9.770
REMARK  9 active torsions:
REMARK  status: ('A' for Active; 'I' for Inactive)
REMARK    1  A    between atoms: C_4  and  C_5 
REMARK    2  A    between atoms: C_13  and  C_14 
REMARK    3  A    between atoms: C_14  and  N_15 
REMARK    4  A    between atoms: C_19  and  C_20 
REMARK       I    between atoms: C_20  and  N_21 
REMARK    5  A    between atoms: N_21  and  C_22 
REMARK    6  A    between atoms: C_22  and  C_23 
REMARK    7  A    between atoms: C_23  and  C_24 
REMARK    8  A    between atoms: C_24  and  N_25 
REMARK    9  A    between atoms: N_29  and  C_30 
ROOT
HETATM    1  N   UNL     1      41.545 -11.918   4.633  1.00  0.00    -0.066 N 
HETATM    2  H   UNL     1      41.955 -11.937   5.580  1.00  0.00     0.280 HD
HETATM    3  C   UNL     1      41.406 -10.467   4.250  1.00  0.00     0.236 C 
HETATM    4  C   UNL     1      40.322  -9.794   5.090  1.00  0.00     0.042 C 
HETATM    5  C   UNL     1      38.975 -10.509   4.968  1.00  0.00     0.081 C 
HETATM    6  C   UNL     1      39.138 -11.979   5.354  1.00  0.00     0.042 C 
HETATM    7  C   UNL     1      40.258 -12.697   4.613  1.00  0.00     0.236 C 
ENDROOT
BRANCH   5   8
HETATM    8  C   UNL     1      38.442 -10.324   3.548  1.00  0.00     0.221 C 
HETATM    9  N   UNL     1      37.960  -9.066   3.272  1.00  0.00    -0.361 N 
HETATM   10  H   UNL     1      37.950  -8.369   4.013  1.00  0.00     0.162 HD
HETATM   11  O   UNL     1      38.553 -11.197   2.692  1.00  0.00    -0.273 OA
BRANCH   9  12
HETATM   12  C   UNL     1      37.741  -8.604   1.912  1.00  0.00     0.124 C 
BRANCH  12  13
HETATM   13  C   UNL     1      38.991  -8.035   1.231  1.00  0.00     0.047 C 
BRANCH  13  14
HETATM   14  C   UNL     1      38.719  -7.829  -0.258  1.00  0.00     0.236 C 
BRANCH  14  15
HETATM   15  N   UNL     1      39.670  -8.618  -1.132  1.00  0.00    -0.068 N 
HETATM   16  H   UNL     1      40.337  -7.970  -1.574  1.00  0.00     0.280 HD
HETATM   17  C   UNL     1      40.509  -9.584  -0.267  1.00  0.00     0.254 C 
HETATM   18  C   UNL     1      41.461 -10.437  -1.132  1.00  0.00     0.150 C 
HETATM   19  N   UNL     1      40.733 -11.125  -2.212  1.00  0.00    -0.378 N 
HETATM   20  C   UNL     1      39.976 -10.211  -3.089  1.00  0.00     0.150 C 
HETATM   21  C   UNL     1      38.963  -9.390  -2.260  1.00  0.00     0.254 C 
BRANCH  19  22
HETATM   22  C   UNL     1      40.210 -12.407  -2.024  1.00  0.00     0.031 A 
HETATM   23  C   UNL     1      40.422 -13.167  -0.864  1.00  0.00     0.053 A 
HETATM   24  C   UNL     1      39.866 -14.445  -0.715  1.00  0.00     0.036 A 
HETATM   25 CL   UNL     1      40.123 -15.309   0.753  1.00  0.00    -0.084 Cl
HETATM   26  C   UNL     1      39.104 -15.013  -1.725  1.00  0.00     0.024 A 
HETATM   27  C   UNL     1      38.907 -14.301  -2.901  1.00  0.00     0.004 A 
HETATM   28  C   UNL     1      39.457 -13.020  -3.044  1.00  0.00     0.029 A 
ENDBRANCH  19  22
ENDBRANCH  14  15
ENDBRANCH  13  14
ENDBRANCH  12  13
ENDBRANCH   9  12
ENDBRANCH   5   8
BRANCH   1  29
HETATM   29  C   UNL     1      42.576 -12.640   3.766  1.00  0.00     0.296 C 
BRANCH  29  30
HETATM   30  C   UNL     1      42.900 -14.027   4.180  1.00  0.00     0.092 A 
HETATM   31  C   UNL     1      43.237 -14.490   5.434  1.00  0.00     0.078 A 
HETATM   32  C   UNL     1      43.404 -13.881   6.766  1.00  0.00     0.079 C 
HETATM   33  O   UNL     1      43.441 -15.833   5.338  1.00  0.00    -0.294 OA
HETATM   34  C   UNL     1      43.231 -16.129   4.016  1.00  0.00     0.180 A 
HETATM   35  N   UNL     1      42.901 -15.076   3.281  1.00  0.00    -0.224 NA
BRANCH  34  36
HETATM   36  C   UNL     1      43.371 -17.532   3.638  1.00  0.00     0.019 A 
HETATM   37  C   UNL     1      43.862 -18.459   4.568  1.00  0.00     0.039 A 
HETATM   38  C   UNL     1      44.014 -19.801   4.215  1.00  0.00     0.035 A 
HETATM   39 CL   UNL     1      44.629 -20.915   5.372  1.00  0.00    -0.084 Cl
HETATM   40  C   UNL     1      43.676 -20.242   2.938  1.00  0.00     0.024 A 
HETATM   41  C   UNL     1      43.184 -19.334   2.005  1.00  0.00     0.003 A 
HETATM   42  C   UNL     1      43.034 -17.987   2.352  1.00  0.00     0.016 A 
ENDBRANCH  34  36
ENDBRANCH  29  30
ENDBRANCH   1  29
TORSDOF 9
ENDMDL
MODEL 7
REMARK VINA RESULT:      -9.3      1.956     10.530
REMARK  9 active torsions:
REMARK  status: ('A' for Active; 'I' for Inactive)
REMARK    1  A    between atoms: C_4  and  C_5 
REMARK    2  A    between atoms: C_13  and  C_14 
REMARK    3  A    between atoms: C_14  and  N_15 
REMARK    4  A    between atoms: C_19  and  C_20 
REMARK       I    between atoms: C_20  and  N_21 
REMARK    5  A    between atoms: N_21  and  C_22 
REMARK    6  A    between atoms: C_22  and  C_23 
REMARK    7  A    between atoms: C_23  and  C_24 
REMARK    8  A    between atoms: C_24  and  N_25 
REMARK    9  A    between atoms: N_29  and  C_30 
ROOT
HETATM    1  N   UNL     1      41.675 -10.769   5.669  1.00  0.00    -0.066 N 
HETATM    2  H   UNL     1      41.316 -10.258   6.490  1.00  0.00     0.280 HD
HETATM    3  C   UNL     1      41.779  -9.767   4.548  1.00  0.00     0.236 C 
HETATM    4  C   UNL     1      40.389  -9.337   4.084  1.00  0.00     0.042 C 
HETATM    5  C   UNL     1      39.532 -10.529   3.656  1.00  0.00     0.081 C 
HETATM    6  C   UNL     1      39.444 -11.535   4.803  1.00  0.00     0.042 C 
HETATM    7  C   UNL     1      40.794 -11.951   5.373  1.00  0.00     0.236 C 
ENDROOT
BRANCH   5   8
HETATM    8  C   UNL     1      40.123 -11.132   2.382  1.00  0.00     0.221 C 
HETATM    9  N   UNL     1      39.561 -12.326   1.994  1.00  0.00    -0.361 N 
HETATM   10  H   UNL     1      38.839 -12.743   2.578  1.00  0.00     0.162 HD
HETATM   11  O   UNL     1      40.947 -10.531   1.699  1.00  0.00    -0.273 OA
BRANCH   9  12
HETATM   12  C   UNL     1      39.739 -12.865   0.658  1.00  0.00     0.124 C 
BRANCH  12  13
HETATM   13  C   UNL     1      39.972 -14.379   0.616  1.00  0.00     0.047 C 
BRANCH  13  14
HETATM   14  C   UNL     1      39.736 -14.978   2.002  1.00  0.00     0.236 C 
BRANCH  14  15
HETATM   15  N   UNL     1      40.993 -14.988   2.846  1.00  0.00    -0.068 N 
HETATM   16  H   UNL     1      41.217 -14.023   3.127  1.00  0.00     0.280 HD
HETATM   17  C   UNL     1      40.750 -15.777   4.150  1.00  0.00     0.254 C 
HETATM   18  C   UNL     1      42.025 -15.845   5.016  1.00  0.00     0.150 C 
HETATM   19  N   UNL     1      43.172 -16.357   4.246  1.00  0.00    -0.378 N 
HETATM   20  C   UNL     1      43.459 -15.577   3.027  1.00  0.00     0.150 C 
HETATM   21  C   UNL     1      42.220 -15.547   2.104  1.00  0.00     0.254 C 
BRANCH  19  22
HETATM   22  C   UNL     1      43.462 -17.723   4.210  1.00  0.00     0.031 A 
HETATM   23  C   UNL     1      43.521 -18.472   3.026  1.00  0.00     0.053 A 
HETATM   24  C   UNL     1      43.830 -19.839   3.038  1.00  0.00     0.036 A 
HETATM   25 CL   UNL     1      43.934 -20.692   1.545  1.00  0.00    -0.084 Cl
HETATM   26  C   UNL     1      44.063 -20.506   4.231  1.00  0.00     0.024 A 
HETATM   27  C   UNL     1      43.976 -19.800   5.425  1.00  0.00     0.004 A 
HETATM   28  C   UNL     1      43.676 -18.432   5.409  1.00  0.00     0.029 A 
ENDBRANCH  19  22
ENDBRANCH  14  15
ENDBRANCH  13  14
ENDBRANCH  12  13
ENDBRANCH   9  12
ENDBRANCH   5   8
BRANCH   1  29
HETATM   29  C   UNL     1      43.048 -11.272   6.113  1.00  0.00     0.296 C 
BRANCH  29  30
HETATM   30  C   UNL     1      43.510 -10.783   7.435  1.00  0.00     0.092 A 
HETATM   31  C   UNL     1      44.803 -10.599   7.876  1.00  0.00     0.078 A 
HETATM   32  C   UNL     1      46.145 -10.785   7.295  1.00  0.00     0.079 C 
HETATM   33  O   UNL     1      44.741 -10.129   9.153  1.00  0.00    -0.294 OA
HETATM   34  C   UNL     1      43.403 -10.059   9.440  1.00  0.00     0.180 A 
HETATM   35  N   UNL     1      42.623 -10.440   8.438  1.00  0.00    -0.224 NA
BRANCH  34  36
HETATM   36  C   UNL     1      43.052  -9.559  10.766  1.00  0.00     0.019 A 
HETATM   37  C   UNL     1      41.878 -10.005  11.390  1.00  0.00     0.039 A 
HETATM   38  C   UNL     1      41.524  -9.526  12.652  1.00  0.00     0.035 A 
HETATM   39 CL   UNL     1      40.074 -10.080  13.391  1.00  0.00    -0.084 Cl
HETATM   40  C   UNL     1      42.330  -8.602  13.313  1.00  0.00     0.024 A 
HETATM   41  C   UNL     1      43.500  -8.152  12.707  1.00  0.00     0.003 A 
HETATM   42  C   UNL     1      43.858  -8.627  11.441  1.00  0.00     0.016 A 
ENDBRANCH  34  36
ENDBRANCH  29  30
ENDBRANCH   1  29
TORSDOF 9
ENDMDL
MODEL 8
REMARK VINA RESULT:      -9.1      3.533     10.938
REMARK  9 active torsions:
REMARK  status: ('A' for Active; 'I' for Inactive)
REMARK    1  A    between atoms: C_4  and  C_5 
REMARK    2  A    between atoms: C_13  and  C_14 
REMARK    3  A    between atoms: C_14  and  N_15 
REMARK    4  A    between atoms: C_19  and  C_20 
REMARK       I    between atoms: C_20  and  N_21 
REMARK    5  A    between atoms: N_21  and  C_22 
REMARK    6  A    between atoms: C_22  and  C_23 
REMARK    7  A    between atoms: C_23  and  C_24 
REMARK    8  A    between atoms: C_24  and  N_25 
REMARK    9  A    between atoms: N_29  and  C_30 
ROOT
HETATM    1  N   UNL     1      42.183 -13.208   6.480  1.00  0.00    -0.066 N 
HETATM    2  H   UNL     1      42.072 -13.035   7.490  1.00  0.00     0.280 HD
HETATM    3  C   UNL     1      40.838 -13.657   5.968  1.00  0.00     0.236 C 
HETATM    4  C   UNL     1      40.499 -15.047   6.503  1.00  0.00     0.042 C 
HETATM    5  C   UNL     1      41.574 -16.077   6.151  1.00  0.00     0.081 C 
HETATM    6  C   UNL     1      42.930 -15.600   6.672  1.00  0.00     0.042 C 
HETATM    7  C   UNL     1      43.301 -14.186   6.244  1.00  0.00     0.236 C 
ENDROOT
BRANCH   5   8
HETATM    8  C   UNL     1      41.566 -16.304   4.640  1.00  0.00     0.221 C 
HETATM    9  N   UNL     1      42.788 -16.627   4.098  1.00  0.00    -0.361 N 
HETATM   10  H   UNL     1      43.604 -16.656   4.706  1.00  0.00     0.162 HD
HETATM   11  O   UNL     1      40.525 -16.315   3.989  1.00  0.00    -0.273 OA
BRANCH   9  12
HETATM   12  C   UNL     1      42.917 -17.208   2.773  1.00  0.00     0.124 C 
BRANCH  12  13
HETATM   13  C   UNL     1      43.172 -16.187   1.660  1.00  0.00     0.047 C 
BRANCH  13  14
HETATM   14  C   UNL     1      43.359 -14.797   2.266  1.00  0.00     0.236 C 
BRANCH  14  15
HETATM   15  N   UNL     1      42.094 -13.968   2.207  1.00  0.00    -0.068 N 
HETATM   16  H   UNL     1      41.495 -14.211   3.007  1.00  0.00     0.280 HD
HETATM   17  C   UNL     1      42.434 -12.469   2.356  1.00  0.00     0.254 C 
HETATM   18  C   UNL     1      41.170 -11.590   2.256  1.00  0.00     0.150 C 
HETATM   19  N   UNL     1      40.407 -11.882   1.030  1.00  0.00    -0.378 N 
HETATM   20  C   UNL     1      40.018 -13.300   0.900  1.00  0.00     0.150 C 
HETATM   21  C   UNL     1      41.271 -14.203   0.928  1.00  0.00     0.254 C 
BRANCH  19  22
HETATM   22  C   UNL     1      40.648 -11.177  -0.153  1.00  0.00     0.031 A 
HETATM   23  C   UNL     1      41.541 -10.099  -0.242  1.00  0.00     0.053 A 
HETATM   24  C   UNL     1      41.761  -9.429  -1.454  1.00  0.00     0.036 A 
HETATM   25 CL   UNL     1      42.905  -8.144  -1.510  1.00  0.00    -0.084 Cl
HETATM   26  C   UNL     1      41.079  -9.797  -2.605  1.00  0.00     0.024 A 
HETATM   27  C   UNL     1      40.160 -10.836  -2.539  1.00  0.00     0.004 A 
HETATM   28  C   UNL     1      39.949 -11.510  -1.329  1.00  0.00     0.029 A 
ENDBRANCH  19  22
ENDBRANCH  14  15
ENDBRANCH  13  14
ENDBRANCH  12  13
ENDBRANCH   9  12
ENDBRANCH   5   8
BRANCH   1  29
HETATM   29  C   UNL     1      42.584 -11.849   5.910  1.00  0.00     0.296 C 
BRANCH  29  30
HETATM   30  C   UNL     1      43.163 -10.893   6.885  1.00  0.00     0.092 A 
HETATM   31  C   UNL     1      44.488 -10.698   7.211  1.00  0.00     0.078 A 
HETATM   32  C   UNL     1      45.770 -11.286   6.782  1.00  0.00     0.079 C 
HETATM   33  O   UNL     1      44.543  -9.713   8.150  1.00  0.00    -0.294 OA
HETATM   34  C   UNL     1      43.237  -9.357   8.365  1.00  0.00     0.180 A 
HETATM   35  N   UNL     1      42.371 -10.037   7.627  1.00  0.00    -0.224 NA
BRANCH  34  36
HETATM   36  C   UNL     1      43.010  -8.287   9.333  1.00  0.00     0.019 A 
HETATM   37  C   UNL     1      43.182  -8.538  10.702  1.00  0.00     0.039 A 
HETATM   38  C   UNL     1      42.956  -7.528  11.638  1.00  0.00     0.035 A 
HETATM   39 CL   UNL     1      43.162  -7.865  13.312  1.00  0.00    -0.084 Cl
HETATM   40  C   UNL     1      42.562  -6.257  11.230  1.00  0.00     0.024 A 
HETATM   41  C   UNL     1      42.390  -5.992   9.874  1.00  0.00     0.003 A 
HETATM   42  C   UNL     1      42.613  -7.001   8.932  1.00  0.00     0.016 A 
ENDBRANCH  34  36
ENDBRANCH  29  30
ENDBRANCH   1  29
TORSDOF 9
ENDMDL
MODEL 9
REMARK VINA RESULT:      -9.1      3.200      5.784
REMARK  9 active torsions:
REMARK  status: ('A' for Active; 'I' for Inactive)
REMARK    1  A    between atoms: C_4  and  C_5 
REMARK    2  A    between atoms: C_13  and  C_14 
REMARK    3  A    between atoms: C_14  and  N_15 
REMARK    4  A    between atoms: C_19  and  C_20 
REMARK       I    between atoms: C_20  and  N_21 
REMARK    5  A    between atoms: N_21  and  C_22 
REMARK    6  A    between atoms: C_22  and  C_23 
REMARK    7  A    between atoms: C_23  and  C_24 
REMARK    8  A    between atoms: C_24  and  N_25 
REMARK    9  A    between atoms: N_29  and  C_30 
ROOT
HETATM    1  N   UNL     1      43.366 -10.622   6.969  1.00  0.00    -0.066 N 
HETATM    2  H   UNL     1      43.502 -10.135   6.070  1.00  0.00     0.280 HD
HETATM    3  C   UNL     1      42.874  -9.591   7.951  1.00  0.00     0.236 C 
HETATM    4  C   UNL     1      43.984  -8.595   8.282  1.00  0.00     0.042 C 
HETATM    5  C   UNL     1      45.235  -9.289   8.822  1.00  0.00     0.081 C 
HETATM    6  C   UNL     1      45.715 -10.335   7.815  1.00  0.00     0.042 C 
HETATM    7  C   UNL     1      44.637 -11.317   7.375  1.00  0.00     0.236 C 
ENDROOT
BRANCH   5   8
HETATM    8  C   UNL     1      44.919  -9.885  10.192  1.00  0.00     0.221 C 
HETATM    9  N   UNL     1      43.916  -9.246  10.882  1.00  0.00    -0.361 N 
HETATM   10  H   UNL     1      43.485  -8.420  10.473  1.00  0.00     0.162 HD
HETATM   11  O   UNL     1      45.439 -10.926  10.585  1.00  0.00    -0.273 OA
BRANCH   9  12
HETATM   12  C   UNL     1      43.248  -9.858  12.018  1.00  0.00     0.124 C 
BRANCH  12  13
HETATM   13  C   UNL     1      42.173  -8.978  12.665  1.00  0.00     0.047 C 
BRANCH  13  14
HETATM   14  C   UNL     1      42.122  -7.623  11.962  1.00  0.00     0.236 C 
BRANCH  14  15
HETATM   15  N   UNL     1      40.830  -7.417  11.202  1.00  0.00    -0.068 N 
HETATM   16  H   UNL     1      40.095  -7.121  11.860  1.00  0.00     0.280 HD
HETATM   17  C   UNL     1      40.990  -6.268  10.182  1.00  0.00     0.254 C 
HETATM   18  C   UNL     1      39.703  -6.059   9.357  1.00  0.00     0.150 C 
HETATM   19  N   UNL     1      39.255  -7.316   8.733  1.00  0.00    -0.378 N 
HETATM   20  C   UNL     1      39.035  -8.409   9.699  1.00  0.00     0.150 C 
HETATM   21  C   UNL     1      40.329  -8.689  10.496  1.00  0.00     0.254 C 
BRANCH  19  22
HETATM   22  C   UNL     1      39.682  -7.675   7.451  1.00  0.00     0.031 A 
HETATM   23  C   UNL     1      40.465  -6.844   6.636  1.00  0.00     0.053 A 
HETATM   24  C   UNL     1      40.880  -7.252   5.361  1.00  0.00     0.036 A 
HETATM   25 CL   UNL     1      41.880  -6.207   4.427  1.00  0.00    -0.084 Cl
HETATM   26  C   UNL     1      40.507  -8.487   4.851  1.00  0.00     0.024 A 
HETATM   27  C   UNL     1      39.701  -9.317   5.620  1.00  0.00     0.004 A 
HETATM   28  C   UNL     1      39.295  -8.910   6.898  1.00  0.00     0.029 A 
ENDBRANCH  19  22
ENDBRANCH  14  15
ENDBRANCH  13  14
ENDBRANCH  12  13
ENDBRANCH   9  12
ENDBRANCH   5   8
BRANCH   1  29
HETATM   29  C   UNL     1      42.301 -11.675   6.666  1.00  0.00     0.296 C 
BRANCH  29  30
HETATM   30  C   UNL     1      42.585 -12.556   5.507  1.00  0.00     0.092 A 
HETATM   31  C   UNL     1      42.813 -12.201   4.195  1.00  0.00     0.078 A 
HETATM   32  C   UNL     1      42.870 -10.931   3.448  1.00  0.00     0.079 C 
HETATM   33  O   UNL     1      43.036 -13.344   3.489  1.00  0.00    -0.294 OA
HETATM   34  C   UNL     1      42.920 -14.355   4.408  1.00  0.00     0.180 A 
HETATM   35  N   UNL     1      42.652 -13.931   5.635  1.00  0.00    -0.224 NA
BRANCH  34  36
HETATM   36  C   UNL     1      43.135 -15.710   3.907  1.00  0.00     0.019 A 
HETATM   37  C   UNL     1      43.407 -16.750   4.808  1.00  0.00     0.039 A 
HETATM   38  C   UNL     1      43.626 -18.047   4.342  1.00  0.00     0.035 A 
HETATM   39 CL   UNL     1      43.969 -19.302   5.466  1.00  0.00    -0.084 Cl
HETATM   40  C   UNL     1      43.575 -18.331   2.980  1.00  0.00     0.024 A 
HETATM   41  C   UNL     1      43.302 -17.309   2.074  1.00  0.00     0.003 A 
HETATM   42  C   UNL     1      43.085 -16.007   2.535  1.00  0.00     0.016 A 
ENDBRANCH  34  36
ENDBRANCH  29  30
ENDBRANCH   1  29
TORSDOF 9
ENDMDL
MODEL 10
REMARK VINA RESULT:      -9.1      2.961      4.369
REMARK  9 active torsions:
REMARK  status: ('A' for Active; 'I' for Inactive)
REMARK    1  A    between atoms: C_4  and  C_5 
REMARK    2  A    between atoms: C_13  and  C_14 
REMARK    3  A    between atoms: C_14  and  N_15 
REMARK    4  A    between atoms: C_19  and  C_20 
REMARK       I    between atoms: C_20  and  N_21 
REMARK    5  A    between atoms: N_21  and  C_22 
REMARK    6  A    between atoms: C_22  and  C_23 
REMARK    7  A    between atoms: C_23  and  C_24 
REMARK    8  A    between atoms: C_24  and  N_25 
REMARK    9  A    between atoms: N_29  and  C_30 
ROOT
HETATM    1  N   UNL     1      43.049 -12.104   6.155  1.00  0.00    -0.066 N 
HETATM    2  H   UNL     1      43.273 -11.865   5.177  1.00  0.00     0.280 HD
HETATM    3  C   UNL     1      42.295 -10.931   6.726  1.00  0.00     0.236 C 
HETATM    4  C   UNL     1      43.221  -9.727   6.887  1.00  0.00     0.042 C 
HETATM    5  C   UNL     1      44.439 -10.051   7.754  1.00  0.00     0.081 C 
HETATM    6  C   UNL     1      45.186 -11.247   7.163  1.00  0.00     0.042 C 
HETATM    7  C   UNL     1      44.307 -12.462   6.899  1.00  0.00     0.236 C 
ENDROOT
BRANCH   5   8
HETATM    8  C   UNL     1      43.974 -10.293   9.190  1.00  0.00     0.221 C 
HETATM    9  N   UNL     1      43.319  -9.232   9.770  1.00  0.00    -0.361 N 
HETATM   10  H   UNL     1      43.220  -8.367   9.245  1.00  0.00     0.162 HD
HETATM   11  O   UNL     1      44.074 -11.391   9.730  1.00  0.00    -0.273 OA
BRANCH   9  12
HETATM   12  C   UNL     1      42.515  -9.385  10.971  1.00  0.00     0.124 C 
BRANCH  12  13
HETATM   13  C   UNL     1      43.178  -8.849  12.245  1.00  0.00     0.047 C 
BRANCH  13  14
HETATM   14  C   UNL     1      42.107  -8.510  13.281  1.00  0.00     0.236 C 
BRANCH  14  15
HETATM   15  N   UNL     1      41.050  -7.576  12.732  1.00  0.00    -0.068 N 
HETATM   16  H   UNL     1      40.988  -7.700  11.713  1.00  0.00     0.280 HD
HETATM   17  C   UNL     1      39.664  -7.948  13.303  1.00  0.00     0.254 C 
HETATM   18  C   UNL     1      38.568  -6.987  12.798  1.00  0.00     0.150 C 
HETATM   19  N   UNL     1      38.928  -5.581  13.049  1.00  0.00    -0.378 N 
HETATM   20  C   UNL     1      40.222  -5.188  12.457  1.00  0.00     0.150 C 
HETATM   21  C   UNL     1      41.354  -6.090  12.996  1.00  0.00     0.254 C 
BRANCH  19  22
HETATM   22  C   UNL     1      38.549  -4.941  14.232  1.00  0.00     0.031 A 
HETATM   23  C   UNL     1      39.307  -4.983  15.411  1.00  0.00     0.053 A 
HETATM   24  C   UNL     1      38.893  -4.315  16.572  1.00  0.00     0.036 A 
HETATM   25 CL   UNL     1      39.891  -4.365  17.974  1.00  0.00    -0.084 Cl
HETATM   26  C   UNL     1      37.701  -3.606  16.599  1.00  0.00     0.024 A 
HETATM   27  C   UNL     1      36.910  -3.576  15.458  1.00  0.00     0.004 A 
HETATM   28  C   UNL     1      37.331  -4.238  14.296  1.00  0.00     0.029 A 
ENDBRANCH  19  22
ENDBRANCH  14  15
ENDBRANCH  13  14
ENDBRANCH  12  13
ENDBRANCH   9  12
ENDBRANCH   5   8
BRANCH   1  29
HETATM   29  C   UNL     1      42.168 -13.348   6.043  1.00  0.00     0.296 C 
BRANCH  29  30
HETATM   30  C   UNL     1      42.542 -14.300   4.969  1.00  0.00     0.092 A 
HETATM   31  C   UNL     1      42.854 -14.030   3.654  1.00  0.00     0.078 A 
HETATM   32  C   UNL     1      42.945 -12.812   2.828  1.00  0.00     0.079 C 
HETATM   33  O   UNL     1      43.138 -15.214   3.044  1.00  0.00    -0.294 OA
HETATM   34  C   UNL     1      42.973 -16.163   4.020  1.00  0.00     0.180 A 
HETATM   35  N   UNL     1      42.617 -15.662   5.195  1.00  0.00    -0.224 NA
BRANCH  34  36
HETATM   36  C   UNL     1      43.237 -17.544   3.628  1.00  0.00     0.019 A 
HETATM   37  C   UNL     1      43.729 -18.454   4.575  1.00  0.00     0.039 A 
HETATM   38  C   UNL     1      43.998 -19.775   4.211  1.00  0.00     0.035 A 
HETATM   39 CL   UNL     1      44.612 -20.868   5.388  1.00  0.00    -0.084 Cl
HETATM   40  C   UNL     1      43.780 -20.211   2.907  1.00  0.00     0.024 A 
HETATM   41  C   UNL     1      43.289 -19.319   1.957  1.00  0.00     0.003 A 
HETATM   42  C   UNL     1      43.020 -17.994   2.315  1.00  0.00     0.016 A 
ENDBRANCH  34  36
ENDBRANCH  29  30
ENDBRANCH   1  29
TORSDOF 9
ENDMDL
