MODEL 1
REMARK VINA RESULT:      -8.4      0.000      0.000
REMARK  6 active torsions:
REMARK  status: ('A' for Active; 'I' for Inactive)
REMARK    1  A    between atoms: C_2  and  C_3 
REMARK    2  A    between atoms: C_7  and  N_8 
REMARK       I    between atoms: N_8  and  C_9 
REMARK    3  A    between atoms: C_9  and  C_10 
REMARK    4  A    between atoms: C_11  and  C_12 
REMARK    5  A    between atoms: C_14  and  O_15 
REMARK    6  A    between atoms: C_17  and  O_18 
ROOT
HETATM    1  N   UNL     1      42.342 -15.989   2.371  1.00  0.00    -0.322 N 
HETATM    2  C   UNL     1      40.970 -15.812   2.289  1.00  0.00     0.245 C 
HETATM    3  O   UNL     1      40.130 -16.224   3.078  1.00  0.00    -0.268 OA
HETATM    4  H   UNL     1      42.832 -15.893   1.494  1.00  0.00     0.169 HD
ENDROOT
BRANCH   1   5
HETATM    5  C   UNL     1      42.980 -16.777   3.376  1.00  0.00     0.055 C 
HETATM    6  C   UNL     1      43.274 -18.160   3.192  1.00  0.00     0.020 A 
HETATM    7  C   UNL     1      44.049 -18.779   4.188  1.00  0.00     0.069 A 
HETATM    8  C   UNL     1      42.801 -18.978   2.129  1.00  0.00     0.016 A 
HETATM    9  N   UNL     1      44.481 -18.137   5.279  1.00  0.00    -0.252 NA
HETATM   10  C   UNL     1      44.384 -20.122   4.066  1.00  0.00     0.032 A 
HETATM   11  C   UNL     1      44.140 -16.845   5.482  1.00  0.00     0.043 C 
HETATM   12  C   UNL     1      43.327 -16.135   4.589  1.00  0.00    -0.010 C 
HETATM   13  C   UNL     1      42.928 -14.711   4.872  1.00  0.00     0.052 C 
HETATM   14  C   UNL     1      43.947 -20.900   2.994  1.00  0.00     0.002 A 
HETATM   15  C   UNL     1      43.140 -20.327   2.026  1.00  0.00     0.001 A 
BRANCH  11  16
HETATM   16  C   UNL     1      44.682 -16.212   6.748  1.00  0.00     0.055 C 
HETATM   17  C   UNL     1      43.914 -16.566   8.018  1.00  0.00     0.011 C 
ENDBRANCH  11  16
ENDBRANCH   1   5
BRANCH   2  18
HETATM   18  C   UNL     1      40.567 -15.117   1.032  1.00  0.00     0.075 C 
HETATM   19  C   UNL     1      40.947 -13.842   0.852  1.00  0.00     0.017 C 
BRANCH  19  20
HETATM   20  C   UNL     1      40.618 -12.998  -0.306  1.00  0.00    -0.033 A 
HETATM   21  C   UNL     1      39.951 -13.590  -1.392  1.00  0.00     0.051 A 
HETATM   22  C   UNL     1      39.677 -12.866  -2.558  1.00  0.00     0.102 A 
HETATM   23  C   UNL     1      40.089 -11.526  -2.639  1.00  0.00     0.101 A 
HETATM   24  C   UNL     1      40.736 -10.922  -1.558  1.00  0.00     0.040 A 
HETATM   25  C   UNL     1      41.011 -11.659  -0.403  1.00  0.00     0.014 A 
BRANCH  22  26
HETATM   26  O   UNL     1      39.041 -13.372  -3.662  1.00  0.00    -0.353 OA
HETATM   27  C   UNL     1      38.272 -14.554  -3.492  1.00  0.00     0.210 C 
ENDBRANCH  22  26
BRANCH  23  28
HETATM   28  O   UNL     1      39.789 -10.830  -3.784  1.00  0.00    -0.353 OA
HETATM   29  C   UNL     1      38.789  -9.832  -3.596  1.00  0.00     0.210 C 
ENDBRANCH  23  28
ENDBRANCH  19  20
ENDBRANCH   2  18
TORSDOF 6
ENDMDL
MODEL 2
REMARK VINA RESULT:      -8.4      0.946      1.888
REMARK  6 active torsions:
REMARK  status: ('A' for Active; 'I' for Inactive)
REMARK    1  A    between atoms: C_2  and  C_3 
REMARK    2  A    between atoms: C_7  and  N_8 
REMARK       I    between atoms: N_8  and  C_9 
REMARK    3  A    between atoms: C_9  and  C_10 
REMARK    4  A    between atoms: C_11  and  C_12 
REMARK    5  A    between atoms: C_14  and  O_15 
REMARK    6  A    between atoms: C_17  and  O_18 
ROOT
HETATM    1  N   UNL     1      42.305 -15.751   2.137  1.00  0.00    -0.322 N 
HETATM    2  C   UNL     1      40.944 -15.595   1.930  1.00  0.00     0.245 C 
HETATM    3  O   UNL     1      40.043 -15.993   2.655  1.00  0.00    -0.268 OA
HETATM    4  H   UNL     1      42.869 -15.676   1.304  1.00  0.00     0.169 HD
ENDROOT
BRANCH   1   5
HETATM    5  C   UNL     1      42.861 -16.497   3.220  1.00  0.00     0.055 C 
HETATM    6  C   UNL     1      43.167 -17.885   3.114  1.00  0.00     0.020 A 
HETATM    7  C   UNL     1      43.861 -18.463   4.192  1.00  0.00     0.069 A 
HETATM    8  C   UNL     1      42.779 -18.745   2.050  1.00  0.00     0.016 A 
HETATM    9  N   UNL     1      44.206 -17.777   5.288  1.00  0.00    -0.252 NA
HETATM   10  C   UNL     1      44.204 -19.809   4.149  1.00  0.00     0.032 A 
HETATM   11  C   UNL     1      43.850 -16.479   5.412  1.00  0.00     0.043 C 
HETATM   12  C   UNL     1      43.111 -15.806   4.430  1.00  0.00    -0.010 C 
HETATM   13  C   UNL     1      42.692 -14.373   4.624  1.00  0.00     0.052 C 
HETATM   14  C   UNL     1      43.853 -20.629   3.078  1.00  0.00     0.002 A 
HETATM   15  C   UNL     1      43.125 -20.096   2.027  1.00  0.00     0.001 A 
BRANCH  11  16
HETATM   16  C   UNL     1      44.291 -15.795   6.691  1.00  0.00     0.055 C 
HETATM   17  C   UNL     1      43.263 -15.829   7.818  1.00  0.00     0.011 C 
ENDBRANCH  11  16
ENDBRANCH   1   5
BRANCH   2  18
HETATM   18  C   UNL     1      40.644 -14.947   0.620  1.00  0.00     0.075 C 
HETATM   19  C   UNL     1      40.481 -13.614   0.585  1.00  0.00     0.017 C 
BRANCH  19  20
HETATM   20  C   UNL     1      40.156 -12.815  -0.605  1.00  0.00    -0.033 A 
HETATM   21  C   UNL     1      40.963 -11.701  -0.898  1.00  0.00     0.051 A 
HETATM   22  C   UNL     1      40.664 -10.851  -1.969  1.00  0.00     0.102 A 
HETATM   23  C   UNL     1      39.532 -11.118  -2.754  1.00  0.00     0.101 A 
HETATM   24  C   UNL     1      38.734 -12.232  -2.484  1.00  0.00     0.040 A 
HETATM   25  C   UNL     1      39.038 -13.068  -1.406  1.00  0.00     0.014 A 
BRANCH  22  26
HETATM   26  O   UNL     1      41.392  -9.741  -2.314  1.00  0.00    -0.353 OA
HETATM   27  C   UNL     1      42.093  -9.068  -1.277  1.00  0.00     0.210 C 
ENDBRANCH  22  26
BRANCH  23  28
HETATM   28  O   UNL     1      39.272 -10.283  -3.813  1.00  0.00    -0.353 OA
HETATM   29  C   UNL     1      38.002  -9.642  -3.733  1.00  0.00     0.210 C 
ENDBRANCH  23  28
ENDBRANCH  19  20
ENDBRANCH   2  18
TORSDOF 6
ENDMDL
MODEL 3
REMARK VINA RESULT:      -8.2      0.827      3.098
REMARK  6 active torsions:
REMARK  status: ('A' for Active; 'I' for Inactive)
REMARK    1  A    between atoms: C_2  and  C_3 
REMARK    2  A    between atoms: C_7  and  N_8 
REMARK       I    between atoms: N_8  and  C_9 
REMARK    3  A    between atoms: C_9  and  C_10 
REMARK    4  A    between atoms: C_11  and  C_12 
REMARK    5  A    between atoms: C_14  and  O_15 
REMARK    6  A    between atoms: C_17  and  O_18 
ROOT
HETATM    1  N   UNL     1      42.392 -15.862   2.743  1.00  0.00    -0.322 N 
HETATM    2  C   UNL     1      41.029 -15.768   2.513  1.00  0.00     0.245 C 
HETATM    3  O   UNL     1      40.135 -16.218   3.215  1.00  0.00    -0.268 OA
HETATM    4  H   UNL     1      42.967 -15.748   1.922  1.00  0.00     0.169 HD
ENDROOT
BRANCH   1   5
HETATM    5  C   UNL     1      42.963 -16.597   3.827  1.00  0.00     0.055 C 
HETATM    6  C   UNL     1      43.017 -16.083   5.155  1.00  0.00     0.020 A 
HETATM    7  C   UNL     1      43.452 -16.968   6.157  1.00  0.00     0.069 A 
HETATM    8  C   UNL     1      42.731 -14.745   5.543  1.00  0.00     0.016 A 
HETATM    9  N   UNL     1      43.831 -18.225   5.904  1.00  0.00    -0.252 NA
HETATM   10  C   UNL     1      43.516 -16.537   7.477  1.00  0.00     0.032 A 
HETATM   11  C   UNL     1      43.845 -18.684   4.633  1.00  0.00     0.043 C 
HETATM   12  C   UNL     1      43.485 -17.881   3.542  1.00  0.00    -0.010 C 
HETATM   13  C   UNL     1      43.558 -18.412   2.135  1.00  0.00     0.052 C 
HETATM   14  C   UNL     1      43.190 -15.232   7.847  1.00  0.00     0.002 A 
HETATM   15  C   UNL     1      42.807 -14.327   6.872  1.00  0.00     0.001 A 
BRANCH  11  16
HETATM   16  C   UNL     1      44.290 -20.122   4.456  1.00  0.00     0.055 C 
HETATM   17  C   UNL     1      43.839 -21.069   5.564  1.00  0.00     0.011 C 
ENDBRANCH  11  16
ENDBRANCH   1   5
BRANCH   2  18
HETATM   18  C   UNL     1      40.723 -15.115   1.206  1.00  0.00     0.075 C 
HETATM   19  C   UNL     1      40.884 -13.786   1.099  1.00  0.00     0.017 C 
BRANCH  19  20
HETATM   20  C   UNL     1      40.606 -12.976  -0.096  1.00  0.00    -0.033 A 
HETATM   21  C   UNL     1      40.018 -13.609  -1.205  1.00  0.00     0.051 A 
HETATM   22  C   UNL     1      39.798 -12.918  -2.402  1.00  0.00     0.102 A 
HETATM   23  C   UNL     1      40.183 -11.571  -2.491  1.00  0.00     0.101 A 
HETATM   24  C   UNL     1      40.751 -10.926  -1.389  1.00  0.00     0.040 A 
HETATM   25  C   UNL     1      40.973 -11.631  -0.202  1.00  0.00     0.014 A 
BRANCH  22  26
HETATM   26  O   UNL     1      39.241 -13.463  -3.530  1.00  0.00    -0.353 OA
HETATM   27  C   UNL     1      38.376 -14.578  -3.361  1.00  0.00     0.210 C 
ENDBRANCH  22  26
BRANCH  23  28
HETATM   28  O   UNL     1      39.937 -10.907  -3.668  1.00  0.00    -0.353 OA
HETATM   29  C   UNL     1      40.662  -9.687  -3.794  1.00  0.00     0.210 C 
ENDBRANCH  23  28
ENDBRANCH  19  20
ENDBRANCH   2  18
TORSDOF 6
ENDMDL
MODEL 4
REMARK VINA RESULT:      -7.9      3.046      9.247
REMARK  6 active torsions:
REMARK  status: ('A' for Active; 'I' for Inactive)
REMARK    1  A    between atoms: C_2  and  C_3 
REMARK    2  A    between atoms: C_7  and  N_8 
REMARK       I    between atoms: N_8  and  C_9 
REMARK    3  A    between atoms: C_9  and  C_10 
REMARK    4  A    between atoms: C_11  and  C_12 
REMARK    5  A    between atoms: C_14  and  O_15 
REMARK    6  A    between atoms: C_17  and  O_18 
ROOT
HETATM    1  N   UNL     1      40.029 -13.557   1.703  1.00  0.00    -0.322 N 
HETATM    2  C   UNL     1      41.383 -13.329   1.887  1.00  0.00     0.245 C 
HETATM    3  O   UNL     1      42.052 -12.441   1.378  1.00  0.00    -0.268 OA
HETATM    4  H   UNL     1      39.728 -14.498   1.911  1.00  0.00     0.169 HD
ENDROOT
BRANCH   1   5
HETATM    5  C   UNL     1      39.216 -12.811   0.796  1.00  0.00     0.055 C 
HETATM    6  C   UNL     1      39.052 -13.187  -0.569  1.00  0.00     0.020 A 
HETATM    7  C   UNL     1      38.099 -12.468  -1.311  1.00  0.00     0.069 A 
HETATM    8  C   UNL     1      39.807 -14.176  -1.258  1.00  0.00     0.016 A 
HETATM    9  N   UNL     1      37.387 -11.458  -0.799  1.00  0.00    -0.252 NA
HETATM   10  C   UNL     1      37.877 -12.790  -2.645  1.00  0.00     0.032 A 
HETATM   11  C   UNL     1      37.599 -11.061   0.475  1.00  0.00     0.043 C 
HETATM   12  C   UNL     1      38.559 -11.664   1.299  1.00  0.00    -0.010 C 
HETATM   13  C   UNL     1      38.800 -11.163   2.699  1.00  0.00     0.052 C 
HETATM   14  C   UNL     1      38.597 -13.793  -3.294  1.00  0.00     0.002 A 
HETATM   15  C   UNL     1      39.577 -14.482  -2.599  1.00  0.00     0.001 A 
BRANCH  11  16
HETATM   16  C   UNL     1      36.740  -9.910   0.958  1.00  0.00     0.055 C 
HETATM   17  C   UNL     1      36.454  -8.842  -0.095  1.00  0.00     0.011 C 
ENDBRANCH  11  16
ENDBRANCH   1   5
BRANCH   2  18
HETATM   18  C   UNL     1      42.020 -14.380   2.734  1.00  0.00     0.075 C 
HETATM   19  C   UNL     1      42.188 -15.608   2.217  1.00  0.00     0.017 C 
BRANCH  19  20
HETATM   20  C   UNL     1      42.768 -16.766   2.912  1.00  0.00    -0.033 A 
HETATM   21  C   UNL     1      43.082 -16.633   4.276  1.00  0.00     0.051 A 
HETATM   22  C   UNL     1      43.710 -17.668   4.979  1.00  0.00     0.102 A 
HETATM   23  C   UNL     1      44.034 -18.853   4.301  1.00  0.00     0.101 A 
HETATM   24  C   UNL     1      43.709 -19.004   2.950  1.00  0.00     0.040 A 
HETATM   25  C   UNL     1      43.092 -17.959   2.257  1.00  0.00     0.014 A 
BRANCH  22  26
HETATM   26  O   UNL     1      44.058 -17.614   6.305  1.00  0.00    -0.353 OA
HETATM   27  C   UNL     1      43.346 -16.706   7.133  1.00  0.00     0.210 C 
ENDBRANCH  22  26
BRANCH  23  28
HETATM   28  O   UNL     1      44.628 -19.863   5.018  1.00  0.00    -0.353 OA
HETATM   29  C   UNL     1      43.878 -21.074   5.022  1.00  0.00     0.210 C 
ENDBRANCH  23  28
ENDBRANCH  19  20
ENDBRANCH   2  18
TORSDOF 6
ENDMDL
MODEL 5
REMARK VINA RESULT:      -7.8      1.037      3.567
REMARK  6 active torsions:
REMARK  status: ('A' for Active; 'I' for Inactive)
REMARK    1  A    between atoms: C_2  and  C_3 
REMARK    2  A    between atoms: C_7  and  N_8 
REMARK       I    between atoms: N_8  and  C_9 
REMARK    3  A    between atoms: C_9  and  C_10 
REMARK    4  A    between atoms: C_11  and  C_12 
REMARK    5  A    between atoms: C_14  and  O_15 
REMARK    6  A    between atoms: C_17  and  O_18 
ROOT
HETATM    1  N   UNL     1      42.349 -15.836   2.573  1.00  0.00    -0.322 N 
HETATM    2  C   UNL     1      40.983 -15.717   2.374  1.00  0.00     0.245 C 
HETATM    3  O   UNL     1      40.097 -16.101   3.124  1.00  0.00    -0.268 OA
HETATM    4  H   UNL     1      42.903 -15.784   1.732  1.00  0.00     0.169 HD
ENDROOT
BRANCH   1   5
HETATM    5  C   UNL     1      42.931 -16.524   3.681  1.00  0.00     0.055 C 
HETATM    6  C   UNL     1      42.991 -15.957   4.988  1.00  0.00     0.020 A 
HETATM    7  C   UNL     1      43.437 -16.798   6.021  1.00  0.00     0.069 A 
HETATM    8  C   UNL     1      42.701 -14.605   5.324  1.00  0.00     0.016 A 
HETATM    9  N   UNL     1      43.820 -18.064   5.817  1.00  0.00    -0.252 NA
HETATM   10  C   UNL     1      43.507 -16.315   7.323  1.00  0.00     0.032 A 
HETATM   11  C   UNL     1      43.828 -18.573   4.565  1.00  0.00     0.043 C 
HETATM   12  C   UNL     1      43.456 -17.816   3.445  1.00  0.00    -0.010 C 
HETATM   13  C   UNL     1      43.523 -18.403   2.060  1.00  0.00     0.052 C 
HETATM   14  C   UNL     1      43.178 -14.998   7.642  1.00  0.00     0.002 A 
HETATM   15  C   UNL     1      42.784 -14.134   6.634  1.00  0.00     0.001 A 
BRANCH  11  16
HETATM   16  C   UNL     1      44.278 -20.015   4.443  1.00  0.00     0.055 C 
HETATM   17  C   UNL     1      43.863 -20.912   5.605  1.00  0.00     0.011 C 
ENDBRANCH  11  16
ENDBRANCH   1   5
BRANCH   2  18
HETATM   18  C   UNL     1      40.658 -15.131   1.041  1.00  0.00     0.075 C 
HETATM   19  C   UNL     1      40.465 -13.804   0.951  1.00  0.00     0.017 C 
BRANCH  19  20
HETATM   20  C   UNL     1      40.112 -13.063  -0.268  1.00  0.00    -0.033 A 
HETATM   21  C   UNL     1      40.784 -11.856  -0.529  1.00  0.00     0.051 A 
HETATM   22  C   UNL     1      40.444 -11.060  -1.629  1.00  0.00     0.102 A 
HETATM   23  C   UNL     1      39.405 -11.478  -2.476  1.00  0.00     0.101 A 
HETATM   24  C   UNL     1      38.743 -12.685  -2.236  1.00  0.00     0.040 A 
HETATM   25  C   UNL     1      39.086 -13.465  -1.129  1.00  0.00     0.014 A 
BRANCH  22  26
HETATM   26  O   UNL     1      41.042  -9.868  -1.948  1.00  0.00    -0.353 OA
HETATM   27  C   UNL     1      41.998  -9.349  -1.033  1.00  0.00     0.210 C 
ENDBRANCH  22  26
BRANCH  23  28
HETATM   28  O   UNL     1      39.104 -10.692  -3.561  1.00  0.00    -0.353 OA
HETATM   29  C   UNL     1      37.858 -10.012  -3.441  1.00  0.00     0.210 C 
ENDBRANCH  23  28
ENDBRANCH  19  20
ENDBRANCH   2  18
TORSDOF 6
ENDMDL
MODEL 6
REMARK VINA RESULT:      -7.7      4.979      9.085
REMARK  6 active torsions:
REMARK  status: ('A' for Active; 'I' for Inactive)
REMARK    1  A    between atoms: C_2  and  C_3 
REMARK    2  A    between atoms: C_7  and  N_8 
REMARK       I    between atoms: N_8  and  C_9 
REMARK    3  A    between atoms: C_9  and  C_10 
REMARK    4  A    between atoms: C_11  and  C_12 
REMARK    5  A    between atoms: C_14  and  O_15 
REMARK    6  A    between atoms: C_17  and  O_18 
ROOT
HETATM    1  N   UNL     1      42.746 -12.067   5.644  1.00  0.00    -0.322 N 
HETATM    2  C   UNL     1      42.823 -11.956   4.265  1.00  0.00     0.245 C 
HETATM    3  O   UNL     1      42.760 -10.925   3.609  1.00  0.00    -0.268 OA
HETATM    4  H   UNL     1      42.475 -12.979   5.979  1.00  0.00     0.169 HD
ENDROOT
BRANCH   1   5
HETATM    5  C   UNL     1      42.488 -10.964   6.515  1.00  0.00     0.055 C 
HETATM    6  C   UNL     1      43.531 -10.258   7.183  1.00  0.00     0.020 A 
HETATM    7  C   UNL     1      43.160  -9.094   7.878  1.00  0.00     0.069 A 
HETATM    8  C   UNL     1      44.893 -10.659   7.260  1.00  0.00     0.016 A 
HETATM    9  N   UNL     1      41.896  -8.661   7.951  1.00  0.00    -0.252 NA
HETATM   10  C   UNL     1      44.127  -8.348   8.540  1.00  0.00     0.032 A 
HETATM   11  C   UNL     1      40.903  -9.374   7.375  1.00  0.00     0.043 C 
HETATM   12  C   UNL     1      41.139 -10.579   6.700  1.00  0.00    -0.010 C 
HETATM   13  C   UNL     1      40.002 -11.370   6.111  1.00  0.00     0.052 C 
HETATM   14  C   UNL     1      45.467  -8.733   8.570  1.00  0.00     0.002 A 
HETATM   15  C   UNL     1      45.850  -9.903   7.936  1.00  0.00     0.001 A 
BRANCH  11  16
HETATM   16  C   UNL     1      39.510  -8.795   7.516  1.00  0.00     0.055 C 
HETATM   17  C   UNL     1      39.311  -7.440   6.844  1.00  0.00     0.011 C 
ENDBRANCH  11  16
ENDBRANCH   1   5
BRANCH   2  18
HETATM   18  C   UNL     1      42.897 -13.288   3.597  1.00  0.00     0.075 C 
HETATM   19  C   UNL     1      43.154 -14.371   4.349  1.00  0.00     0.017 C 
BRANCH  19  20
HETATM   20  C   UNL     1      43.289 -15.750   3.859  1.00  0.00    -0.033 A 
HETATM   21  C   UNL     1      43.656 -16.748   4.778  1.00  0.00     0.051 A 
HETATM   22  C   UNL     1      43.880 -18.067   4.365  1.00  0.00     0.102 A 
HETATM   23  C   UNL     1      43.741 -18.387   3.006  1.00  0.00     0.101 A 
HETATM   24  C   UNL     1      43.358 -17.407   2.087  1.00  0.00     0.040 A 
HETATM   25  C   UNL     1      43.147 -16.093   2.510  1.00  0.00     0.014 A 
BRANCH  22  26
HETATM   26  O   UNL     1      44.250 -19.095   5.195  1.00  0.00    -0.353 OA
HETATM   27  C   UNL     1      43.449 -19.329   6.345  1.00  0.00     0.210 C 
ENDBRANCH  22  26
BRANCH  23  28
HETATM   28  O   UNL     1      43.944 -19.692   2.629  1.00  0.00    -0.353 OA
HETATM   29  C   UNL     1      42.873 -20.234   1.860  1.00  0.00     0.210 C 
ENDBRANCH  23  28
ENDBRANCH  19  20
ENDBRANCH   2  18
TORSDOF 6
ENDMDL
MODEL 7
REMARK VINA RESULT:      -7.7      6.727     10.357
REMARK  6 active torsions:
REMARK  status: ('A' for Active; 'I' for Inactive)
REMARK    1  A    between atoms: C_2  and  C_3 
REMARK    2  A    between atoms: C_7  and  N_8 
REMARK       I    between atoms: N_8  and  C_9 
REMARK    3  A    between atoms: C_9  and  C_10 
REMARK    4  A    between atoms: C_11  and  C_12 
REMARK    5  A    between atoms: C_14  and  O_15 
REMARK    6  A    between atoms: C_17  and  O_18 
ROOT
HETATM    1  N   UNL     1      43.451 -10.649   8.614  1.00  0.00    -0.322 N 
HETATM    2  C   UNL     1      44.670 -10.787   7.971  1.00  0.00     0.245 C 
HETATM    3  O   UNL     1      45.630 -10.034   8.052  1.00  0.00    -0.268 OA
HETATM    4  H   UNL     1      42.687 -11.144   8.180  1.00  0.00     0.169 HD
ENDROOT
BRANCH   1   5
HETATM    5  C   UNL     1      43.105  -9.524   9.424  1.00  0.00     0.055 C 
HETATM    6  C   UNL     1      42.588  -8.315   8.874  1.00  0.00     0.020 A 
HETATM    7  C   UNL     1      42.135  -7.348   9.787  1.00  0.00     0.069 A 
HETATM    8  C   UNL     1      42.550  -7.978   7.492  1.00  0.00     0.016 A 
HETATM    9  N   UNL     1      42.198  -7.513  11.114  1.00  0.00    -0.252 NA
HETATM   10  C   UNL     1      41.605  -6.152   9.319  1.00  0.00     0.032 A 
HETATM   11  C   UNL     1      42.755  -8.631  11.630  1.00  0.00     0.043 C 
HETATM   12  C   UNL     1      43.291  -9.644  10.822  1.00  0.00    -0.010 C 
HETATM   13  C   UNL     1      43.945 -10.854  11.433  1.00  0.00     0.052 C 
HETATM   14  C   UNL     1      41.536  -5.855   7.959  1.00  0.00     0.002 A 
HETATM   15  C   UNL     1      42.023  -6.769   7.040  1.00  0.00     0.001 A 
BRANCH  11  16
HETATM   16  C   UNL     1      42.776  -8.719  13.142  1.00  0.00     0.055 C 
HETATM   17  C   UNL     1      43.140  -7.418  13.851  1.00  0.00     0.011 C 
ENDBRANCH  11  16
ENDBRANCH   1   5
BRANCH   2  18
HETATM   18  C   UNL     1      44.683 -11.949   7.035  1.00  0.00     0.075 C 
HETATM   19  C   UNL     1      43.721 -12.879   7.151  1.00  0.00     0.017 C 
BRANCH  19  20
HETATM   20  C   UNL     1      43.595 -14.098   6.339  1.00  0.00    -0.033 A 
HETATM   21  C   UNL     1      43.100 -13.973   5.028  1.00  0.00     0.051 A 
HETATM   22  C   UNL     1      42.880 -15.100   4.227  1.00  0.00     0.102 A 
HETATM   23  C   UNL     1      43.152 -16.373   4.753  1.00  0.00     0.101 A 
HETATM   24  C   UNL     1      43.661 -16.506   6.047  1.00  0.00     0.040 A 
HETATM   25  C   UNL     1      43.868 -15.374   6.840  1.00  0.00     0.014 A 
BRANCH  22  26
HETATM   26  O   UNL     1      42.392 -15.065   2.946  1.00  0.00    -0.353 OA
HETATM   27  C   UNL     1      43.263 -14.595   1.926  1.00  0.00     0.210 C 
ENDBRANCH  22  26
BRANCH  23  28
HETATM   28  O   UNL     1      42.949 -17.461   3.940  1.00  0.00    -0.353 OA
HETATM   29  C   UNL     1      44.051 -18.364   3.914  1.00  0.00     0.210 C 
ENDBRANCH  23  28
ENDBRANCH  19  20
ENDBRANCH   2  18
TORSDOF 6
ENDMDL
MODEL 8
REMARK VINA RESULT:      -7.7      6.867     10.498
REMARK  6 active torsions:
REMARK  status: ('A' for Active; 'I' for Inactive)
REMARK    1  A    between atoms: C_2  and  C_3 
REMARK    2  A    between atoms: C_7  and  N_8 
REMARK       I    between atoms: N_8  and  C_9 
REMARK    3  A    between atoms: C_9  and  C_10 
REMARK    4  A    between atoms: C_11  and  C_12 
REMARK    5  A    between atoms: C_14  and  O_15 
REMARK    6  A    between atoms: C_17  and  O_18 
ROOT
HETATM    1  N   UNL     1      43.454 -10.528   8.637  1.00  0.00    -0.322 N 
HETATM    2  C   UNL     1      44.702 -10.725   8.069  1.00  0.00     0.245 C 
HETATM    3  O   UNL     1      45.703 -10.044   8.247  1.00  0.00    -0.268 OA
HETATM    4  H   UNL     1      42.690 -10.952   8.132  1.00  0.00     0.169 HD
ENDROOT
BRANCH   1   5
HETATM    5  C   UNL     1      43.129  -9.414   9.470  1.00  0.00     0.055 C 
HETATM    6  C   UNL     1      42.624  -8.189   8.946  1.00  0.00     0.020 A 
HETATM    7  C   UNL     1      42.189  -7.234   9.881  1.00  0.00     0.069 A 
HETATM    8  C   UNL     1      42.580  -7.826   7.571  1.00  0.00     0.016 A 
HETATM    9  N   UNL     1      42.260  -7.424  11.204  1.00  0.00    -0.252 NA
HETATM   10  C   UNL     1      41.672  -6.022   9.440  1.00  0.00     0.032 A 
HETATM   11  C   UNL     1      42.805  -8.559  11.694  1.00  0.00     0.043 C 
HETATM   12  C   UNL     1      43.323  -9.563  10.864  1.00  0.00    -0.010 C 
HETATM   13  C   UNL     1      43.966 -10.793  11.448  1.00  0.00     0.052 C 
HETATM   14  C   UNL     1      41.597  -5.698   8.085  1.00  0.00     0.002 A 
HETATM   15  C   UNL     1      42.065  -6.601   7.146  1.00  0.00     0.001 A 
BRANCH  11  16
HETATM   16  C   UNL     1      42.836  -8.676  13.205  1.00  0.00     0.055 C 
HETATM   17  C   UNL     1      43.160  -7.377  13.938  1.00  0.00     0.011 C 
ENDBRANCH  11  16
ENDBRANCH   1   5
BRANCH   2  18
HETATM   18  C   UNL     1      44.703 -11.848   7.087  1.00  0.00     0.075 C 
HETATM   19  C   UNL     1      43.550 -12.494   6.848  1.00  0.00     0.017 C 
BRANCH  19  20
HETATM   20  C   UNL     1      43.371 -13.635   5.939  1.00  0.00    -0.033 A 
HETATM   21  C   UNL     1      43.768 -14.908   6.384  1.00  0.00     0.051 A 
HETATM   22  C   UNL     1      43.700 -16.024   5.543  1.00  0.00     0.102 A 
HETATM   23  C   UNL     1      43.234 -15.859   4.229  1.00  0.00     0.101 A 
HETATM   24  C   UNL     1      42.819 -14.602   3.782  1.00  0.00     0.040 A 
HETATM   25  C   UNL     1      42.901 -13.494   4.629  1.00  0.00     0.014 A 
BRANCH  22  26
HETATM   26  O   UNL     1      44.076 -17.295   5.896  1.00  0.00    -0.353 OA
HETATM   27  C   UNL     1      43.380 -17.909   6.972  1.00  0.00     0.210 C 
ENDBRANCH  22  26
BRANCH  23  28
HETATM   28  O   UNL     1      43.155 -16.972   3.430  1.00  0.00    -0.353 OA
HETATM   29  C   UNL     1      43.213 -16.677   2.037  1.00  0.00     0.210 C 
ENDBRANCH  23  28
ENDBRANCH  19  20
ENDBRANCH   2  18
TORSDOF 6
ENDMDL
MODEL 9
REMARK VINA RESULT:      -7.7     14.243     17.118
REMARK  6 active torsions:
REMARK  status: ('A' for Active; 'I' for Inactive)
REMARK    1  A    between atoms: C_2  and  C_3 
REMARK    2  A    between atoms: C_7  and  N_8 
REMARK       I    between atoms: N_8  and  C_9 
REMARK    3  A    between atoms: C_9  and  C_10 
REMARK    4  A    between atoms: C_11  and  C_12 
REMARK    5  A    between atoms: C_14  and  O_15 
REMARK    6  A    between atoms: C_17  and  O_18 
ROOT
HETATM    1  N   UNL     1      43.456 -30.481   1.072  1.00  0.00    -0.322 N 
HETATM    2  C   UNL     1      42.251 -29.849   1.333  1.00  0.00     0.245 C 
HETATM    3  O   UNL     1      42.012 -28.655   1.224  1.00  0.00    -0.268 OA
HETATM    4  H   UNL     1      43.572 -31.372   1.530  1.00  0.00     0.169 HD
ENDROOT
BRANCH   1   5
HETATM    5  C   UNL     1      44.652 -29.788   0.710  1.00  0.00     0.055 C 
HETATM    6  C   UNL     1      44.876 -29.286  -0.605  1.00  0.00     0.020 A 
HETATM    7  C   UNL     1      46.014 -28.483  -0.789  1.00  0.00     0.069 A 
HETATM    8  C   UNL     1      44.088 -29.577  -1.754  1.00  0.00     0.016 A 
HETATM    9  N   UNL     1      46.879 -28.208   0.195  1.00  0.00    -0.252 NA
HETATM   10  C   UNL     1      46.286 -27.948  -2.042  1.00  0.00     0.032 A 
HETATM   11  C   UNL     1      46.699 -28.746   1.422  1.00  0.00     0.043 C 
HETATM   12  C   UNL     1      45.631 -29.605   1.715  1.00  0.00    -0.010 C 
HETATM   13  C   UNL     1      45.490 -30.223   3.081  1.00  0.00     0.052 C 
HETATM   14  C   UNL     1      45.479 -28.208  -3.150  1.00  0.00     0.002 A 
HETATM   15  C   UNL     1      44.380 -29.038  -3.006  1.00  0.00     0.001 A 
BRANCH  11  16
HETATM   16  C   UNL     1      47.734 -28.371   2.463  1.00  0.00     0.055 C 
HETATM   17  C   UNL     1      48.875 -29.373   2.617  1.00  0.00     0.011 C 
ENDBRANCH  11  16
ENDBRANCH   1   5
BRANCH   2  18
HETATM   18  C   UNL     1      41.231 -30.789   1.883  1.00  0.00     0.075 C 
HETATM   19  C   UNL     1      41.135 -30.925   3.216  1.00  0.00     0.017 C 
BRANCH  19  20
HETATM   20  C   UNL     1      40.213 -31.820   3.929  1.00  0.00    -0.033 A 
HETATM   21  C   UNL     1      39.996 -31.595   5.300  1.00  0.00     0.051 A 
HETATM   22  C   UNL     1      39.193 -32.455   6.058  1.00  0.00     0.102 A 
HETATM   23  C   UNL     1      38.604 -33.565   5.431  1.00  0.00     0.101 A 
HETATM   24  C   UNL     1      38.798 -33.787   4.065  1.00  0.00     0.040 A 
HETATM   25  C   UNL     1      39.609 -32.926   3.323  1.00  0.00     0.014 A 
BRANCH  22  26
HETATM   26  O   UNL     1      38.940 -32.312   7.398  1.00  0.00    -0.353 OA
HETATM   27  C   UNL     1      40.026 -32.499   8.294  1.00  0.00     0.210 C 
ENDBRANCH  22  26
BRANCH  23  28
HETATM   28  O   UNL     1      37.802 -34.381   6.190  1.00  0.00    -0.353 OA
HETATM   29  C   UNL     1      36.457 -34.447   5.725  1.00  0.00     0.210 C 
ENDBRANCH  23  28
ENDBRANCH  19  20
ENDBRANCH   2  18
TORSDOF 6
ENDMDL
MODEL 10
REMARK VINA RESULT:      -7.5      6.056      9.170
REMARK  6 active torsions:
REMARK  status: ('A' for Active; 'I' for Inactive)
REMARK    1  A    between atoms: C_2  and  C_3 
REMARK    2  A    between atoms: C_7  and  N_8 
REMARK       I    between atoms: N_8  and  C_9 
REMARK    3  A    between atoms: C_9  and  C_10 
REMARK    4  A    between atoms: C_11  and  C_12 
REMARK    5  A    between atoms: C_14  and  O_15 
REMARK    6  A    between atoms: C_17  and  O_18 
ROOT
HETATM    1  N   UNL     1      42.736 -13.438   5.985  1.00  0.00    -0.322 N 
HETATM    2  C   UNL     1      43.801 -12.667   6.422  1.00  0.00     0.245 C 
HETATM    3  O   UNL     1      44.987 -12.964   6.379  1.00  0.00    -0.268 OA
HETATM    4  H   UNL     1      41.847 -13.202   6.399  1.00  0.00     0.169 HD
ENDROOT
BRANCH   1   5
HETATM    5  C   UNL     1      42.875 -14.769   5.485  1.00  0.00     0.055 C 
HETATM    6  C   UNL     1      42.961 -15.056   4.091  1.00  0.00     0.020 A 
HETATM    7  C   UNL     1      43.260 -16.383   3.737  1.00  0.00     0.069 A 
HETATM    8  C   UNL     1      42.709 -14.138   3.034  1.00  0.00     0.016 A 
HETATM    9  N   UNL     1      43.432 -17.356   4.639  1.00  0.00    -0.252 NA
HETATM   10  C   UNL     1      43.372 -16.731   2.396  1.00  0.00     0.032 A 
HETATM   11  C   UNL     1      43.280 -17.092   5.955  1.00  0.00     0.043 C 
HETATM   12  C   UNL     1      42.929 -15.821   6.430  1.00  0.00    -0.010 C 
HETATM   13  C   UNL     1      42.721 -15.575   7.901  1.00  0.00     0.052 C 
HETATM   14  C   UNL     1      43.165 -15.807   1.372  1.00  0.00     0.002 A 
HETATM   15  C   UNL     1      42.819 -14.506   1.693  1.00  0.00     0.001 A 
BRANCH  11  16
HETATM   16  C   UNL     1      43.498 -18.263   6.892  1.00  0.00     0.055 C 
HETATM   17  C   UNL     1      43.533 -19.628   6.209  1.00  0.00     0.011 C 
ENDBRANCH  11  16
ENDBRANCH   1   5
BRANCH   2  18
HETATM   18  C   UNL     1      43.349 -11.406   7.079  1.00  0.00     0.075 C 
HETATM   19  C   UNL     1      44.081 -10.911   8.091  1.00  0.00     0.017 C 
BRANCH  19  20
HETATM   20  C   UNL     1      43.773  -9.701   8.868  1.00  0.00    -0.033 A 
HETATM   21  C   UNL     1      43.006  -9.841  10.038  1.00  0.00     0.051 A 
HETATM   22  C   UNL     1      42.610  -8.723  10.783  1.00  0.00     0.102 A 
HETATM   23  C   UNL     1      42.983  -7.444  10.341  1.00  0.00     0.101 A 
HETATM   24  C   UNL     1      43.762  -7.295   9.190  1.00  0.00     0.040 A 
HETATM   25  C   UNL     1      44.143  -8.418   8.451  1.00  0.00     0.014 A 
BRANCH  22  26
HETATM   26  O   UNL     1      41.855  -8.772  11.926  1.00  0.00    -0.353 OA
HETATM   27  C   UNL     1      42.409  -9.445  13.049  1.00  0.00     0.210 C 
ENDBRANCH  22  26
BRANCH  23  28
HETATM   28  O   UNL     1      42.602  -6.365  11.100  1.00  0.00    -0.353 OA
HETATM   29  C   UNL     1      42.549  -5.145  10.367  1.00  0.00     0.210 C 
ENDBRANCH  23  28
ENDBRANCH  19  20
ENDBRANCH   2  18
TORSDOF 6
ENDMDL
