MODEL 1
REMARK VINA RESULT:      -8.2      0.000      0.000
REMARK  3 active torsions:
REMARK  status: ('A' for Active; 'I' for Inactive)
REMARK    1  A    between atoms: C_6  and  C_7 
REMARK       I    between atoms: C_7  and  N_8 
REMARK    2  A    between atoms: N_8  and  C_9 
REMARK    3  A    between atoms: C_12  and  C_13 
REMARK       I    between atoms: C_13  and  N_14 
ROOT
HETATM    1  C   UNL     1      43.280 -14.692   6.303  1.00  0.00     0.280 C 
HETATM    2  N   UNL     1      43.618 -13.463   5.763  1.00  0.00    -0.321 N 
HETATM    3  O   UNL     1      42.993 -14.898   7.478  1.00  0.00    -0.265 OA
HETATM    4  H   UNL     1      43.786 -13.474   4.763  1.00  0.00     0.169 HD
ENDROOT
BRANCH   2   5
HETATM    5  C   UNL     1      43.795 -12.237   6.430  1.00  0.00     0.035 A 
HETATM    6  C   UNL     1      42.777 -11.302   6.629  1.00  0.00     0.030 A 
HETATM    7  C   UNL     1      43.021 -10.120   7.341  1.00  0.00     0.019 A 
HETATM    8  C   UNL     1      44.290  -9.862   7.865  1.00  0.00     0.032 A 
HETATM    9  C   UNL     1      45.320 -10.781   7.642  1.00  0.00     0.019 A 
HETATM   10  C   UNL     1      45.072 -11.962   6.935  1.00  0.00     0.030 A 
BRANCH   8  11
HETATM   11  C   UNL     1      44.597  -8.632   8.643  1.00  0.00     0.249 C 
HETATM   12  N   UNL     1      43.924  -8.442   9.818  1.00  0.00    -0.366 N 
HETATM   13  H   UNL     1      43.398  -9.173  10.274  1.00  0.00     0.159 HD
HETATM   14  H   UNL     1      44.223  -7.657  10.383  1.00  0.00     0.159 HD
HETATM   15  O   UNL     1      45.445  -7.832   8.272  1.00  0.00    -0.268 OA
ENDBRANCH   8  11
ENDBRANCH   2   5
BRANCH   1  16
HETATM   16  C   UNL     1      43.310 -15.762   5.323  1.00  0.00     0.144 A 
HETATM   17  O   UNL     1      43.931 -16.946   5.636  1.00  0.00    -0.304 OA
HETATM   18  C   UNL     1      43.768 -17.777   4.569  1.00  0.00     0.086 A 
HETATM   19  C   UNL     1      43.057 -17.139   3.561  1.00  0.00     0.001 A 
HETATM   20  C   UNL     1      44.234 -19.087   4.488  1.00  0.00     0.038 A 
HETATM   21  C   UNL     1      42.783 -17.848   2.378  1.00  0.00     0.014 A 
HETATM   22  C   UNL     1      42.776 -15.839   4.051  1.00  0.00     0.057 A 
HETATM   23  C   UNL     1      43.234 -19.171   2.268  1.00  0.00     0.001 A 
HETATM   24  C   UNL     1      43.947 -19.778   3.305  1.00  0.00     0.003 A 
ENDBRANCH   1  16
TORSDOF 3
ENDMDL
MODEL 2
REMARK VINA RESULT:      -7.8      5.728      7.451
REMARK  3 active torsions:
REMARK  status: ('A' for Active; 'I' for Inactive)
REMARK    1  A    between atoms: C_6  and  C_7 
REMARK       I    between atoms: C_7  and  N_8 
REMARK    2  A    between atoms: N_8  and  C_9 
REMARK    3  A    between atoms: C_12  and  C_13 
REMARK       I    between atoms: C_13  and  N_14 
ROOT
HETATM    1  C   UNL     1      42.369 -15.422   1.887  1.00  0.00     0.280 C 
HETATM    2  N   UNL     1      41.029 -15.441   1.544  1.00  0.00    -0.321 N 
HETATM    3  O   UNL     1      43.151 -14.507   1.649  1.00  0.00    -0.265 OA
HETATM    4  H   UNL     1      40.524 -16.263   1.858  1.00  0.00     0.169 HD
ENDROOT
BRANCH   2   5
HETATM    5  C   UNL     1      40.308 -14.497   0.790  1.00  0.00     0.035 A 
HETATM    6  C   UNL     1      40.000 -13.210   1.237  1.00  0.00     0.030 A 
HETATM    7  C   UNL     1      39.315 -12.310   0.410  1.00  0.00     0.019 A 
HETATM    8  C   UNL     1      38.931 -12.689  -0.879  1.00  0.00     0.032 A 
HETATM    9  C   UNL     1      39.212 -13.986  -1.320  1.00  0.00     0.019 A 
HETATM   10  C   UNL     1      39.900 -14.880  -0.494  1.00  0.00     0.030 A 
BRANCH   8  11
HETATM   11  C   UNL     1      38.219 -11.767  -1.803  1.00  0.00     0.249 C 
HETATM   12  N   UNL     1      38.448 -11.911  -3.143  1.00  0.00    -0.366 N 
HETATM   13  H   UNL     1      38.902 -12.721  -3.538  1.00  0.00     0.159 HD
HETATM   14  H   UNL     1      37.875 -11.347  -3.758  1.00  0.00     0.159 HD
HETATM   15  O   UNL     1      37.426 -10.931  -1.390  1.00  0.00    -0.268 OA
ENDBRANCH   8  11
ENDBRANCH   2   5
BRANCH   1  16
HETATM   16  C   UNL     1      42.790 -16.632   2.569  1.00  0.00     0.144 A 
HETATM   17  O   UNL     1      42.782 -17.825   1.890  1.00  0.00    -0.304 OA
HETATM   18  C   UNL     1      43.265 -18.773   2.742  1.00  0.00     0.086 A 
HETATM   19  C   UNL     1      43.574 -18.207   3.973  1.00  0.00     0.001 A 
HETATM   20  C   UNL     1      43.438 -20.120   2.437  1.00  0.00     0.038 A 
HETATM   21  C   UNL     1      44.096 -19.034   4.982  1.00  0.00     0.014 A 
HETATM   22  C   UNL     1      43.256 -16.830   3.855  1.00  0.00     0.057 A 
HETATM   23  C   UNL     1      44.287 -20.395   4.704  1.00  0.00     0.001 A 
HETATM   24  C   UNL     1      43.963 -20.927   3.453  1.00  0.00     0.003 A 
ENDBRANCH   1  16
TORSDOF 3
ENDMDL
MODEL 3
REMARK VINA RESULT:      -7.6      2.449      8.645
REMARK  3 active torsions:
REMARK  status: ('A' for Active; 'I' for Inactive)
REMARK    1  A    between atoms: C_6  and  C_7 
REMARK       I    between atoms: C_7  and  N_8 
REMARK    2  A    between atoms: N_8  and  C_9 
REMARK    3  A    between atoms: C_12  and  C_13 
REMARK       I    between atoms: C_13  and  N_14 
ROOT
HETATM    1  C   UNL     1      44.317 -12.006   7.138  1.00  0.00     0.280 C 
HETATM    2  N   UNL     1      43.355 -12.992   7.013  1.00  0.00    -0.321 N 
HETATM    3  O   UNL     1      45.355 -11.937   6.487  1.00  0.00    -0.265 OA
HETATM    4  H   UNL     1      42.541 -12.865   7.605  1.00  0.00     0.169 HD
ENDROOT
BRANCH   2   5
HETATM    5  C   UNL     1      43.390 -14.147   6.211  1.00  0.00     0.035 A 
HETATM    6  C   UNL     1      42.864 -14.217   4.918  1.00  0.00     0.030 A 
HETATM    7  C   UNL     1      42.975 -15.394   4.164  1.00  0.00     0.019 A 
HETATM    8  C   UNL     1      43.618 -16.515   4.697  1.00  0.00     0.032 A 
HETATM    9  C   UNL     1      44.119 -16.458   6.001  1.00  0.00     0.019 A 
HETATM   10  C   UNL     1      44.011 -15.281   6.749  1.00  0.00     0.030 A 
BRANCH   8  11
HETATM   11  C   UNL     1      43.778 -17.780   3.932  1.00  0.00     0.249 C 
HETATM   12  N   UNL     1      43.071 -17.911   2.769  1.00  0.00    -0.366 N 
HETATM   13  H   UNL     1      42.620 -17.133   2.310  1.00  0.00     0.159 HD
HETATM   14  H   UNL     1      43.275 -18.730   2.211  1.00  0.00     0.159 HD
HETATM   15  O   UNL     1      44.541 -18.662   4.303  1.00  0.00    -0.268 OA
ENDBRANCH   8  11
ENDBRANCH   2   5
BRANCH   1  16
HETATM   16  C   UNL     1      43.987 -11.026   8.157  1.00  0.00     0.144 A 
HETATM   17  O   UNL     1      43.992 -11.400   9.478  1.00  0.00    -0.304 OA
HETATM   18  C   UNL     1      43.698 -10.289  10.209  1.00  0.00     0.086 A 
HETATM   19  C   UNL     1      43.490  -9.199   9.373  1.00  0.00     0.001 A 
HETATM   20  C   UNL     1      43.622 -10.233  11.598  1.00  0.00     0.038 A 
HETATM   21  C   UNL     1      43.184  -7.955   9.952  1.00  0.00     0.014 A 
HETATM   22  C   UNL     1      43.669  -9.686   8.054  1.00  0.00     0.057 A 
HETATM   23  C   UNL     1      43.105  -7.865  11.350  1.00  0.00     0.001 A 
HETATM   24  C   UNL     1      43.320  -8.986  12.156  1.00  0.00     0.003 A 
ENDBRANCH   1  16
TORSDOF 3
ENDMDL
MODEL 4
REMARK VINA RESULT:      -7.6      4.016      4.755
REMARK  3 active torsions:
REMARK  status: ('A' for Active; 'I' for Inactive)
REMARK    1  A    between atoms: C_6  and  C_7 
REMARK       I    between atoms: C_7  and  N_8 
REMARK    2  A    between atoms: N_8  and  C_9 
REMARK    3  A    between atoms: C_12  and  C_13 
REMARK       I    between atoms: C_13  and  N_14 
ROOT
HETATM    1  C   UNL     1      42.722 -15.069   3.107  1.00  0.00     0.280 C 
HETATM    2  N   UNL     1      41.535 -14.782   3.758  1.00  0.00    -0.321 N 
HETATM    3  O   UNL     1      43.425 -14.255   2.517  1.00  0.00    -0.265 OA
HETATM    4  H   UNL     1      41.108 -15.574   4.228  1.00  0.00     0.169 HD
ENDROOT
BRANCH   2   5
HETATM    5  C   UNL     1      40.843 -13.558   3.810  1.00  0.00     0.035 A 
HETATM    6  C   UNL     1      41.212 -12.485   4.624  1.00  0.00     0.030 A 
HETATM    7  C   UNL     1      40.496 -11.280   4.589  1.00  0.00     0.019 A 
HETATM    8  C   UNL     1      39.402 -11.136   3.732  1.00  0.00     0.032 A 
HETATM    9  C   UNL     1      39.011 -12.217   2.936  1.00  0.00     0.019 A 
HETATM   10  C   UNL     1      39.730 -13.417   2.971  1.00  0.00     0.030 A 
BRANCH   8  11
HETATM   11  C   UNL     1      38.620  -9.874   3.642  1.00  0.00     0.249 C 
HETATM   12  N   UNL     1      37.874  -9.513   4.729  1.00  0.00    -0.366 N 
HETATM   13  H   UNL     1      37.986  -9.938   5.638  1.00  0.00     0.159 HD
HETATM   14  H   UNL     1      37.437  -8.601   4.689  1.00  0.00     0.159 HD
HETATM   15  O   UNL     1      38.666  -9.159   2.650  1.00  0.00    -0.268 OA
ENDBRANCH   8  11
ENDBRANCH   2   5
BRANCH   1  16
HETATM   16  C   UNL     1      43.070 -16.477   3.172  1.00  0.00     0.144 A 
HETATM   17  O   UNL     1      43.443 -17.023   4.375  1.00  0.00    -0.304 OA
HETATM   18  C   UNL     1      43.664 -18.351   4.160  1.00  0.00     0.086 A 
HETATM   19  C   UNL     1      43.449 -18.668   2.825  1.00  0.00     0.001 A 
HETATM   20  C   UNL     1      44.042 -19.274   5.131  1.00  0.00     0.038 A 
HETATM   21  C   UNL     1      43.621 -20.001   2.414  1.00  0.00     0.014 A 
HETATM   22  C   UNL     1      43.077 -17.453   2.195  1.00  0.00     0.057 A 
HETATM   23  C   UNL     1      43.996 -20.956   3.369  1.00  0.00     0.001 A 
HETATM   24  C   UNL     1      44.203 -20.597   4.704  1.00  0.00     0.003 A 
ENDBRANCH   1  16
TORSDOF 3
ENDMDL
MODEL 5
REMARK VINA RESULT:      -7.6     16.402     17.817
REMARK  3 active torsions:
REMARK  status: ('A' for Active; 'I' for Inactive)
REMARK    1  A    between atoms: C_6  and  C_7 
REMARK       I    between atoms: C_7  and  N_8 
REMARK    2  A    between atoms: N_8  and  C_9 
REMARK    3  A    between atoms: C_12  and  C_13 
REMARK       I    between atoms: C_13  and  N_14 
ROOT
HETATM    1  C   UNL     1      47.577 -28.693   1.220  1.00  0.00     0.280 C 
HETATM    2  N   UNL     1      48.303 -29.851   1.436  1.00  0.00    -0.321 N 
HETATM    3  O   UNL     1      47.521 -27.736   1.984  1.00  0.00    -0.265 OA
HETATM    4  H   UNL     1      48.264 -30.522   0.675  1.00  0.00     0.169 HD
ENDROOT
BRANCH   2   5
HETATM    5  C   UNL     1      49.037 -30.220   2.578  1.00  0.00     0.035 A 
HETATM    6  C   UNL     1      48.466 -30.747   3.738  1.00  0.00     0.030 A 
HETATM    7  C   UNL     1      49.269 -31.130   4.821  1.00  0.00     0.019 A 
HETATM    8  C   UNL     1      50.658 -30.993   4.752  1.00  0.00     0.032 A 
HETATM    9  C   UNL     1      51.232 -30.439   3.603  1.00  0.00     0.019 A 
HETATM   10  C   UNL     1      50.428 -30.061   2.523  1.00  0.00     0.030 A 
BRANCH   8  11
HETATM   11  C   UNL     1      51.556 -31.401   5.864  1.00  0.00     0.249 C 
HETATM   12  N   UNL     1      51.271 -32.572   6.511  1.00  0.00    -0.366 N 
HETATM   13  H   UNL     1      50.624 -33.256   6.148  1.00  0.00     0.159 HD
HETATM   14  H   UNL     1      51.952 -32.885   7.191  1.00  0.00     0.159 HD
HETATM   15  O   UNL     1      52.538 -30.740   6.173  1.00  0.00    -0.268 OA
ENDBRANCH   8  11
ENDBRANCH   2   5
BRANCH   1  16
HETATM   16  C   UNL     1      46.845 -28.717  -0.033  1.00  0.00     0.144 A 
HETATM   17  O   UNL     1      45.893 -29.684  -0.240  1.00  0.00    -0.304 OA
HETATM   18  C   UNL     1      45.336 -29.443  -1.460  1.00  0.00     0.086 A 
HETATM   19  C   UNL     1      45.927 -28.335  -2.053  1.00  0.00     0.001 A 
HETATM   20  C   UNL     1      44.313 -30.187  -2.042  1.00  0.00     0.038 A 
HETATM   21  C   UNL     1      45.474 -27.926  -3.319  1.00  0.00     0.014 A 
HETATM   22  C   UNL     1      46.904 -27.880  -1.131  1.00  0.00     0.057 A 
HETATM   23  C   UNL     1      44.441 -28.652  -3.929  1.00  0.00     0.001 A 
HETATM   24  C   UNL     1      43.872 -29.763  -3.300  1.00  0.00     0.003 A 
ENDBRANCH   1  16
TORSDOF 3
ENDMDL
MODEL 6
REMARK VINA RESULT:      -7.4      2.765      3.441
REMARK  3 active torsions:
REMARK  status: ('A' for Active; 'I' for Inactive)
REMARK    1  A    between atoms: C_6  and  C_7 
REMARK       I    between atoms: C_7  and  N_8 
REMARK    2  A    between atoms: N_8  and  C_9 
REMARK    3  A    between atoms: C_12  and  C_13 
REMARK       I    between atoms: C_13  and  N_14 
ROOT
HETATM    1  C   UNL     1      42.631 -14.980   3.712  1.00  0.00     0.280 C 
HETATM    2  N   UNL     1      42.191 -14.664   4.985  1.00  0.00    -0.321 N 
HETATM    3  O   UNL     1      42.725 -14.193   2.776  1.00  0.00    -0.265 OA
HETATM    4  H   UNL     1      42.217 -15.434   5.645  1.00  0.00     0.169 HD
ENDROOT
BRANCH   2   5
HETATM    5  C   UNL     1      41.681 -13.439   5.452  1.00  0.00     0.035 A 
HETATM    6  C   UNL     1      42.473 -12.331   5.765  1.00  0.00     0.030 A 
HETATM    7  C   UNL     1      41.887 -11.129   6.185  1.00  0.00     0.019 A 
HETATM    8  C   UNL     1      40.498 -11.022   6.294  1.00  0.00     0.032 A 
HETATM    9  C   UNL     1      39.703 -12.137   6.009  1.00  0.00     0.019 A 
HETATM   10  C   UNL     1      40.291 -13.333   5.587  1.00  0.00     0.030 A 
BRANCH   8  11
HETATM   11  C   UNL     1      39.826  -9.764   6.717  1.00  0.00     0.249 C 
HETATM   12  N   UNL     1      40.619  -8.738   7.150  1.00  0.00    -0.366 N 
HETATM   13  H   UNL     1      41.618  -8.717   7.006  1.00  0.00     0.159 HD
HETATM   14  H   UNL     1      40.152  -7.858   7.331  1.00  0.00     0.159 HD
HETATM   15  O   UNL     1      38.612  -9.630   6.648  1.00  0.00    -0.268 OA
ENDBRANCH   8  11
ENDBRANCH   2   5
BRANCH   1  16
HETATM   16  C   UNL     1      42.972 -16.383   3.569  1.00  0.00     0.144 A 
HETATM   17  O   UNL     1      43.374 -17.095   4.673  1.00  0.00    -0.304 OA
HETATM   18  C   UNL     1      43.580 -18.379   4.267  1.00  0.00     0.086 A 
HETATM   19  C   UNL     1      43.328 -18.505   2.907  1.00  0.00     0.001 A 
HETATM   20  C   UNL     1      43.979 -19.431   5.088  1.00  0.00     0.038 A 
HETATM   21  C   UNL     1      43.480 -19.767   2.308  1.00  0.00     0.014 A 
HETATM   22  C   UNL     1      42.947 -17.213   2.464  1.00  0.00     0.057 A 
HETATM   23  C   UNL     1      43.876 -20.848   3.109  1.00  0.00     0.001 A 
HETATM   24  C   UNL     1      44.121 -20.681   4.475  1.00  0.00     0.003 A 
ENDBRANCH   1  16
TORSDOF 3
ENDMDL
MODEL 7
REMARK VINA RESULT:      -7.4      5.919      7.872
REMARK  3 active torsions:
REMARK  status: ('A' for Active; 'I' for Inactive)
REMARK    1  A    between atoms: C_6  and  C_7 
REMARK       I    between atoms: C_7  and  N_8 
REMARK    2  A    between atoms: N_8  and  C_9 
REMARK    3  A    between atoms: C_12  and  C_13 
REMARK       I    between atoms: C_13  and  N_14 
ROOT
HETATM    1  C   UNL     1      40.654 -15.186   1.838  1.00  0.00     0.280 C 
HETATM    2  N   UNL     1      41.101 -14.728   0.611  1.00  0.00    -0.321 N 
HETATM    3  O   UNL     1      39.587 -14.886   2.363  1.00  0.00    -0.265 OA
HETATM    4  H   UNL     1      41.991 -15.115   0.315  1.00  0.00     0.169 HD
ENDROOT
BRANCH   2   5
HETATM    5  C   UNL     1      40.503 -13.777  -0.236  1.00  0.00     0.035 A 
HETATM    6  C   UNL     1      40.861 -12.428  -0.271  1.00  0.00     0.030 A 
HETATM    7  C   UNL     1      40.247 -11.548  -1.174  1.00  0.00     0.019 A 
HETATM    8  C   UNL     1      39.267 -12.014  -2.055  1.00  0.00     0.032 A 
HETATM    9  C   UNL     1      38.885 -13.358  -2.003  1.00  0.00     0.019 A 
HETATM   10  C   UNL     1      39.503 -14.233  -1.103  1.00  0.00     0.030 A 
BRANCH   8  11
HETATM   11  C   UNL     1      38.599 -11.127  -3.044  1.00  0.00     0.249 C 
HETATM   12  N   UNL     1      37.267 -11.328  -3.276  1.00  0.00    -0.366 N 
HETATM   13  H   UNL     1      36.684 -11.893  -2.676  1.00  0.00     0.159 HD
HETATM   14  H   UNL     1      36.808 -10.648  -3.870  1.00  0.00     0.159 HD
HETATM   15  O   UNL     1      39.202 -10.224  -3.609  1.00  0.00    -0.268 OA
ENDBRANCH   8  11
ENDBRANCH   2   5
BRANCH   1  16
HETATM   16  C   UNL     1      41.600 -16.078   2.482  1.00  0.00     0.144 A 
HETATM   17  O   UNL     1      41.686 -16.095   3.852  1.00  0.00    -0.304 OA
HETATM   18  C   UNL     1      42.605 -17.044   4.184  1.00  0.00     0.086 A 
HETATM   19  C   UNL     1      43.126 -17.636   3.041  1.00  0.00     0.001 A 
HETATM   20  C   UNL     1      42.975 -17.392   5.481  1.00  0.00     0.038 A 
HETATM   21  C   UNL     1      44.087 -18.651   3.186  1.00  0.00     0.014 A 
HETATM   22  C   UNL     1      42.480 -17.001   1.950  1.00  0.00     0.057 A 
HETATM   23  C   UNL     1      44.477 -19.028   4.479  1.00  0.00     0.001 A 
HETATM   24  C   UNL     1      43.930 -18.407   5.605  1.00  0.00     0.003 A 
ENDBRANCH   1  16
TORSDOF 3
ENDMDL
MODEL 8
REMARK VINA RESULT:      -7.3      5.585      8.553
REMARK  3 active torsions:
REMARK  status: ('A' for Active; 'I' for Inactive)
REMARK    1  A    between atoms: C_6  and  C_7 
REMARK       I    between atoms: C_7  and  N_8 
REMARK    2  A    between atoms: N_8  and  C_9 
REMARK    3  A    between atoms: C_12  and  C_13 
REMARK       I    between atoms: C_13  and  N_14 
ROOT
HETATM    1  C   UNL     1      40.555 -14.930   0.802  1.00  0.00     0.280 C 
HETATM    2  N   UNL     1      41.718 -14.815   1.542  1.00  0.00    -0.321 N 
HETATM    3  O   UNL     1      39.736 -15.838   0.901  1.00  0.00    -0.265 OA
HETATM    4  H   UNL     1      42.256 -13.975   1.355  1.00  0.00     0.169 HD
ENDROOT
BRANCH   2   5
HETATM    5  C   UNL     1      42.254 -15.725   2.472  1.00  0.00     0.035 A 
HETATM    6  C   UNL     1      42.060 -15.638   3.852  1.00  0.00     0.030 A 
HETATM    7  C   UNL     1      42.591 -16.609   4.712  1.00  0.00     0.019 A 
HETATM    8  C   UNL     1      43.323 -17.682   4.197  1.00  0.00     0.032 A 
HETATM    9  C   UNL     1      43.545 -17.757   2.818  1.00  0.00     0.019 A 
HETATM   10  C   UNL     1      43.010 -16.789   1.963  1.00  0.00     0.030 A 
BRANCH   8  11
HETATM   11  C   UNL     1      43.893 -18.748   5.063  1.00  0.00     0.249 C 
HETATM   12  N   UNL     1      43.492 -18.783   6.370  1.00  0.00    -0.366 N 
HETATM   13  H   UNL     1      42.696 -18.266   6.714  1.00  0.00     0.159 HD
HETATM   14  H   UNL     1      43.807 -19.576   6.914  1.00  0.00     0.159 HD
HETATM   15  O   UNL     1      44.665 -19.590   4.624  1.00  0.00    -0.268 OA
ENDBRANCH   8  11
ENDBRANCH   2   5
BRANCH   1  16
HETATM   16  C   UNL     1      40.387 -13.847  -0.149  1.00  0.00     0.144 A 
HETATM   17  O   UNL     1      41.114 -12.693   0.007  1.00  0.00    -0.304 OA
HETATM   18  C   UNL     1      40.800 -11.878  -1.039  1.00  0.00     0.086 A 
HETATM   19  C   UNL     1      39.866 -12.488  -1.866  1.00  0.00     0.001 A 
HETATM   20  C   UNL     1      41.337 -10.614  -1.266  1.00  0.00     0.038 A 
HETATM   21  C   UNL     1      39.426 -11.798  -3.009  1.00  0.00     0.014 A 
HETATM   22  C   UNL     1      39.598 -13.751  -1.280  1.00  0.00     0.057 A 
HETATM   23  C   UNL     1      39.953 -10.524  -3.269  1.00  0.00     0.001 A 
HETATM   24  C   UNL     1      40.891  -9.944  -2.411  1.00  0.00     0.003 A 
ENDBRANCH   1  16
TORSDOF 3
ENDMDL
MODEL 9
REMARK VINA RESULT:      -7.2      5.266      8.568
REMARK  3 active torsions:
REMARK  status: ('A' for Active; 'I' for Inactive)
REMARK    1  A    between atoms: C_6  and  C_7 
REMARK       I    between atoms: C_7  and  N_8 
REMARK    2  A    between atoms: N_8  and  C_9 
REMARK    3  A    between atoms: C_12  and  C_13 
REMARK       I    between atoms: C_13  and  N_14 
ROOT
HETATM    1  C   UNL     1      43.271  -8.224  10.776  1.00  0.00     0.280 C 
HETATM    2  N   UNL     1      43.351  -8.823  12.021  1.00  0.00    -0.321 N 
HETATM    3  O   UNL     1      42.742  -7.143  10.540  1.00  0.00    -0.265 OA
HETATM    4  H   UNL     1      43.861  -9.700  12.036  1.00  0.00     0.169 HD
ENDROOT
BRANCH   2   5
HETATM    5  C   UNL     1      42.785  -8.392  13.235  1.00  0.00     0.035 A 
HETATM    6  C   UNL     1      41.703  -9.018  13.858  1.00  0.00     0.030 A 
HETATM    7  C   UNL     1      41.220  -8.554  15.089  1.00  0.00     0.019 A 
HETATM    8  C   UNL     1      41.820  -7.458  15.714  1.00  0.00     0.032 A 
HETATM    9  C   UNL     1      42.886  -6.810  15.080  1.00  0.00     0.019 A 
HETATM   10  C   UNL     1      43.367  -7.278  13.852  1.00  0.00     0.030 A 
BRANCH   8  11
HETATM   11  C   UNL     1      41.359  -6.938  17.029  1.00  0.00     0.249 C 
HETATM   12  N   UNL     1      42.239  -6.184  17.755  1.00  0.00    -0.366 N 
HETATM   13  H   UNL     1      43.087  -5.801  17.364  1.00  0.00     0.159 HD
HETATM   14  H   UNL     1      41.872  -5.753  18.594  1.00  0.00     0.159 HD
HETATM   15  O   UNL     1      40.224  -7.141  17.437  1.00  0.00    -0.268 OA
ENDBRANCH   8  11
ENDBRANCH   2   5
BRANCH   1  16
HETATM   16  C   UNL     1      43.878  -9.024   9.729  1.00  0.00     0.144 A 
HETATM   17  O   UNL     1      43.082  -9.578   8.757  1.00  0.00    -0.304 OA
HETATM   18  C   UNL     1      43.906 -10.227   7.887  1.00  0.00     0.086 A 
HETATM   19  C   UNL     1      45.229 -10.110   8.293  1.00  0.00     0.001 A 
HETATM   20  C   UNL     1      43.497 -10.908   6.743  1.00  0.00     0.038 A 
HETATM   21  C   UNL     1      46.230 -10.711   7.510  1.00  0.00     0.014 A 
HETATM   22  C   UNL     1      45.200  -9.343   9.485  1.00  0.00     0.057 A 
HETATM   23  C   UNL     1      45.851 -11.400   6.349  1.00  0.00     0.001 A 
HETATM   24  C   UNL     1      44.508 -11.496   5.974  1.00  0.00     0.003 A 
ENDBRANCH   1  16
TORSDOF 3
ENDMDL
MODEL 10
REMARK VINA RESULT:      -6.9     16.667     18.241
REMARK  3 active torsions:
REMARK  status: ('A' for Active; 'I' for Inactive)
REMARK    1  A    between atoms: C_6  and  C_7 
REMARK       I    between atoms: C_7  and  N_8 
REMARK    2  A    between atoms: N_8  and  C_9 
REMARK    3  A    between atoms: C_12  and  C_13 
REMARK       I    between atoms: C_13  and  N_14 
ROOT
HETATM    1  C   UNL     1      42.635 -29.618   1.633  1.00  0.00     0.280 C 
HETATM    2  N   UNL     1      42.684 -30.597   2.610  1.00  0.00    -0.321 N 
HETATM    3  O   UNL     1      41.621 -29.045   1.250  1.00  0.00    -0.265 OA
HETATM    4  H   UNL     1      43.617 -30.931   2.828  1.00  0.00     0.169 HD
ENDROOT
BRANCH   2   5
HETATM    5  C   UNL     1      41.612 -31.203   3.291  1.00  0.00     0.035 A 
HETATM    6  C   UNL     1      41.174 -30.815   4.560  1.00  0.00     0.030 A 
HETATM    7  C   UNL     1      40.070 -31.440   5.157  1.00  0.00     0.019 A 
HETATM    8  C   UNL     1      39.390 -32.460   4.487  1.00  0.00     0.032 A 
HETATM    9  C   UNL     1      39.843 -32.871   3.229  1.00  0.00     0.019 A 
HETATM   10  C   UNL     1      40.942 -32.243   2.635  1.00  0.00     0.030 A 
BRANCH   8  11
HETATM   11  C   UNL     1      38.203 -33.142   5.067  1.00  0.00     0.249 C 
HETATM   12  N   UNL     1      37.555 -34.059   4.287  1.00  0.00    -0.366 N 
HETATM   13  H   UNL     1      37.952 -34.437   3.440  1.00  0.00     0.159 HD
HETATM   14  H   UNL     1      36.818 -34.588   4.737  1.00  0.00     0.159 HD
HETATM   15  O   UNL     1      37.834 -32.924   6.214  1.00  0.00    -0.268 OA
ENDBRANCH   8  11
ENDBRANCH   2   5
BRANCH   1  16
HETATM   16  C   UNL     1      43.940 -29.325   1.069  1.00  0.00     0.144 A 
HETATM   17  O   UNL     1      44.031 -28.906  -0.236  1.00  0.00    -0.304 OA
HETATM   18  C   UNL     1      45.347 -28.659  -0.485  1.00  0.00     0.086 A 
HETATM   19  C   UNL     1      46.113 -28.926   0.642  1.00  0.00     0.001 A 
HETATM   20  C   UNL     1      45.867 -28.195  -1.691  1.00  0.00     0.038 A 
HETATM   21  C   UNL     1      47.503 -28.720   0.577  1.00  0.00     0.014 A 
HETATM   22  C   UNL     1      45.200 -29.364   1.634  1.00  0.00     0.057 A 
HETATM   23  C   UNL     1      48.056 -28.248  -0.622  1.00  0.00     0.001 A 
HETATM   24  C   UNL     1      47.251 -27.992  -1.735  1.00  0.00     0.003 A 
ENDBRANCH   1  16
TORSDOF 3
ENDMDL
