MODEL 1
REMARK VINA RESULT:      -9.1      0.000      0.000
REMARK  8 active torsions:
REMARK  status: ('A' for Active; 'I' for Inactive)
REMARK    1  A    between atoms: N_2  and  C_5 
REMARK    2  A    between atoms: C_5  and  C_6 
REMARK    3  A    between atoms: C_6  and  S_7 
REMARK    4  A    between atoms: S_7  and  C_8 
REMARK    5  A    between atoms: C_10  and  C_24 
REMARK    6  A    between atoms: C_15  and  C_18 
REMARK    7  A    between atoms: C_30  and  C_34 
REMARK       I    between atoms: C_34  and  N_36 
REMARK    8  A    between atoms: N_36  and  C_37 
ROOT
HETATM    1  C   UNL     1      42.846 -14.313   4.785  1.00  0.00     0.108 A 
HETATM    2  N   UNL     1      42.635 -13.030   4.435  1.00  0.00    -0.225 NA
HETATM    3  C   UNL     1      42.590 -12.754   3.126  1.00  0.00     0.134 A 
HETATM    4  N   UNL     1      42.676 -13.688   2.167  1.00  0.00    -0.232 NA
HETATM    5  C   UNL     1      42.900 -14.955   2.527  1.00  0.00     0.072 A 
HETATM    6  C   UNL     1      43.047 -15.910   1.532  1.00  0.00     0.033 A 
HETATM    7  C   UNL     1      43.319 -17.251   1.823  1.00  0.00     0.014 A 
HETATM    8  C   UNL     1      43.446 -17.670   3.147  1.00  0.00    -0.022 A 
HETATM    9  C   UNL     1      43.282 -16.720   4.160  1.00  0.00     0.029 A 
HETATM   10  C   UNL     1      43.012 -15.353   3.861  1.00  0.00     0.029 A 
ENDROOT
BRANCH   3  11
HETATM   11  C   UNL     1      42.450 -11.314   2.674  1.00  0.00     0.086 C 
HETATM   12  C   UNL     1      41.175 -11.028   1.876  1.00  0.00     0.188 C 
HETATM   13  O   UNL     1      39.946 -11.146   2.615  1.00  0.00    -0.350 OA
HETATM   14  C   UNL     1      39.985 -10.707   3.911  1.00  0.00     0.075 A 
HETATM   15  C   UNL     1      38.762 -10.683   4.584  1.00  0.00     0.038 A 
HETATM   16  C   UNL     1      41.160 -10.348   4.577  1.00  0.00    -0.023 A 
HETATM   17  C   UNL     1      38.701 -10.303   5.928  1.00  0.00     0.020 A 
HETATM   18  C   UNL     1      39.872  -9.936   6.601  1.00  0.00     0.032 A 
HETATM   19  C   UNL     1      41.097  -9.959   5.922  1.00  0.00     0.027 A 
HETATM   20  C   UNL     1      42.482 -10.353   3.863  1.00  0.00     0.056 C 
BRANCH  18  21
HETATM   21  C   UNL     1      39.872  -9.570   8.042  1.00  0.00     0.252 C 
HETATM   22  O   UNL     1      38.820  -9.247   8.583  1.00  0.00    -0.268 OA
HETATM   23  N   UNL     1      41.090  -9.642   8.690  1.00  0.00    -0.352 N 
HETATM   24  H   UNL     1      41.869 -10.096   8.232  1.00  0.00     0.163 HD
BRANCH  23  25
HETATM   25  C   UNL     1      41.218  -9.345  10.082  1.00  0.00     0.084 A 
HETATM   26  C   UNL     1      42.474  -9.698  10.829  1.00  0.00     0.027 A 
HETATM   27  C   UNL     1      42.150  -8.262  10.545  1.00  0.00     0.027 A 
ENDBRANCH  23  25
ENDBRANCH  18  21
ENDBRANCH   3  11
BRANCH   1  28
HETATM   28  S   UNL     1      42.996 -14.578   6.557  1.00  0.00    -0.108 SA
BRANCH  28  29
HETATM   29  C   UNL     1      44.331 -13.389   6.957  1.00  0.00     0.108 C 
BRANCH  29  30
HETATM   30  C   UNL     1      43.734 -12.084   7.489  1.00  0.00     0.244 C 
BRANCH  30  31
HETATM   31  N   UNL     1      44.476 -10.865   6.960  1.00  0.00    -0.078 N 
HETATM   32  C   UNL     1      44.865  -9.884   8.032  1.00  0.00     0.269 C 
HETATM   33  H   UNL     1      43.806 -10.377   6.343  1.00  0.00     0.279 HD
HETATM   34  C   UNL     1      45.650 -11.251   6.108  1.00  0.00     0.269 C 
ENDBRANCH  30  31
ENDBRANCH  29  30
ENDBRANCH  28  29
ENDBRANCH   1  28
BRANCH   8  35
HETATM   35  C   UNL     1      43.746 -19.051   3.479  1.00  0.00     0.010 A 
HETATM   36  C   UNL     1      43.648 -20.230   2.706  1.00  0.00     0.152 A 
HETATM   37  N   UNL     1      43.983 -21.327   3.389  1.00  0.00    -0.187 NA
HETATM   38  N   UNL     1      44.311 -20.855   4.602  1.00  0.00    -0.289 N 
HETATM   39  H   UNL     1      44.610 -21.515   5.313  1.00  0.00     0.188 HD
HETATM   40  C   UNL     1      44.178 -19.499   4.709  1.00  0.00     0.123 A 
ENDBRANCH   8  35
TORSDOF 8
ENDMDL
MODEL 2
REMARK VINA RESULT:      -8.8      1.327      2.214
REMARK  8 active torsions:
REMARK  status: ('A' for Active; 'I' for Inactive)
REMARK    1  A    between atoms: N_2  and  C_5 
REMARK    2  A    between atoms: C_5  and  C_6 
REMARK    3  A    between atoms: C_6  and  S_7 
REMARK    4  A    between atoms: S_7  and  C_8 
REMARK    5  A    between atoms: C_10  and  C_24 
REMARK    6  A    between atoms: C_15  and  C_18 
REMARK    7  A    between atoms: C_30  and  C_34 
REMARK       I    between atoms: C_34  and  N_36 
REMARK    8  A    between atoms: N_36  and  C_37 
ROOT
HETATM    1  C   UNL     1      43.381 -14.372   4.723  1.00  0.00     0.108 A 
HETATM    2  N   UNL     1      43.089 -13.092   4.421  1.00  0.00    -0.225 NA
HETATM    3  C   UNL     1      42.610 -12.848   3.196  1.00  0.00     0.134 A 
HETATM    4  N   UNL     1      42.348 -13.808   2.296  1.00  0.00    -0.232 NA
HETATM    5  C   UNL     1      42.657 -15.072   2.602  1.00  0.00     0.072 A 
HETATM    6  C   UNL     1      42.440 -16.056   1.648  1.00  0.00     0.033 A 
HETATM    7  C   UNL     1      42.769 -17.396   1.876  1.00  0.00     0.014 A 
HETATM    8  C   UNL     1      43.327 -17.785   3.093  1.00  0.00    -0.022 A 
HETATM    9  C   UNL     1      43.534 -16.805   4.070  1.00  0.00     0.029 A 
HETATM   10  C   UNL     1      43.205 -15.440   3.833  1.00  0.00     0.029 A 
ENDROOT
BRANCH   3  11
HETATM   11  C   UNL     1      42.354 -11.417   2.769  1.00  0.00     0.086 C 
HETATM   12  C   UNL     1      40.944 -11.168   2.223  1.00  0.00     0.188 C 
HETATM   13  O   UNL     1      39.880 -11.305   3.180  1.00  0.00    -0.350 OA
HETATM   14  C   UNL     1      40.150 -10.851   4.442  1.00  0.00     0.075 A 
HETATM   15  C   UNL     1      39.076 -10.846   5.334  1.00  0.00     0.038 A 
HETATM   16  C   UNL     1      41.421 -10.459   4.874  1.00  0.00    -0.023 A 
HETATM   17  C   UNL     1      39.259 -10.453   6.662  1.00  0.00     0.020 A 
HETATM   18  C   UNL     1      40.526 -10.053   7.100  1.00  0.00     0.032 A 
HETATM   19  C   UNL     1      41.602 -10.057   6.204  1.00  0.00     0.027 A 
HETATM   20  C   UNL     1      42.585 -10.442   3.924  1.00  0.00     0.056 C 
BRANCH  18  21
HETATM   21  C   UNL     1      40.788  -9.672   8.514  1.00  0.00     0.252 C 
HETATM   22  O   UNL     1      39.857  -9.310   9.224  1.00  0.00    -0.268 OA
HETATM   23  N   UNL     1      42.097  -9.776   8.941  1.00  0.00    -0.352 N 
HETATM   24  H   UNL     1      42.771 -10.261   8.363  1.00  0.00     0.163 HD
BRANCH  23  25
HETATM   25  C   UNL     1      42.474  -9.469  10.285  1.00  0.00     0.084 A 
HETATM   26  C   UNL     1      43.388 -10.384  11.053  1.00  0.00     0.027 A 
HETATM   27  C   UNL     1      43.880  -9.041  10.601  1.00  0.00     0.027 A 
ENDBRANCH  23  25
ENDBRANCH  18  21
ENDBRANCH   3  11
BRANCH   1  28
HETATM   28  S   UNL     1      44.115 -14.595   6.349  1.00  0.00    -0.108 SA
BRANCH  28  29
HETATM   29  C   UNL     1      42.606 -14.654   7.387  1.00  0.00     0.108 C 
BRANCH  29  30
HETATM   30  C   UNL     1      41.821 -15.938   7.103  1.00  0.00     0.244 C 
BRANCH  30  31
HETATM   31  N   UNL     1      40.436 -15.642   6.545  1.00  0.00    -0.078 N 
HETATM   32  C   UNL     1      40.185 -14.179   6.301  1.00  0.00     0.269 C 
HETATM   33  H   UNL     1      39.772 -15.937   7.279  1.00  0.00     0.279 HD
HETATM   34  C   UNL     1      40.135 -16.467   5.328  1.00  0.00     0.269 C 
ENDBRANCH  30  31
ENDBRANCH  29  30
ENDBRANCH  28  29
ENDBRANCH   1  28
BRANCH   8  35
HETATM   35  C   UNL     1      43.695 -19.165   3.351  1.00  0.00     0.010 A 
HETATM   36  C   UNL     1      43.653 -20.306   2.516  1.00  0.00     0.152 A 
HETATM   37  N   UNL     1      44.043 -21.420   3.141  1.00  0.00    -0.187 NA
HETATM   38  N   UNL     1      44.350 -20.997   4.377  1.00  0.00    -0.289 N 
HETATM   39  H   UNL     1      44.683 -21.678   5.052  1.00  0.00     0.188 HD
HETATM   40  C   UNL     1      44.151 -19.657   4.556  1.00  0.00     0.123 A 
ENDBRANCH   8  35
TORSDOF 8
ENDMDL
MODEL 3
REMARK VINA RESULT:      -8.6      3.192      6.148
REMARK  8 active torsions:
REMARK  status: ('A' for Active; 'I' for Inactive)
REMARK    1  A    between atoms: N_2  and  C_5 
REMARK    2  A    between atoms: C_5  and  C_6 
REMARK    3  A    between atoms: C_6  and  S_7 
REMARK    4  A    between atoms: S_7  and  C_8 
REMARK    5  A    between atoms: C_10  and  C_24 
REMARK    6  A    between atoms: C_15  and  C_18 
REMARK    7  A    between atoms: C_30  and  C_34 
REMARK       I    between atoms: C_34  and  N_36 
REMARK    8  A    between atoms: N_36  and  C_37 
ROOT
HETATM    1  C   UNL     1      41.274 -15.020   3.428  1.00  0.00     0.108 A 
HETATM    2  N   UNL     1      41.020 -13.763   3.841  1.00  0.00    -0.225 NA
HETATM    3  C   UNL     1      41.757 -13.292   4.854  1.00  0.00     0.134 A 
HETATM    4  N   UNL     1      42.763 -13.976   5.421  1.00  0.00    -0.232 NA
HETATM    5  C   UNL     1      42.995 -15.228   5.012  1.00  0.00     0.072 A 
HETATM    6  C   UNL     1      43.996 -15.954   5.640  1.00  0.00     0.033 A 
HETATM    7  C   UNL     1      44.278 -17.280   5.298  1.00  0.00     0.014 A 
HETATM    8  C   UNL     1      43.549 -17.916   4.293  1.00  0.00    -0.022 A 
HETATM    9  C   UNL     1      42.548 -17.188   3.640  1.00  0.00     0.029 A 
HETATM   10  C   UNL     1      42.258 -15.840   3.996  1.00  0.00     0.029 A 
ENDROOT
BRANCH   3  11
HETATM   11  C   UNL     1      41.452 -11.921   5.422  1.00  0.00     0.086 C 
HETATM   12  C   UNL     1      42.439 -10.830   4.992  1.00  0.00     0.188 C 
HETATM   13  O   UNL     1      42.418 -10.498   3.593  1.00  0.00    -0.350 OA
HETATM   14  C   UNL     1      41.185 -10.495   2.998  1.00  0.00     0.075 A 
HETATM   15  C   UNL     1      41.143 -10.032   1.682  1.00  0.00     0.038 A 
HETATM   16  C   UNL     1      40.023 -10.971   3.612  1.00  0.00    -0.023 A 
HETATM   17  C   UNL     1      39.942 -10.041   0.966  1.00  0.00     0.020 A 
HETATM   18  C   UNL     1      38.773 -10.509   1.576  1.00  0.00     0.032 A 
HETATM   19  C   UNL     1      38.818 -10.971   2.897  1.00  0.00     0.027 A 
HETATM   20  C   UNL     1      40.048 -11.458   5.033  1.00  0.00     0.056 C 
BRANCH  18  21
HETATM   21  C   UNL     1      37.480 -10.586   0.846  1.00  0.00     0.252 C 
HETATM   22  O   UNL     1      37.327 -11.435  -0.025  1.00  0.00    -0.268 OA
HETATM   23  N   UNL     1      36.508  -9.681   1.229  1.00  0.00    -0.352 N 
HETATM   24  H   UNL     1      36.637  -9.144   2.077  1.00  0.00     0.163 HD
BRANCH  23  25
HETATM   25  C   UNL     1      35.212  -9.672   0.626  1.00  0.00     0.084 A 
HETATM   26  C   UNL     1      34.360  -8.434   0.661  1.00  0.00     0.027 A 
HETATM   27  C   UNL     1      34.967  -8.889  -0.633  1.00  0.00     0.027 A 
ENDBRANCH  23  25
ENDBRANCH  18  21
ENDBRANCH   3  11
BRANCH   1  28
HETATM   28  S   UNL     1      40.170 -15.607   2.136  1.00  0.00    -0.108 SA
BRANCH  28  29
HETATM   29  C   UNL     1      40.145 -14.144   1.034  1.00  0.00     0.108 C 
BRANCH  29  30
HETATM   30  C   UNL     1      39.816 -14.570  -0.400  1.00  0.00     0.244 C 
BRANCH  30  31
HETATM   31  N   UNL     1      39.277 -13.409  -1.225  1.00  0.00    -0.078 N 
HETATM   32  C   UNL     1      40.350 -12.487  -1.738  1.00  0.00     0.269 C 
HETATM   33  H   UNL     1      38.696 -12.854  -0.577  1.00  0.00     0.279 HD
HETATM   34  C   UNL     1      38.374 -13.879  -2.328  1.00  0.00     0.269 C 
ENDBRANCH  30  31
ENDBRANCH  29  30
ENDBRANCH  28  29
ENDBRANCH   1  28
BRANCH   8  35
HETATM   35  C   UNL     1      43.806 -19.297   3.928  1.00  0.00     0.010 A 
HETATM   36  C   UNL     1      43.726 -19.954   2.679  1.00  0.00     0.152 A 
HETATM   37  N   UNL     1      44.006 -21.257   2.760  1.00  0.00    -0.187 NA
HETATM   38  N   UNL     1      44.283 -21.440   4.061  1.00  0.00    -0.289 N 
HETATM   39  H   UNL     1      44.535 -22.372   4.375  1.00  0.00     0.188 HD
HETATM   40  C   UNL     1      44.169 -20.298   4.803  1.00  0.00     0.123 A 
ENDBRANCH   8  35
TORSDOF 8
ENDMDL
MODEL 4
REMARK VINA RESULT:      -8.3      4.019      7.966
REMARK  8 active torsions:
REMARK  status: ('A' for Active; 'I' for Inactive)
REMARK    1  A    between atoms: N_2  and  C_5 
REMARK    2  A    between atoms: C_5  and  C_6 
REMARK    3  A    between atoms: C_6  and  S_7 
REMARK    4  A    between atoms: S_7  and  C_8 
REMARK    5  A    between atoms: C_10  and  C_24 
REMARK    6  A    between atoms: C_15  and  C_18 
REMARK    7  A    between atoms: C_30  and  C_34 
REMARK       I    between atoms: C_34  and  N_36 
REMARK    8  A    between atoms: N_36  and  C_37 
ROOT
HETATM    1  C   UNL     1      39.319 -10.978   2.142  1.00  0.00     0.108 A 
HETATM    2  N   UNL     1      39.851 -10.794   3.366  1.00  0.00    -0.225 NA
HETATM    3  C   UNL     1      40.636 -11.767   3.843  1.00  0.00     0.134 A 
HETATM    4  N   UNL     1      40.967 -12.864   3.145  1.00  0.00    -0.232 NA
HETATM    5  C   UNL     1      40.421 -13.042   1.938  1.00  0.00     0.072 A 
HETATM    6  C   UNL     1      40.718 -14.205   1.243  1.00  0.00     0.033 A 
HETATM    7  C   UNL     1      40.160 -14.485  -0.009  1.00  0.00     0.014 A 
HETATM    8  C   UNL     1      39.280 -13.581  -0.603  1.00  0.00    -0.022 A 
HETATM    9  C   UNL     1      38.987 -12.396   0.080  1.00  0.00     0.029 A 
HETATM   10  C   UNL     1      39.550 -12.117   1.359  1.00  0.00     0.029 A 
ENDROOT
BRANCH   3  11
HETATM   11  C   UNL     1      41.185 -11.656   5.252  1.00  0.00     0.086 C 
HETATM   12  C   UNL     1      40.193 -12.066   6.345  1.00  0.00     0.188 C 
HETATM   13  O   UNL     1      39.833 -13.458   6.360  1.00  0.00    -0.350 OA
HETATM   14  C   UNL     1      40.840 -14.338   6.066  1.00  0.00     0.075 A 
HETATM   15  C   UNL     1      40.533 -15.691   6.222  1.00  0.00     0.038 A 
HETATM   16  C   UNL     1      42.094 -13.954   5.584  1.00  0.00    -0.023 A 
HETATM   17  C   UNL     1      41.474 -16.673   5.896  1.00  0.00     0.020 A 
HETATM   18  C   UNL     1      42.734 -16.296   5.419  1.00  0.00     0.032 A 
HETATM   19  C   UNL     1      43.039 -14.938   5.265  1.00  0.00     0.027 A 
HETATM   20  C   UNL     1      42.446 -12.502   5.425  1.00  0.00     0.056 C 
BRANCH  18  21
HETATM   21  C   UNL     1      43.755 -17.298   5.012  1.00  0.00     0.252 C 
HETATM   22  O   UNL     1      44.899 -17.205   5.443  1.00  0.00    -0.268 OA
HETATM   23  N   UNL     1      43.321 -18.302   4.168  1.00  0.00    -0.352 N 
HETATM   24  H   UNL     1      42.330 -18.423   4.010  1.00  0.00     0.163 HD
BRANCH  23  25
HETATM   25  C   UNL     1      44.197 -19.343   3.729  1.00  0.00     0.084 A 
HETATM   26  C   UNL     1      43.830 -20.788   3.927  1.00  0.00     0.027 A 
HETATM   27  C   UNL     1      43.829 -20.197   2.548  1.00  0.00     0.027 A 
ENDBRANCH  23  25
ENDBRANCH  18  21
ENDBRANCH   3  11
BRANCH   1  28
HETATM   28  S   UNL     1      38.196  -9.674   1.623  1.00  0.00    -0.108 SA
BRANCH  28  29
HETATM   29  C   UNL     1      39.327  -8.233   1.659  1.00  0.00     0.108 C 
BRANCH  29  30
HETATM   30  C   UNL     1      39.871  -7.956   0.254  1.00  0.00     0.244 C 
BRANCH  30  31
HETATM   31  N   UNL     1      41.373  -8.191   0.174  1.00  0.00    -0.078 N 
HETATM   32  C   UNL     1      41.742  -9.565  -0.313  1.00  0.00     0.269 C 
HETATM   33  H   UNL     1      41.719  -8.119   1.145  1.00  0.00     0.279 HD
HETATM   34  C   UNL     1      42.066  -7.118  -0.615  1.00  0.00     0.269 C 
ENDBRANCH  30  31
ENDBRANCH  29  30
ENDBRANCH  28  29
ENDBRANCH   1  28
BRANCH   8  35
HETATM   35  C   UNL     1      38.672 -13.852  -1.893  1.00  0.00     0.010 A 
HETATM   36  C   UNL     1      38.981 -14.819  -2.877  1.00  0.00     0.152 A 
HETATM   37  N   UNL     1      38.206 -14.723  -3.960  1.00  0.00    -0.187 NA
HETATM   38  N   UNL     1      37.385 -13.701  -3.670  1.00  0.00    -0.289 N 
HETATM   39  H   UNL     1      36.686 -13.434  -4.356  1.00  0.00     0.188 HD
HETATM   40  C   UNL     1      37.629 -13.141  -2.447  1.00  0.00     0.123 A 
ENDBRANCH   8  35
TORSDOF 8
ENDMDL
MODEL 5
REMARK VINA RESULT:      -8.3      3.424      5.889
REMARK  8 active torsions:
REMARK  status: ('A' for Active; 'I' for Inactive)
REMARK    1  A    between atoms: N_2  and  C_5 
REMARK    2  A    between atoms: C_5  and  C_6 
REMARK    3  A    between atoms: C_6  and  S_7 
REMARK    4  A    between atoms: S_7  and  C_8 
REMARK    5  A    between atoms: C_10  and  C_24 
REMARK    6  A    between atoms: C_15  and  C_18 
REMARK    7  A    between atoms: C_30  and  C_34 
REMARK       I    between atoms: C_34  and  N_36 
REMARK    8  A    between atoms: N_36  and  C_37 
ROOT
HETATM    1  C   UNL     1      42.945 -10.526   6.064  1.00  0.00     0.108 A 
HETATM    2  N   UNL     1      43.819 -10.005   6.946  1.00  0.00    -0.225 NA
HETATM    3  C   UNL     1      44.603 -10.864   7.608  1.00  0.00     0.134 A 
HETATM    4  N   UNL     1      44.607 -12.187   7.388  1.00  0.00    -0.232 NA
HETATM    5  C   UNL     1      43.724 -12.693   6.521  1.00  0.00     0.072 A 
HETATM    6  C   UNL     1      43.689 -14.068   6.339  1.00  0.00     0.033 A 
HETATM    7  C   UNL     1      42.772 -14.680   5.478  1.00  0.00     0.014 A 
HETATM    8  C   UNL     1      41.858 -13.907   4.763  1.00  0.00    -0.022 A 
HETATM    9  C   UNL     1      41.895 -12.518   4.925  1.00  0.00     0.029 A 
HETATM   10  C   UNL     1      42.825 -11.898   5.808  1.00  0.00     0.029 A 
ENDROOT
BRANCH   3  11
HETATM   11  C   UNL     1      45.539 -10.342   8.680  1.00  0.00     0.086 C 
HETATM   12  C   UNL     1      46.089  -8.939   8.405  1.00  0.00     0.188 C 
HETATM   13  O   UNL     1      45.116  -7.880   8.429  1.00  0.00    -0.350 OA
HETATM   14  C   UNL     1      44.136  -7.992   9.377  1.00  0.00     0.075 A 
HETATM   15  C   UNL     1      43.278  -6.897   9.500  1.00  0.00     0.038 A 
HETATM   16  C   UNL     1      43.933  -9.133  10.157  1.00  0.00    -0.023 A 
HETATM   17  C   UNL     1      42.210  -6.933  10.401  1.00  0.00     0.020 A 
HETATM   18  C   UNL     1      42.004  -8.069  11.191  1.00  0.00     0.032 A 
HETATM   19  C   UNL     1      42.867  -9.165  11.066  1.00  0.00     0.027 A 
HETATM   20  C   UNL     1      44.856 -10.314  10.048  1.00  0.00     0.056 C 
BRANCH  18  21
HETATM   21  C   UNL     1      40.856  -8.180  12.129  1.00  0.00     0.252 C 
HETATM   22  O   UNL     1      40.535  -9.281  12.565  1.00  0.00    -0.268 OA
HETATM   23  N   UNL     1      40.228  -6.997  12.468  1.00  0.00    -0.352 N 
HETATM   24  H   UNL     1      40.663  -6.117  12.224  1.00  0.00     0.163 HD
BRANCH  23  25
HETATM   25  C   UNL     1      39.131  -6.965  13.384  1.00  0.00     0.084 A 
HETATM   26  C   UNL     1      38.318  -5.713  13.562  1.00  0.00     0.027 A 
HETATM   27  C   UNL     1      37.719  -6.904  12.875  1.00  0.00     0.027 A 
ENDBRANCH  23  25
ENDBRANCH  18  21
ENDBRANCH   3  11
BRANCH   1  28
HETATM   28  S   UNL     1      41.862  -9.313   5.298  1.00  0.00    -0.108 SA
BRANCH  28  29
HETATM   29  C   UNL     1      41.219  -8.458   6.785  1.00  0.00     0.108 C 
BRANCH  29  30
HETATM   30  C   UNL     1      40.894  -9.478   7.880  1.00  0.00     0.244 C 
BRANCH  30  31
HETATM   31  N   UNL     1      39.396  -9.730   7.991  1.00  0.00    -0.078 N 
HETATM   32  C   UNL     1      38.905 -10.837   7.099  1.00  0.00     0.269 C 
HETATM   33  H   UNL     1      38.943  -8.862   7.662  1.00  0.00     0.279 HD
HETATM   34  C   UNL     1      38.967  -9.933   9.415  1.00  0.00     0.269 C 
ENDBRANCH  30  31
ENDBRANCH  29  30
ENDBRANCH  28  29
ENDBRANCH   1  28
BRANCH   8  35
HETATM   35  C   UNL     1      40.883 -14.516   3.876  1.00  0.00     0.010 A 
HETATM   36  C   UNL     1      40.726 -15.856   3.453  1.00  0.00     0.152 A 
HETATM   37  N   UNL     1      39.719 -16.013   2.591  1.00  0.00    -0.187 NA
HETATM   38  N   UNL     1      39.215 -14.774   2.466  1.00  0.00    -0.289 N 
HETATM   39  H   UNL     1      38.420 -14.636   1.850  1.00  0.00     0.188 HD
HETATM   40  C   UNL     1      39.882 -13.841   3.209  1.00  0.00     0.123 A 
ENDBRANCH   8  35
TORSDOF 8
ENDMDL
MODEL 6
REMARK VINA RESULT:      -8.3      1.981      3.092
REMARK  8 active torsions:
REMARK  status: ('A' for Active; 'I' for Inactive)
REMARK    1  A    between atoms: N_2  and  C_5 
REMARK    2  A    between atoms: C_5  and  C_6 
REMARK    3  A    between atoms: C_6  and  S_7 
REMARK    4  A    between atoms: S_7  and  C_8 
REMARK    5  A    between atoms: C_10  and  C_24 
REMARK    6  A    between atoms: C_15  and  C_18 
REMARK    7  A    between atoms: C_30  and  C_34 
REMARK       I    between atoms: C_34  and  N_36 
REMARK    8  A    between atoms: N_36  and  C_37 
ROOT
HETATM    1  C   UNL     1      42.586 -12.581   5.374  1.00  0.00     0.108 A 
HETATM    2  N   UNL     1      41.856 -11.449   5.378  1.00  0.00    -0.225 NA
HETATM    3  C   UNL     1      40.670 -11.486   4.758  1.00  0.00     0.134 A 
HETATM    4  N   UNL     1      40.156 -12.595   4.204  1.00  0.00    -0.232 NA
HETATM    5  C   UNL     1      40.897 -13.707   4.195  1.00  0.00     0.072 A 
HETATM    6  C   UNL     1      40.388 -14.836   3.570  1.00  0.00     0.033 A 
HETATM    7  C   UNL     1      41.115 -16.029   3.484  1.00  0.00     0.014 A 
HETATM    8  C   UNL     1      42.390 -16.115   4.041  1.00  0.00    -0.022 A 
HETATM    9  C   UNL     1      42.907 -14.989   4.689  1.00  0.00     0.029 A 
HETATM   10  C   UNL     1      42.169 -13.774   4.769  1.00  0.00     0.029 A 
ENDROOT
BRANCH   3  11
HETATM   11  C   UNL     1      39.848 -10.218   4.648  1.00  0.00     0.086 C 
HETATM   12  C   UNL     1      38.434 -10.335   5.225  1.00  0.00     0.188 C 
HETATM   13  O   UNL     1      38.363 -10.519   6.649  1.00  0.00    -0.350 OA
HETATM   14  C   UNL     1      39.283  -9.826   7.388  1.00  0.00     0.075 A 
HETATM   15  C   UNL     1      39.126  -9.886   8.774  1.00  0.00     0.038 A 
HETATM   16  C   UNL     1      40.364  -9.134   6.834  1.00  0.00    -0.023 A 
HETATM   17  C   UNL     1      40.045  -9.258   9.619  1.00  0.00     0.020 A 
HETATM   18  C   UNL     1      41.126  -8.558   9.073  1.00  0.00     0.032 A 
HETATM   19  C   UNL     1      41.281  -8.498   7.682  1.00  0.00     0.027 A 
HETATM   20  C   UNL     1      40.540  -9.046   5.344  1.00  0.00     0.056 C 
BRANCH  18  21
HETATM   21  C   UNL     1      42.159  -7.913   9.925  1.00  0.00     0.252 C 
HETATM   22  O   UNL     1      43.141  -7.399   9.400  1.00  0.00    -0.268 OA
HETATM   23  N   UNL     1      41.921  -7.923  11.286  1.00  0.00    -0.352 N 
HETATM   24  H   UNL     1      41.008  -8.191  11.627  1.00  0.00     0.163 HD
BRANCH  23  25
HETATM   25  C   UNL     1      42.823  -7.309  12.210  1.00  0.00     0.084 A 
HETATM   26  C   UNL     1      42.307  -6.626  13.446  1.00  0.00     0.027 A 
HETATM   27  C   UNL     1      43.056  -7.920  13.562  1.00  0.00     0.027 A 
ENDBRANCH  23  25
ENDBRANCH  18  21
ENDBRANCH   3  11
BRANCH   1  28
HETATM   28  S   UNL     1      44.206 -12.413   6.137  1.00  0.00    -0.108 SA
BRANCH  28  29
HETATM   29  C   UNL     1      44.047 -10.750   6.888  1.00  0.00     0.108 C 
BRANCH  29  30
HETATM   30  C   UNL     1      44.077 -10.856   8.415  1.00  0.00     0.244 C 
BRANCH  30  31
HETATM   31  N   UNL     1      45.390 -10.347   8.992  1.00  0.00    -0.078 N 
HETATM   32  C   UNL     1      46.007  -9.233   8.190  1.00  0.00     0.269 C 
HETATM   33  H   UNL     1      46.044 -11.144   8.942  1.00  0.00     0.279 HD
HETATM   34  C   UNL     1      45.260  -9.981  10.442  1.00  0.00     0.269 C 
ENDBRANCH  30  31
ENDBRANCH  29  30
ENDBRANCH  28  29
ENDBRANCH   1  28
BRANCH   8  35
HETATM   35  C   UNL     1      43.174 -17.334   3.952  1.00  0.00     0.010 A 
HETATM   36  C   UNL     1      43.868 -18.062   4.945  1.00  0.00     0.152 A 
HETATM   37  N   UNL     1      44.512 -19.124   4.455  1.00  0.00    -0.187 NA
HETATM   38  N   UNL     1      44.223 -19.089   3.144  1.00  0.00    -0.289 N 
HETATM   39  H   UNL     1      44.606 -19.815   2.546  1.00  0.00     0.188 HD
HETATM   40  C   UNL     1      43.432 -18.033   2.792  1.00  0.00     0.123 A 
ENDBRANCH   8  35
TORSDOF 8
ENDMDL
MODEL 7
REMARK VINA RESULT:      -8.0      2.720      5.840
REMARK  8 active torsions:
REMARK  status: ('A' for Active; 'I' for Inactive)
REMARK    1  A    between atoms: N_2  and  C_5 
REMARK    2  A    between atoms: C_5  and  C_6 
REMARK    3  A    between atoms: C_6  and  S_7 
REMARK    4  A    between atoms: S_7  and  C_8 
REMARK    5  A    between atoms: C_10  and  C_24 
REMARK    6  A    between atoms: C_15  and  C_18 
REMARK    7  A    between atoms: C_30  and  C_34 
REMARK       I    between atoms: C_34  and  N_36 
REMARK    8  A    between atoms: N_36  and  C_37 
ROOT
HETATM    1  C   UNL     1      42.303 -13.521   5.500  1.00  0.00     0.108 A 
HETATM    2  N   UNL     1      41.603 -12.372   5.554  1.00  0.00    -0.225 NA
HETATM    3  C   UNL     1      40.579 -12.240   4.701  1.00  0.00     0.134 A 
HETATM    4  N   UNL     1      40.183 -13.209   3.861  1.00  0.00    -0.232 NA
HETATM    5  C   UNL     1      40.896 -14.338   3.807  1.00  0.00     0.072 A 
HETATM    6  C   UNL     1      40.520 -15.314   2.895  1.00  0.00     0.033 A 
HETATM    7  C   UNL     1      41.233 -16.509   2.750  1.00  0.00     0.014 A 
HETATM    8  C   UNL     1      42.356 -16.756   3.539  1.00  0.00    -0.022 A 
HETATM    9  C   UNL     1      42.735 -15.787   4.474  1.00  0.00     0.029 A 
HETATM   10  C   UNL     1      42.011 -14.568   4.615  1.00  0.00     0.029 A 
ENDROOT
BRANCH   3  11
HETATM   11  C   UNL     1      39.816 -10.932   4.652  1.00  0.00     0.086 C 
HETATM   12  C   UNL     1      40.708  -9.688   4.595  1.00  0.00     0.188 C 
HETATM   13  O   UNL     1      41.479  -9.537   3.390  1.00  0.00    -0.350 OA
HETATM   14  C   UNL     1      40.855  -9.913   2.231  1.00  0.00     0.075 A 
HETATM   15  C   UNL     1      41.542  -9.632   1.049  1.00  0.00     0.038 A 
HETATM   16  C   UNL     1      39.632 -10.588   2.189  1.00  0.00    -0.023 A 
HETATM   17  C   UNL     1      41.017 -10.024  -0.186  1.00  0.00     0.020 A 
HETATM   18  C   UNL     1      39.790 -10.695  -0.238  1.00  0.00     0.032 A 
HETATM   19  C   UNL     1      39.102 -10.974   0.950  1.00  0.00     0.027 A 
HETATM   20  C   UNL     1      38.872 -10.884   3.451  1.00  0.00     0.056 C 
BRANCH  18  21
HETATM   21  C   UNL     1      39.209 -11.178  -1.518  1.00  0.00     0.252 C 
HETATM   22  O   UNL     1      38.691 -10.375  -2.287  1.00  0.00    -0.268 OA
HETATM   23  N   UNL     1      39.315 -12.533  -1.764  1.00  0.00    -0.352 N 
HETATM   24  H   UNL     1      39.919 -13.097  -1.181  1.00  0.00     0.163 HD
BRANCH  23  25
HETATM   25  C   UNL     1      38.823 -13.117  -2.973  1.00  0.00     0.084 A 
HETATM   26  C   UNL     1      38.674 -14.608  -3.098  1.00  0.00     0.027 A 
HETATM   27  C   UNL     1      37.456 -13.738  -3.014  1.00  0.00     0.027 A 
ENDBRANCH  23  25
ENDBRANCH  18  21
ENDBRANCH   3  11
BRANCH   1  28
HETATM   28  S   UNL     1      43.721 -13.572   6.604  1.00  0.00    -0.108 SA
BRANCH  28  29
HETATM   29  C   UNL     1      43.676 -11.868   7.276  1.00  0.00     0.108 C 
BRANCH  29  30
HETATM   30  C   UNL     1      45.094 -11.294   7.351  1.00  0.00     0.244 C 
BRANCH  30  31
HETATM   31  N   UNL     1      45.137  -9.994   8.141  1.00  0.00    -0.078 N 
HETATM   32  C   UNL     1      44.780 -10.160   9.593  1.00  0.00     0.269 C 
HETATM   33  H   UNL     1      44.408  -9.391   7.725  1.00  0.00     0.279 HD
HETATM   34  C   UNL     1      46.445  -9.277   7.970  1.00  0.00     0.269 C 
ENDBRANCH  30  31
ENDBRANCH  29  30
ENDBRANCH  28  29
ENDBRANCH   1  28
BRANCH   8  35
HETATM   35  C   UNL     1      43.126 -17.978   3.399  1.00  0.00     0.010 A 
HETATM   36  C   UNL     1      43.198 -18.911   2.338  1.00  0.00     0.152 A 
HETATM   37  N   UNL     1      44.002 -19.942   2.607  1.00  0.00    -0.187 NA
HETATM   38  N   UNL     1      44.462 -19.669   3.839  1.00  0.00    -0.289 N 
HETATM   39  H   UNL     1      45.110 -20.322   4.268  1.00  0.00     0.188 HD
HETATM   40  C   UNL     1      43.962 -18.509   4.359  1.00  0.00     0.123 A 
ENDBRANCH   8  35
TORSDOF 8
ENDMDL
MODEL 8
REMARK VINA RESULT:      -8.0     17.386     19.704
REMARK  8 active torsions:
REMARK  status: ('A' for Active; 'I' for Inactive)
REMARK    1  A    between atoms: N_2  and  C_5 
REMARK    2  A    between atoms: C_5  and  C_6 
REMARK    3  A    between atoms: C_6  and  S_7 
REMARK    4  A    between atoms: S_7  and  C_8 
REMARK    5  A    between atoms: C_10  and  C_24 
REMARK    6  A    between atoms: C_15  and  C_18 
REMARK    7  A    between atoms: C_30  and  C_34 
REMARK       I    between atoms: C_34  and  N_36 
REMARK    8  A    between atoms: N_36  and  C_37 
ROOT
HETATM    1  C   UNL     1      50.126 -30.447   0.271  1.00  0.00     0.108 A 
HETATM    2  N   UNL     1      49.435 -29.873  -0.733  1.00  0.00    -0.225 NA
HETATM    3  C   UNL     1      48.378 -29.124  -0.396  1.00  0.00     0.134 A 
HETATM    4  N   UNL     1      48.024 -28.866   0.873  1.00  0.00    -0.232 NA
HETATM    5  C   UNL     1      48.710 -29.453   1.859  1.00  0.00     0.072 A 
HETATM    6  C   UNL     1      48.306 -29.233   3.167  1.00  0.00     0.033 A 
HETATM    7  C   UNL     1      48.945 -29.837   4.254  1.00  0.00     0.014 A 
HETATM    8  C   UNL     1      50.030 -30.688   4.045  1.00  0.00    -0.022 A 
HETATM    9  C   UNL     1      50.459 -30.904   2.731  1.00  0.00     0.029 A 
HETATM   10  C   UNL     1      49.801 -30.293   1.625  1.00  0.00     0.029 A 
ENDROOT
BRANCH   3  11
HETATM   11  C   UNL     1      47.508 -28.532  -1.487  1.00  0.00     0.086 C 
HETATM   12  C   UNL     1      47.229 -29.486  -2.653  1.00  0.00     0.188 C 
HETATM   13  O   UNL     1      46.426 -30.634  -2.331  1.00  0.00    -0.350 OA
HETATM   14  C   UNL     1      45.408 -30.420  -1.441  1.00  0.00     0.075 A 
HETATM   15  C   UNL     1      44.538 -31.493  -1.238  1.00  0.00     0.038 A 
HETATM   16  C   UNL     1      45.244 -29.237  -0.715  1.00  0.00    -0.023 A 
HETATM   17  C   UNL     1      43.498 -31.395  -0.308  1.00  0.00     0.020 A 
HETATM   18  C   UNL     1      43.323 -30.212   0.417  1.00  0.00     0.032 A 
HETATM   19  C   UNL     1      44.196 -29.137   0.210  1.00  0.00     0.027 A 
HETATM   20  C   UNL     1      46.162 -28.067  -0.932  1.00  0.00     0.056 C 
BRANCH  18  21
HETATM   21  C   UNL     1      42.265 -30.071   1.452  1.00  0.00     0.252 C 
HETATM   22  O   UNL     1      41.701 -28.992   1.596  1.00  0.00    -0.268 OA
HETATM   23  N   UNL     1      41.972 -31.205   2.184  1.00  0.00    -0.352 N 
HETATM   24  H   UNL     1      42.339 -32.098   1.882  1.00  0.00     0.163 HD
BRANCH  23  25
HETATM   25  C   UNL     1      40.954 -31.209   3.188  1.00  0.00     0.084 A 
HETATM   26  C   UNL     1      40.972 -32.227   4.293  1.00  0.00     0.027 A 
HETATM   27  C   UNL     1      41.274 -30.790   4.595  1.00  0.00     0.027 A 
ENDBRANCH  23  25
ENDBRANCH  18  21
ENDBRANCH   3  11
BRANCH   1  28
HETATM   28  S   UNL     1      51.463 -31.518  -0.274  1.00  0.00    -0.108 SA
BRANCH  28  29
HETATM   29  C   UNL     1      51.689 -30.916  -1.989  1.00  0.00     0.108 C 
BRANCH  29  30
HETATM   30  C   UNL     1      52.127 -32.068  -2.898  1.00  0.00     0.244 C 
BRANCH  30  31
HETATM   31  N   UNL     1      53.623 -32.031  -3.177  1.00  0.00    -0.078 N 
HETATM   32  C   UNL     1      54.420 -32.970  -2.313  1.00  0.00     0.269 C 
HETATM   33  H   UNL     1      53.928 -31.075  -2.934  1.00  0.00     0.279 HD
HETATM   34  C   UNL     1      53.926 -32.227  -4.635  1.00  0.00     0.269 C 
ENDBRANCH  30  31
ENDBRANCH  29  30
ENDBRANCH  28  29
ENDBRANCH   1  28
BRANCH   8  35
HETATM   35  C   UNL     1      50.703 -31.344   5.152  1.00  0.00     0.010 A 
HETATM   36  C   UNL     1      51.976 -31.118   5.726  1.00  0.00     0.152 A 
HETATM   37  N   UNL     1      52.255 -31.966   6.718  1.00  0.00    -0.187 NA
HETATM   38  N   UNL     1      51.155 -32.733   6.795  1.00  0.00    -0.289 N 
HETATM   39  H   UNL     1      51.126 -33.468   7.496  1.00  0.00     0.188 HD
HETATM   40  C   UNL     1      50.201 -32.405   5.874  1.00  0.00     0.123 A 
ENDBRANCH   8  35
TORSDOF 8
ENDMDL
MODEL 9
REMARK VINA RESULT:      -7.9      2.564      4.982
REMARK  8 active torsions:
REMARK  status: ('A' for Active; 'I' for Inactive)
REMARK    1  A    between atoms: N_2  and  C_5 
REMARK    2  A    between atoms: C_5  and  C_6 
REMARK    3  A    between atoms: C_6  and  S_7 
REMARK    4  A    between atoms: S_7  and  C_8 
REMARK    5  A    between atoms: C_10  and  C_24 
REMARK    6  A    between atoms: C_15  and  C_18 
REMARK    7  A    between atoms: C_30  and  C_34 
REMARK       I    between atoms: C_34  and  N_36 
REMARK    8  A    between atoms: N_36  and  C_37 
ROOT
HETATM    1  C   UNL     1      40.865 -12.495   4.127  1.00  0.00     0.108 A 
HETATM    2  N   UNL     1      40.595 -11.181   4.247  1.00  0.00    -0.225 NA
HETATM    3  C   UNL     1      41.266 -10.503   5.185  1.00  0.00     0.134 A 
HETATM    4  N   UNL     1      42.226 -11.045   5.949  1.00  0.00    -0.232 NA
HETATM    5  C   UNL     1      42.475 -12.354   5.830  1.00  0.00     0.072 A 
HETATM    6  C   UNL     1      43.426 -12.924   6.663  1.00  0.00     0.033 A 
HETATM    7  C   UNL     1      43.719 -14.292   6.627  1.00  0.00     0.014 A 
HETATM    8  C   UNL     1      43.054 -15.129   5.733  1.00  0.00    -0.022 A 
HETATM    9  C   UNL     1      42.105 -14.562   4.876  1.00  0.00     0.029 A 
HETATM   10  C   UNL     1      41.803 -13.171   4.919  1.00  0.00     0.029 A 
ENDROOT
BRANCH   3  11
HETATM   11  C   UNL     1      40.935  -9.044   5.429  1.00  0.00     0.086 C 
HETATM   12  C   UNL     1      39.442  -8.765   5.629  1.00  0.00     0.188 C 
HETATM   13  O   UNL     1      38.866  -9.323   6.823  1.00  0.00    -0.350 OA
HETATM   14  C   UNL     1      39.662  -9.299   7.937  1.00  0.00     0.075 A 
HETATM   15  C   UNL     1      39.057  -9.703   9.128  1.00  0.00     0.038 A 
HETATM   16  C   UNL     1      41.016  -8.954   7.919  1.00  0.00    -0.023 A 
HETATM   17  C   UNL     1      39.798  -9.768  10.312  1.00  0.00     0.020 A 
HETATM   18  C   UNL     1      41.152  -9.418  10.305  1.00  0.00     0.032 A 
HETATM   19  C   UNL     1      41.756  -9.011   9.108  1.00  0.00     0.027 A 
HETATM   20  C   UNL     1      41.679  -8.502   6.649  1.00  0.00     0.056 C 
BRANCH  18  21
HETATM   21  C   UNL     1      41.998  -9.514  11.523  1.00  0.00     0.252 C 
HETATM   22  O   UNL     1      43.006 -10.214  11.505  1.00  0.00    -0.268 OA
HETATM   23  N   UNL     1      41.587  -8.772  12.613  1.00  0.00    -0.352 N 
HETATM   24  H   UNL     1      40.862  -8.077  12.493  1.00  0.00     0.163 HD
BRANCH  23  25
HETATM   25  C   UNL     1      42.330  -8.756  13.834  1.00  0.00     0.084 A 
HETATM   26  C   UNL     1      42.797  -7.457  14.429  1.00  0.00     0.027 A 
HETATM   27  C   UNL     1      41.704  -8.235  15.097  1.00  0.00     0.027 A 
ENDBRANCH  23  25
ENDBRANCH  18  21
ENDBRANCH   3  11
BRANCH   1  28
HETATM   28  S   UNL     1      39.846 -13.348   2.916  1.00  0.00    -0.108 SA
BRANCH  28  29
HETATM   29  C   UNL     1      41.086 -13.667   1.606  1.00  0.00     0.108 C 
BRANCH  29  30
HETATM   30  C   UNL     1      41.028 -12.564   0.546  1.00  0.00     0.244 C 
BRANCH  30  31
HETATM   31  N   UNL     1      40.985 -13.137  -0.864  1.00  0.00    -0.078 N 
HETATM   32  C   UNL     1      39.881 -14.136  -1.074  1.00  0.00     0.269 C 
HETATM   33  H   UNL     1      41.874 -13.649  -0.983  1.00  0.00     0.279 HD
HETATM   34  C   UNL     1      40.962 -12.056  -1.907  1.00  0.00     0.269 C 
ENDBRANCH  30  31
ENDBRANCH  29  30
ENDBRANCH  28  29
ENDBRANCH   1  28
BRANCH   8  35
HETATM   35  C   UNL     1      43.325 -16.555   5.685  1.00  0.00     0.010 A 
HETATM   36  C   UNL     1      43.199 -17.554   6.678  1.00  0.00     0.152 A 
HETATM   37  N   UNL     1      43.589 -18.758   6.253  1.00  0.00    -0.187 NA
HETATM   38  N   UNL     1      43.955 -18.540   4.980  1.00  0.00    -0.289 N 
HETATM   39  H   UNL     1      44.293 -19.326   4.433  1.00  0.00     0.188 HD
HETATM   40  C   UNL     1      43.823 -17.235   4.595  1.00  0.00     0.123 A 
ENDBRANCH   8  35
TORSDOF 8
ENDMDL
MODEL 10
REMARK VINA RESULT:      -7.6      2.272      2.896
REMARK  8 active torsions:
REMARK  status: ('A' for Active; 'I' for Inactive)
REMARK    1  A    between atoms: N_2  and  C_5 
REMARK    2  A    between atoms: C_5  and  C_6 
REMARK    3  A    between atoms: C_6  and  S_7 
REMARK    4  A    between atoms: S_7  and  C_8 
REMARK    5  A    between atoms: C_10  and  C_24 
REMARK    6  A    between atoms: C_15  and  C_18 
REMARK    7  A    between atoms: C_30  and  C_34 
REMARK       I    between atoms: C_34  and  N_36 
REMARK    8  A    between atoms: N_36  and  C_37 
ROOT
HETATM    1  C   UNL     1      42.560 -12.296   2.915  1.00  0.00     0.108 A 
HETATM    2  N   UNL     1      41.883 -11.185   2.569  1.00  0.00    -0.225 NA
HETATM    3  C   UNL     1      40.709 -11.354   1.947  1.00  0.00     0.134 A 
HETATM    4  N   UNL     1      40.155 -12.555   1.720  1.00  0.00    -0.232 NA
HETATM    5  C   UNL     1      40.845 -13.650   2.056  1.00  0.00     0.072 A 
HETATM    6  C   UNL     1      40.297 -14.891   1.767  1.00  0.00     0.033 A 
HETATM    7  C   UNL     1      40.968 -16.084   2.052  1.00  0.00     0.014 A 
HETATM    8  C   UNL     1      42.227 -16.055   2.651  1.00  0.00    -0.022 A 
HETATM    9  C   UNL     1      42.783 -14.810   2.964  1.00  0.00     0.029 A 
HETATM   10  C   UNL     1      42.100 -13.596   2.666  1.00  0.00     0.029 A 
ENDROOT
BRANCH   3  11
HETATM   11  C   UNL     1      39.949 -10.141   1.450  1.00  0.00     0.086 C 
HETATM   12  C   UNL     1      38.459 -10.145   1.806  1.00  0.00     0.188 C 
HETATM   13  O   UNL     1      38.161 -10.030   3.208  1.00  0.00    -0.350 OA
HETATM   14  C   UNL     1      38.973  -9.193   3.925  1.00  0.00     0.075 A 
HETATM   15  C   UNL     1      38.598  -8.966   5.250  1.00  0.00     0.038 A 
HETATM   16  C   UNL     1      40.145  -8.624   3.420  1.00  0.00    -0.023 A 
HETATM   17  C   UNL     1      39.390  -8.171   6.084  1.00  0.00     0.020 A 
HETATM   18  C   UNL     1      40.562  -7.592   5.584  1.00  0.00     0.032 A 
HETATM   19  C   UNL     1      40.934  -7.820   4.253  1.00  0.00     0.027 A 
HETATM   20  C   UNL     1      40.555  -8.846   1.991  1.00  0.00     0.056 C 
BRANCH  18  21
HETATM   21  C   UNL     1      41.466  -6.778   6.439  1.00  0.00     0.252 C 
HETATM   22  O   UNL     1      42.194  -5.939   5.920  1.00  0.00    -0.268 OA
HETATM   23  N   UNL     1      41.403  -7.020   7.797  1.00  0.00    -0.352 N 
HETATM   24  H   UNL     1      40.648  -7.584   8.166  1.00  0.00     0.163 HD
BRANCH  23  25
HETATM   25  C   UNL     1      42.199  -6.283   8.728  1.00  0.00     0.084 A 
HETATM   26  C   UNL     1      42.376  -6.772  10.139  1.00  0.00     0.027 A 
HETATM   27  C   UNL     1      43.528  -6.818   9.180  1.00  0.00     0.027 A 
ENDBRANCH  23  25
ENDBRANCH  18  21
ENDBRANCH   3  11
BRANCH   1  28
HETATM   28  S   UNL     1      44.170 -11.978   3.649  1.00  0.00    -0.108 SA
BRANCH  28  29
HETATM   29  C   UNL     1      43.665 -11.381   5.306  1.00  0.00     0.108 C 
BRANCH  29  30
HETATM   30  C   UNL     1      43.407 -12.568   6.238  1.00  0.00     0.244 C 
BRANCH  30  31
HETATM   31  N   UNL     1      41.936 -12.684   6.612  1.00  0.00    -0.078 N 
HETATM   32  C   UNL     1      41.091 -11.556   6.087  1.00  0.00     0.269 C 
HETATM   33  H   UNL     1      41.905 -12.622   7.642  1.00  0.00     0.279 HD
HETATM   34  C   UNL     1      41.367 -14.023   6.239  1.00  0.00     0.269 C 
ENDBRANCH  30  31
ENDBRANCH  29  30
ENDBRANCH  28  29
ENDBRANCH   1  28
BRANCH   8  35
HETATM   35  C   UNL     1      42.955 -17.276   2.943  1.00  0.00     0.010 A 
HETATM   36  C   UNL     1      43.032 -18.500   2.238  1.00  0.00     0.152 A 
HETATM   37  N   UNL     1      43.786 -19.410   2.858  1.00  0.00    -0.187 NA
HETATM   38  N   UNL     1      44.210 -18.769   3.960  1.00  0.00    -0.289 N 
HETATM   39  H   UNL     1      44.817 -19.267   4.604  1.00  0.00     0.188 HD
HETATM   40  C   UNL     1      43.734 -17.492   4.060  1.00  0.00     0.123 A 
ENDBRANCH   8  35
TORSDOF 8
ENDMDL
