MODEL 1
REMARK VINA RESULT:      -8.2      0.000      0.000
REMARK  6 active torsions:
REMARK  status: ('A' for Active; 'I' for Inactive)
REMARK    1  A    between atoms: C_2  and  O_3 
REMARK    2  A    between atoms: O_3  and  C_4 
REMARK    3  A    between atoms: C_4  and  C_5 
REMARK    4  A    between atoms: C_6  and  O_7 
REMARK    5  A    between atoms: C_12  and  O_13 
REMARK    6  A    between atoms: C_17  and  C_18 
ROOT
HETATM    1  C   UNL     1      42.664 -14.176   3.212  1.00  0.00     0.133 C 
HETATM    2  C   UNL     1      41.176 -13.880   2.814  1.00  0.00     0.073 C 
HETATM    3  C   UNL     1      40.609 -15.012   1.940  1.00  0.00     0.047 C 
HETATM    4  C   UNL     1      40.234 -13.641   4.031  1.00  0.00     0.097 C 
HETATM    5  C   UNL     1      40.574 -14.573   5.130  1.00  0.00     0.042 A 
HETATM    6  C   UNL     1      41.737 -15.298   5.284  1.00  0.00     0.030 A 
HETATM    7  C   UNL     1      41.541 -15.962   6.505  1.00  0.00     0.190 A 
HETATM    8  N   UNL     1      40.368 -15.706   7.070  1.00  0.00    -0.149 NA
HETATM    9  N   UNL     1      39.790 -14.844   6.214  1.00  0.00    -0.279 N 
HETATM   10  H   UNL     1      38.870 -14.482   6.444  1.00  0.00     0.189 HD
HETATM   11  C   UNL     1      42.882 -15.235   4.332  1.00  0.00     0.074 C 
ENDROOT
BRANCH  11  12
HETATM   12  C   UNL     1      43.183 -16.632   3.795  1.00  0.00    -0.048 A 
HETATM   13  C   UNL     1      42.608 -17.191   2.641  1.00  0.00     0.011 A 
HETATM   14  C   UNL     1      42.947 -18.481   2.219  1.00  0.00     0.043 A 
HETATM   15  C   UNL     1      43.869 -19.222   2.946  1.00  0.00     0.116 A 
HETATM   16  F   UNL     1      44.192 -20.457   2.541  1.00  0.00    -0.206 F 
HETATM   17  C   UNL     1      44.459 -18.697   4.086  1.00  0.00     0.043 A 
HETATM   18  C   UNL     1      44.120 -17.411   4.508  1.00  0.00     0.011 A 
ENDBRANCH  11  12
BRANCH   1  19
HETATM   19  C   UNL     1      43.351 -12.898   3.666  1.00  0.00     0.267 C 
HETATM   20  O   UNL     1      43.606 -11.946   2.943  1.00  0.00    -0.265 OA
BRANCH  19  21
HETATM   21  O   UNL     1      43.667 -12.988   4.989  1.00  0.00    -0.316 OA
BRANCH  21  22
HETATM   22  C   UNL     1      43.738 -11.753   5.730  1.00  0.00     0.123 C 
HETATM   23  C   UNL     1      44.736 -11.958   6.863  1.00  0.00     0.040 C 
HETATM   24  C   UNL     1      42.347 -11.447   6.266  1.00  0.00     0.040 C 
ENDBRANCH  21  22
ENDBRANCH  19  21
ENDBRANCH   1  19
BRANCH   2  25
HETATM   25  O   UNL     1      41.129 -12.722   1.956  1.00  0.00    -0.389 OA
HETATM   26  H   UNL     1      42.052 -12.450   1.773  1.00  0.00     0.210 HD
ENDBRANCH   2  25
BRANCH   7  27
HETATM   27  O   UNL     1      42.342 -16.812   7.152  1.00  0.00    -0.343 OA
HETATM   28  H   UNL     1      43.206 -16.400   7.295  1.00  0.00     0.219 HD
ENDBRANCH   7  27
TORSDOF 6
ENDMDL
MODEL 2
REMARK VINA RESULT:      -7.6      3.487      6.356
REMARK  6 active torsions:
REMARK  status: ('A' for Active; 'I' for Inactive)
REMARK    1  A    between atoms: C_2  and  O_3 
REMARK    2  A    between atoms: O_3  and  C_4 
REMARK    3  A    between atoms: C_4  and  C_5 
REMARK    4  A    between atoms: C_6  and  O_7 
REMARK    5  A    between atoms: C_12  and  O_13 
REMARK    6  A    between atoms: C_17  and  C_18 
ROOT
HETATM    1  C   UNL     1      41.813 -13.717   6.381  1.00  0.00     0.133 C 
HETATM    2  C   UNL     1      40.366 -13.315   5.929  1.00  0.00     0.073 C 
HETATM    3  C   UNL     1      39.931 -11.999   6.595  1.00  0.00     0.047 C 
HETATM    4  C   UNL     1      40.198 -13.198   4.386  1.00  0.00     0.097 C 
HETATM    5  C   UNL     1      41.400 -12.574   3.788  1.00  0.00     0.042 A 
HETATM    6  C   UNL     1      42.646 -12.434   4.363  1.00  0.00     0.030 A 
HETATM    7  C   UNL     1      43.401 -11.827   3.348  1.00  0.00     0.190 A 
HETATM    8  N   UNL     1      42.711 -11.585   2.240  1.00  0.00    -0.149 NA
HETATM    9  N   UNL     1      41.485 -12.058   2.526  1.00  0.00    -0.279 N 
HETATM   10  H   UNL     1      40.768 -12.000   1.810  1.00  0.00     0.189 HD
HETATM   11  C   UNL     1      42.985 -12.928   5.728  1.00  0.00     0.074 C 
ENDROOT
BRANCH  11  12
HETATM   12  C   UNL     1      43.486 -11.768   6.585  1.00  0.00    -0.048 A 
HETATM   13  C   UNL     1      42.756 -10.599   6.863  1.00  0.00     0.011 A 
HETATM   14  C   UNL     1      43.294  -9.587   7.665  1.00  0.00     0.043 A 
HETATM   15  C   UNL     1      44.566  -9.737   8.200  1.00  0.00     0.116 A 
HETATM   16  F   UNL     1      45.080  -8.767   8.967  1.00  0.00    -0.206 F 
HETATM   17  C   UNL     1      45.311 -10.880   7.949  1.00  0.00     0.043 A 
HETATM   18  C   UNL     1      44.774 -11.890   7.149  1.00  0.00     0.011 A 
ENDBRANCH  11  12
BRANCH   1  19
HETATM   19  C   UNL     1      42.060 -15.191   6.106  1.00  0.00     0.267 C 
HETATM   20  O   UNL     1      41.450 -16.113   6.630  1.00  0.00    -0.265 OA
BRANCH  19  21
HETATM   21  O   UNL     1      43.081 -15.331   5.213  1.00  0.00    -0.316 OA
BRANCH  21  22
HETATM   22  C   UNL     1      42.939 -16.357   4.211  1.00  0.00     0.123 C 
HETATM   23  C   UNL     1      43.956 -17.446   4.526  1.00  0.00     0.040 C 
HETATM   24  C   UNL     1      43.206 -15.726   2.852  1.00  0.00     0.040 C 
ENDBRANCH  21  22
ENDBRANCH  19  21
ENDBRANCH   1  19
BRANCH   2  25
HETATM   25  O   UNL     1      39.421 -14.284   6.426  1.00  0.00    -0.389 OA
HETATM   26  H   UNL     1      39.072 -14.782   5.658  1.00  0.00     0.210 HD
ENDBRANCH   2  25
BRANCH   7  27
HETATM   27  O   UNL     1      44.681 -11.448   3.348  1.00  0.00    -0.343 OA
HETATM   28  H   UNL     1      44.949 -11.205   4.246  1.00  0.00     0.219 HD
ENDBRANCH   7  27
TORSDOF 6
ENDMDL
MODEL 3
REMARK VINA RESULT:      -7.3      2.803      4.360
REMARK  6 active torsions:
REMARK  status: ('A' for Active; 'I' for Inactive)
REMARK    1  A    between atoms: C_2  and  O_3 
REMARK    2  A    between atoms: O_3  and  C_4 
REMARK    3  A    between atoms: C_4  and  C_5 
REMARK    4  A    between atoms: C_6  and  O_7 
REMARK    5  A    between atoms: C_12  and  O_13 
REMARK    6  A    between atoms: C_17  and  C_18 
ROOT
HETATM    1  C   UNL     1      41.726 -13.151   3.900  1.00  0.00     0.133 C 
HETATM    2  C   UNL     1      40.494 -12.375   4.483  1.00  0.00     0.073 C 
HETATM    3  C   UNL     1      39.778 -13.214   5.555  1.00  0.00     0.047 C 
HETATM    4  C   UNL     1      40.850 -10.977   5.067  1.00  0.00     0.097 C 
HETATM    5  C   UNL     1      42.141 -11.039   5.789  1.00  0.00     0.042 A 
HETATM    6  C   UNL     1      43.108 -12.018   5.694  1.00  0.00     0.030 A 
HETATM    7  C   UNL     1      44.122 -11.551   6.546  1.00  0.00     0.190 A 
HETATM    8  N   UNL     1      43.832 -10.400   7.140  1.00  0.00    -0.149 NA
HETATM    9  N   UNL     1      42.614 -10.097   6.657  1.00  0.00    -0.279 N 
HETATM   10  H   UNL     1      42.178  -9.231   6.960  1.00  0.00     0.189 HD
HETATM   11  C   UNL     1      42.997 -13.204   4.797  1.00  0.00     0.074 C 
ENDROOT
BRANCH  11  12
HETATM   12  C   UNL     1      43.105 -14.484   5.622  1.00  0.00    -0.048 A 
HETATM   13  C   UNL     1      42.901 -14.566   7.010  1.00  0.00     0.011 A 
HETATM   14  C   UNL     1      43.016 -15.787   7.684  1.00  0.00     0.043 A 
HETATM   15  C   UNL     1      43.332 -16.937   6.974  1.00  0.00     0.116 A 
HETATM   16  F   UNL     1      43.443 -18.104   7.621  1.00  0.00    -0.206 F 
HETATM   17  C   UNL     1      43.535 -16.891   5.603  1.00  0.00     0.043 A 
HETATM   18  C   UNL     1      43.420 -15.674   4.930  1.00  0.00     0.011 A 
ENDBRANCH  11  12
BRANCH   1  19
HETATM   19  C   UNL     1      42.145 -12.551   2.568  1.00  0.00     0.267 C 
HETATM   20  O   UNL     1      42.774 -11.510   2.436  1.00  0.00    -0.265 OA
BRANCH  19  21
HETATM   21  O   UNL     1      41.689 -13.329   1.545  1.00  0.00    -0.316 OA
BRANCH  21  22
HETATM   22  C   UNL     1      41.473 -14.725   1.831  1.00  0.00     0.123 C 
HETATM   23  C   UNL     1      42.703 -15.484   1.351  1.00  0.00     0.040 C 
HETATM   24  C   UNL     1      40.223 -15.169   1.086  1.00  0.00     0.040 C 
ENDBRANCH  21  22
ENDBRANCH  19  21
ENDBRANCH   1  19
BRANCH   2  25
HETATM   25  O   UNL     1      39.501 -12.208   3.451  1.00  0.00    -0.389 OA
HETATM   26  H   UNL     1      38.638 -12.491   3.819  1.00  0.00     0.210 HD
ENDBRANCH   2  25
BRANCH   7  27
HETATM   27  O   UNL     1      45.300 -12.099   6.850  1.00  0.00    -0.343 OA
HETATM   28  H   UNL     1      45.353 -12.249   7.805  1.00  0.00     0.219 HD
ENDBRANCH   7  27
TORSDOF 6
ENDMDL
MODEL 4
REMARK VINA RESULT:      -7.2      3.099      5.143
REMARK  6 active torsions:
REMARK  status: ('A' for Active; 'I' for Inactive)
REMARK    1  A    between atoms: C_2  and  O_3 
REMARK    2  A    between atoms: O_3  and  C_4 
REMARK    3  A    between atoms: C_4  and  C_5 
REMARK    4  A    between atoms: C_6  and  O_7 
REMARK    5  A    between atoms: C_12  and  O_13 
REMARK    6  A    between atoms: C_17  and  C_18 
ROOT
HETATM    1  C   UNL     1      42.436 -14.545   5.992  1.00  0.00     0.133 C 
HETATM    2  C   UNL     1      41.906 -15.975   6.361  1.00  0.00     0.073 C 
HETATM    3  C   UNL     1      40.387 -16.069   6.136  1.00  0.00     0.047 C 
HETATM    4  C   UNL     1      42.618 -17.128   5.596  1.00  0.00     0.097 C 
HETATM    5  C   UNL     1      42.867 -16.731   4.192  1.00  0.00     0.042 A 
HETATM    6  C   UNL     1      42.849 -15.456   3.666  1.00  0.00     0.030 A 
HETATM    7  C   UNL     1      43.195 -15.660   2.320  1.00  0.00     0.190 A 
HETATM    8  N   UNL     1      43.400 -16.934   2.008  1.00  0.00    -0.149 NA
HETATM    9  N   UNL     1      43.201 -17.576   3.173  1.00  0.00    -0.279 N 
HETATM   10  H   UNL     1      43.319 -18.585   3.192  1.00  0.00     0.189 HD
HETATM   11  C   UNL     1      42.579 -14.233   4.473  1.00  0.00     0.074 C 
ENDROOT
BRANCH  11  12
HETATM   12  C   UNL     1      41.380 -13.486   3.892  1.00  0.00    -0.048 A 
HETATM   13  C   UNL     1      41.157 -12.104   4.015  1.00  0.00     0.011 A 
HETATM   14  C   UNL     1      40.031 -11.503   3.444  1.00  0.00     0.043 A 
HETATM   15  C   UNL     1      39.120 -12.278   2.741  1.00  0.00     0.116 A 
HETATM   16  F   UNL     1      38.041 -11.701   2.195  1.00  0.00    -0.206 F 
HETATM   17  C   UNL     1      39.313 -13.644   2.596  1.00  0.00     0.043 A 
HETATM   18  C   UNL     1      40.436 -14.244   3.166  1.00  0.00     0.011 A 
ENDBRANCH  11  12
BRANCH   1  19
HETATM   19  C   UNL     1      43.796 -14.308   6.626  1.00  0.00     0.267 C 
HETATM   20  O   UNL     1      44.746 -15.075   6.554  1.00  0.00    -0.265 OA
BRANCH  19  21
HETATM   21  O   UNL     1      43.789 -13.128   7.310  1.00  0.00    -0.316 OA
BRANCH  21  22
HETATM   22  C   UNL     1      44.073 -11.933   6.557  1.00  0.00     0.123 C 
HETATM   23  C   UNL     1      45.488 -11.496   6.912  1.00  0.00     0.040 C 
HETATM   24  C   UNL     1      43.052 -10.875   6.950  1.00  0.00     0.040 C 
ENDBRANCH  21  22
ENDBRANCH  19  21
ENDBRANCH   1  19
BRANCH   2  25
HETATM   25  O   UNL     1      42.061 -16.192   7.778  1.00  0.00    -0.389 OA
HETATM   26  H   UNL     1      43.012 -16.093   7.992  1.00  0.00     0.210 HD
ENDBRANCH   2  25
BRANCH   7  27
HETATM   27  O   UNL     1      43.325 -14.775   1.330  1.00  0.00    -0.343 OA
HETATM   28  H   UNL     1      44.200 -14.865   0.925  1.00  0.00     0.219 HD
ENDBRANCH   7  27
TORSDOF 6
ENDMDL
MODEL 5
REMARK VINA RESULT:      -7.2      3.005      5.383
REMARK  6 active torsions:
REMARK  status: ('A' for Active; 'I' for Inactive)
REMARK    1  A    between atoms: C_2  and  O_3 
REMARK    2  A    between atoms: O_3  and  C_4 
REMARK    3  A    between atoms: C_4  and  C_5 
REMARK    4  A    between atoms: C_6  and  O_7 
REMARK    5  A    between atoms: C_12  and  O_13 
REMARK    6  A    between atoms: C_17  and  C_18 
ROOT
HETATM    1  C   UNL     1      43.398 -14.953   3.834  1.00  0.00     0.133 C 
HETATM    2  C   UNL     1      43.305 -16.314   4.609  1.00  0.00     0.073 C 
HETATM    3  C   UNL     1      44.231 -16.307   5.837  1.00  0.00     0.047 C 
HETATM    4  C   UNL     1      41.860 -16.690   5.048  1.00  0.00     0.097 C 
HETATM    5  C   UNL     1      41.135 -15.484   5.507  1.00  0.00     0.042 A 
HETATM    6  C   UNL     1      41.468 -14.166   5.271  1.00  0.00     0.030 A 
HETATM    7  C   UNL     1      40.424 -13.457   5.887  1.00  0.00     0.190 A 
HETATM    8  N   UNL     1      39.523 -14.235   6.473  1.00  0.00    -0.149 NA
HETATM    9  N   UNL     1      39.972 -15.477   6.222  1.00  0.00    -0.279 N 
HETATM   10  H   UNL     1      39.428 -16.264   6.564  1.00  0.00     0.189 HD
HETATM   11  C   UNL     1      42.651 -13.744   4.468  1.00  0.00     0.074 C 
ENDROOT
BRANCH  11  12
HETATM   12  C   UNL     1      43.554 -12.849   5.314  1.00  0.00    -0.048 A 
HETATM   13  C   UNL     1      44.420 -11.867   4.802  1.00  0.00     0.011 A 
HETATM   14  C   UNL     1      45.208 -11.088   5.655  1.00  0.00     0.043 A 
HETATM   15  C   UNL     1      45.135 -11.280   7.027  1.00  0.00     0.116 A 
HETATM   16  F   UNL     1      45.892 -10.534   7.842  1.00  0.00    -0.206 F 
HETATM   17  C   UNL     1      44.286 -12.237   7.565  1.00  0.00     0.043 A 
HETATM   18  C   UNL     1      43.499 -13.015   6.715  1.00  0.00     0.011 A 
ENDBRANCH  11  12
BRANCH   1  19
HETATM   19  C   UNL     1      42.865 -15.115   2.420  1.00  0.00     0.267 C 
HETATM   20  O   UNL     1      43.333 -15.867   1.577  1.00  0.00    -0.265 OA
BRANCH  19  21
HETATM   21  O   UNL     1      41.809 -14.275   2.224  1.00  0.00    -0.316 OA
BRANCH  21  22
HETATM   22  C   UNL     1      40.782 -14.716   1.313  1.00  0.00     0.123 C 
HETATM   23  C   UNL     1      40.059 -13.475   0.807  1.00  0.00     0.040 C 
HETATM   24  C   UNL     1      39.838 -15.633   2.077  1.00  0.00     0.040 C 
ENDBRANCH  21  22
ENDBRANCH  19  21
ENDBRANCH   1  19
BRANCH   2  25
HETATM   25  O   UNL     1      43.830 -17.373   3.783  1.00  0.00    -0.389 OA
HETATM   26  H   UNL     1      43.658 -18.221   4.242  1.00  0.00     0.210 HD
ENDBRANCH   2  25
BRANCH   7  27
HETATM   27  O   UNL     1      40.228 -12.140   5.981  1.00  0.00    -0.343 OA
HETATM   28  H   UNL     1      40.108 -11.764   5.096  1.00  0.00     0.219 HD
ENDBRANCH   7  27
TORSDOF 6
ENDMDL
MODEL 6
REMARK VINA RESULT:      -7.2      2.934      5.163
REMARK  6 active torsions:
REMARK  status: ('A' for Active; 'I' for Inactive)
REMARK    1  A    between atoms: C_2  and  O_3 
REMARK    2  A    between atoms: O_3  and  C_4 
REMARK    3  A    between atoms: C_4  and  C_5 
REMARK    4  A    between atoms: C_6  and  O_7 
REMARK    5  A    between atoms: C_12  and  O_13 
REMARK    6  A    between atoms: C_17  and  C_18 
ROOT
HETATM    1  C   UNL     1      40.618 -12.842   1.259  1.00  0.00     0.133 C 
HETATM    2  C   UNL     1      39.414 -12.419   2.171  1.00  0.00     0.073 C 
HETATM    3  C   UNL     1      39.077 -13.529   3.181  1.00  0.00     0.047 C 
HETATM    4  C   UNL     1      39.638 -11.077   2.927  1.00  0.00     0.097 C 
HETATM    5  C   UNL     1      41.038 -10.984   3.398  1.00  0.00     0.042 A 
HETATM    6  C   UNL     1      42.118 -11.727   2.968  1.00  0.00     0.030 A 
HETATM    7  C   UNL     1      43.187 -11.196   3.706  1.00  0.00     0.190 A 
HETATM    8  N   UNL     1      42.832 -10.224   4.537  1.00  0.00    -0.149 NA
HETATM    9  N   UNL     1      41.509 -10.102   4.328  1.00  0.00    -0.279 N 
HETATM   10  H   UNL     1      41.003  -9.394   4.850  1.00  0.00     0.189 HD
HETATM   11  C   UNL     1      42.033 -12.770   1.906  1.00  0.00     0.074 C 
ENDROOT
BRANCH  11  12
HETATM   12  C   UNL     1      42.517 -14.108   2.457  1.00  0.00    -0.048 A 
HETATM   13  C   UNL     1      42.586 -14.437   3.822  1.00  0.00     0.011 A 
HETATM   14  C   UNL     1      43.039 -15.694   4.238  1.00  0.00     0.043 A 
HETATM   15  C   UNL     1      43.422 -16.634   3.292  1.00  0.00     0.116 A 
HETATM   16  F   UNL     1      43.856 -17.836   3.692  1.00  0.00    -0.206 F 
HETATM   17  C   UNL     1      43.360 -16.343   1.937  1.00  0.00     0.043 A 
HETATM   18  C   UNL     1      42.909 -15.089   1.522  1.00  0.00     0.011 A 
ENDBRANCH  11  12
BRANCH   1  19
HETATM   19  C   UNL     1      40.656 -11.985   0.005  1.00  0.00     0.267 C 
HETATM   20  O   UNL     1      41.349 -10.988  -0.140  1.00  0.00    -0.265 OA
BRANCH  19  21
HETATM   21  O   UNL     1      39.781 -12.476  -0.918  1.00  0.00    -0.316 OA
BRANCH  21  22
HETATM   22  C   UNL     1      40.207 -13.625  -1.677  1.00  0.00     0.123 C 
HETATM   23  C   UNL     1      40.744 -13.118  -3.009  1.00  0.00     0.040 C 
HETATM   24  C   UNL     1      39.000 -14.530  -1.876  1.00  0.00     0.040 C 
ENDBRANCH  21  22
ENDBRANCH  19  21
ENDBRANCH   1  19
BRANCH   2  25
HETATM   25  O   UNL     1      38.221 -12.306   1.368  1.00  0.00    -0.389 OA
HETATM   26  H   UNL     1      38.488 -12.370   0.428  1.00  0.00     0.210 HD
ENDBRANCH   2  25
BRANCH   7  27
HETATM   27  O   UNL     1      44.478 -11.537   3.704  1.00  0.00    -0.343 OA
HETATM   28  H   UNL     1      45.024 -10.748   3.832  1.00  0.00     0.219 HD
ENDBRANCH   7  27
TORSDOF 6
ENDMDL
MODEL 7
REMARK VINA RESULT:      -7.0      3.165      4.383
REMARK  6 active torsions:
REMARK  status: ('A' for Active; 'I' for Inactive)
REMARK    1  A    between atoms: C_2  and  O_3 
REMARK    2  A    between atoms: O_3  and  C_4 
REMARK    3  A    between atoms: C_4  and  C_5 
REMARK    4  A    between atoms: C_6  and  O_7 
REMARK    5  A    between atoms: C_12  and  O_13 
REMARK    6  A    between atoms: C_17  and  C_18 
ROOT
HETATM    1  C   UNL     1      41.074 -12.089   4.053  1.00  0.00     0.133 C 
HETATM    2  C   UNL     1      42.188 -11.457   3.146  1.00  0.00     0.073 C 
HETATM    3  C   UNL     1      43.550 -12.119   3.414  1.00  0.00     0.047 C 
HETATM    4  C   UNL     1      41.869 -11.516   1.624  1.00  0.00     0.097 C 
HETATM    5  C   UNL     1      41.234 -12.810   1.285  1.00  0.00     0.042 A 
HETATM    6  C   UNL     1      40.647 -13.707   2.153  1.00  0.00     0.030 A 
HETATM    7  C   UNL     1      40.173 -14.716   1.298  1.00  0.00     0.190 A 
HETATM    8  N   UNL     1      40.442 -14.500   0.017  1.00  0.00    -0.149 NA
HETATM    9  N   UNL     1      41.087 -13.320   0.027  1.00  0.00    -0.279 N 
HETATM   10  H   UNL     1      41.387 -12.927  -0.860  1.00  0.00     0.189 HD
HETATM   11  C   UNL     1      40.547 -13.489   3.624  1.00  0.00     0.074 C 
ENDROOT
BRANCH  11  12
HETATM   12  C   UNL     1      41.221 -14.643   4.362  1.00  0.00    -0.048 A 
HETATM   13  C   UNL     1      42.331 -15.363   3.887  1.00  0.00     0.011 A 
HETATM   14  C   UNL     1      42.888 -16.404   4.635  1.00  0.00     0.043 A 
HETATM   15  C   UNL     1      42.344 -16.733   5.869  1.00  0.00     0.116 A 
HETATM   16  F   UNL     1      42.878 -17.731   6.584  1.00  0.00    -0.206 F 
HETATM   17  C   UNL     1      41.252 -16.039   6.370  1.00  0.00     0.043 A 
HETATM   18  C   UNL     1      40.695 -14.999   5.623  1.00  0.00     0.011 A 
ENDBRANCH  11  12
BRANCH   1  19
HETATM   19  C   UNL     1      39.870 -11.164   4.130  1.00  0.00     0.267 C 
HETATM   20  O   UNL     1      38.878 -11.246   3.420  1.00  0.00    -0.265 OA
BRANCH  19  21
HETATM   21  O   UNL     1      40.077 -10.214   5.086  1.00  0.00    -0.316 OA
BRANCH  21  22
HETATM   22  C   UNL     1      40.375 -10.679   6.417  1.00  0.00     0.123 C 
HETATM   23  C   UNL     1      39.053 -10.807   7.162  1.00  0.00     0.040 C 
HETATM   24  C   UNL     1      41.287  -9.656   7.079  1.00  0.00     0.040 C 
ENDBRANCH  21  22
ENDBRANCH  19  21
ENDBRANCH   1  19
BRANCH   2  25
HETATM   25  O   UNL     1      42.390 -10.080   3.525  1.00  0.00    -0.389 OA
HETATM   26  H   UNL     1      43.311  -9.993   3.848  1.00  0.00     0.210 HD
ENDBRANCH   2  25
BRANCH   7  27
HETATM   27  O   UNL     1      39.525 -15.845   1.590  1.00  0.00    -0.343 OA
HETATM   28  H   UNL     1      39.836 -16.190   2.440  1.00  0.00     0.219 HD
ENDBRANCH   7  27
TORSDOF 6
ENDMDL
MODEL 8
REMARK VINA RESULT:      -6.8      1.870      2.847
REMARK  6 active torsions:
REMARK  status: ('A' for Active; 'I' for Inactive)
REMARK    1  A    between atoms: C_2  and  O_3 
REMARK    2  A    between atoms: O_3  and  C_4 
REMARK    3  A    between atoms: C_4  and  C_5 
REMARK    4  A    between atoms: C_6  and  O_7 
REMARK    5  A    between atoms: C_12  and  O_13 
REMARK    6  A    between atoms: C_17  and  C_18 
ROOT
HETATM    1  C   UNL     1      41.907 -14.723   4.158  1.00  0.00     0.133 C 
HETATM    2  C   UNL     1      40.681 -14.917   5.116  1.00  0.00     0.073 C 
HETATM    3  C   UNL     1      40.026 -16.291   4.893  1.00  0.00     0.047 C 
HETATM    4  C   UNL     1      41.025 -14.744   6.624  1.00  0.00     0.097 C 
HETATM    5  C   UNL     1      42.344 -15.348   6.919  1.00  0.00     0.042 A 
HETATM    6  C   UNL     1      43.330 -15.690   6.017  1.00  0.00     0.030 A 
HETATM    7  C   UNL     1      44.364 -16.167   6.838  1.00  0.00     0.190 A 
HETATM    8  N   UNL     1      44.070 -16.150   8.132  1.00  0.00    -0.149 NA
HETATM    9  N   UNL     1      42.828 -15.636   8.163  1.00  0.00    -0.279 N 
HETATM   10  H   UNL     1      42.383 -15.507   9.067  1.00  0.00     0.189 HD
HETATM   11  C   UNL     1      43.213 -15.477   4.546  1.00  0.00     0.074 C 
ENDROOT
BRANCH  11  12
HETATM   12  C   UNL     1      43.383 -16.809   3.818  1.00  0.00    -0.048 A 
HETATM   13  C   UNL     1      43.154 -17.010   2.446  1.00  0.00     0.011 A 
HETATM   14  C   UNL     1      43.340 -18.267   1.862  1.00  0.00     0.043 A 
HETATM   15  C   UNL     1      43.762 -19.333   2.644  1.00  0.00     0.116 A 
HETATM   16  F   UNL     1      43.940 -20.536   2.082  1.00  0.00    -0.206 F 
HETATM   17  C   UNL     1      44.002 -19.167   3.999  1.00  0.00     0.043 A 
HETATM   18  C   UNL     1      43.816 -17.913   4.583  1.00  0.00     0.011 A 
ENDBRANCH  11  12
BRANCH   1  19
HETATM   19  C   UNL     1      42.261 -13.249   4.047  1.00  0.00     0.267 C 
HETATM   20  O   UNL     1      43.175 -12.701   4.647  1.00  0.00    -0.265 OA
BRANCH  19  21
HETATM   21  O   UNL     1      41.389 -12.626   3.205  1.00  0.00    -0.316 OA
BRANCH  21  22
HETATM   22  C   UNL     1      41.848 -12.363   1.864  1.00  0.00     0.123 C 
HETATM   23  C   UNL     1      41.761 -10.859   1.639  1.00  0.00     0.040 C 
HETATM   24  C   UNL     1      40.946 -13.120   0.901  1.00  0.00     0.040 C 
ENDBRANCH  21  22
ENDBRANCH  19  21
ENDBRANCH   1  19
BRANCH   2  25
HETATM   25  O   UNL     1      39.645 -13.977   4.766  1.00  0.00    -0.389 OA
HETATM   26  H   UNL     1      40.080 -13.149   4.475  1.00  0.00     0.210 HD
ENDBRANCH   2  25
BRANCH   7  27
HETATM   27  O   UNL     1      45.565 -16.644   6.505  1.00  0.00    -0.343 OA
HETATM   28  H   UNL     1      46.233 -15.951   6.615  1.00  0.00     0.219 HD
ENDBRANCH   7  27
TORSDOF 6
ENDMDL
MODEL 9
REMARK VINA RESULT:      -6.8      6.310      8.620
REMARK  6 active torsions:
REMARK  status: ('A' for Active; 'I' for Inactive)
REMARK    1  A    between atoms: C_2  and  O_3 
REMARK    2  A    between atoms: O_3  and  C_4 
REMARK    3  A    between atoms: C_4  and  C_5 
REMARK    4  A    between atoms: C_6  and  O_7 
REMARK    5  A    between atoms: C_12  and  O_13 
REMARK    6  A    between atoms: C_17  and  C_18 
ROOT
HETATM    1  C   UNL     1      39.793 -10.822   0.237  1.00  0.00     0.133 C 
HETATM    2  C   UNL     1      38.252 -10.879  -0.050  1.00  0.00     0.073 C 
HETATM    3  C   UNL     1      37.810  -9.676  -0.901  1.00  0.00     0.047 C 
HETATM    4  C   UNL     1      37.787 -12.198  -0.732  1.00  0.00     0.097 C 
HETATM    5  C   UNL     1      38.780 -12.630  -1.740  1.00  0.00     0.042 A 
HETATM    6  C   UNL     1      40.089 -12.212  -1.859  1.00  0.00     0.030 A 
HETATM    7  C   UNL     1      40.571 -12.969  -2.939  1.00  0.00     0.190 A 
HETATM    8  N   UNL     1      39.664 -13.779  -3.470  1.00  0.00    -0.149 NA
HETATM    9  N   UNL     1      38.572 -13.562  -2.716  1.00  0.00    -0.279 N 
HETATM   10  H   UNL     1      37.731 -14.092  -2.924  1.00  0.00     0.189 HD
HETATM   11  C   UNL     1      40.730 -11.230  -0.938  1.00  0.00     0.074 C 
ENDROOT
BRANCH  11  12
HETATM   12  C   UNL     1      41.254 -10.040  -1.737  1.00  0.00    -0.048 A 
HETATM   13  C   UNL     1      40.805  -9.670  -3.016  1.00  0.00     0.011 A 
HETATM   14  C   UNL     1      41.341  -8.557  -3.674  1.00  0.00     0.043 A 
HETATM   15  C   UNL     1      42.327  -7.802  -3.056  1.00  0.00     0.116 A 
HETATM   16  F   UNL     1      42.840  -6.738  -3.687  1.00  0.00    -0.206 F 
HETATM   17  C   UNL     1      42.789  -8.137  -1.791  1.00  0.00     0.043 A 
HETATM   18  C   UNL     1      42.255  -9.248  -1.135  1.00  0.00     0.011 A 
ENDBRANCH  11  12
BRANCH   1  19
HETATM   19  C   UNL     1      40.143 -11.714   1.417  1.00  0.00     0.267 C 
HETATM   20  O   UNL     1      39.685 -11.594   2.544  1.00  0.00    -0.265 OA
BRANCH  19  21
HETATM   21  O   UNL     1      41.062 -12.646   1.036  1.00  0.00    -0.316 OA
BRANCH  21  22
HETATM   22  C   UNL     1      40.998 -13.932   1.684  1.00  0.00     0.123 C 
HETATM   23  C   UNL     1      42.429 -14.377   1.957  1.00  0.00     0.040 C 
HETATM   24  C   UNL     1      40.288 -14.896   0.746  1.00  0.00     0.040 C 
ENDBRANCH  21  22
ENDBRANCH  19  21
ENDBRANCH   1  19
BRANCH   2  25
HETATM   25  O   UNL     1      37.528 -10.714   1.186  1.00  0.00    -0.389 OA
HETATM   26  H   UNL     1      37.219  -9.786   1.229  1.00  0.00     0.210 HD
ENDBRANCH   2  25
BRANCH   7  27
HETATM   27  O   UNL     1      41.780 -12.974  -3.505  1.00  0.00    -0.343 OA
HETATM   28  H   UNL     1      41.706 -13.248  -4.430  1.00  0.00     0.219 HD
ENDBRANCH   7  27
TORSDOF 6
ENDMDL
MODEL 10
REMARK VINA RESULT:      -6.7     14.820     16.970
REMARK  6 active torsions:
REMARK  status: ('A' for Active; 'I' for Inactive)
REMARK    1  A    between atoms: C_2  and  O_3 
REMARK    2  A    between atoms: O_3  and  C_4 
REMARK    3  A    between atoms: C_4  and  C_5 
REMARK    4  A    between atoms: C_6  and  O_7 
REMARK    5  A    between atoms: C_12  and  O_13 
REMARK    6  A    between atoms: C_17  and  C_18 
ROOT
HETATM    1  C   UNL     1      45.650 -30.077  -1.901  1.00  0.00     0.133 C 
HETATM    2  C   UNL     1      46.104 -28.577  -1.946  1.00  0.00     0.073 C 
HETATM    3  C   UNL     1      45.013 -27.658  -1.371  1.00  0.00     0.047 C 
HETATM    4  C   UNL     1      47.452 -28.304  -1.218  1.00  0.00     0.097 C 
HETATM    5  C   UNL     1      47.529 -29.101   0.027  1.00  0.00     0.042 A 
HETATM    6  C   UNL     1      46.764 -30.197   0.370  1.00  0.00     0.030 A 
HETATM    7  C   UNL     1      47.289 -30.577   1.615  1.00  0.00     0.190 A 
HETATM    8  N   UNL     1      48.277 -29.799   2.039  1.00  0.00    -0.149 NA
HETATM    9  N   UNL     1      48.416 -28.903   1.046  1.00  0.00    -0.279 N 
HETATM   10  H   UNL     1      49.140 -28.196   1.134  1.00  0.00     0.189 HD
HETATM   11  C   UNL     1      45.709 -30.775  -0.510  1.00  0.00     0.074 C 
ENDROOT
BRANCH  11  12
HETATM   12  C   UNL     1      44.371 -30.779   0.224  1.00  0.00    -0.048 A 
HETATM   13  C   UNL     1      43.814 -29.671   0.887  1.00  0.00     0.011 A 
HETATM   14  C   UNL     1      42.576 -29.765   1.531  1.00  0.00     0.043 A 
HETATM   15  C   UNL     1      41.881 -30.966   1.514  1.00  0.00     0.116 A 
HETATM   16  F   UNL     1      40.696 -31.053   2.132  1.00  0.00    -0.206 F 
HETATM   17  C   UNL     1      42.400 -32.076   0.864  1.00  0.00     0.043 A 
HETATM   18  C   UNL     1      43.635 -31.983   0.222  1.00  0.00     0.011 A 
ENDBRANCH  11  12
BRANCH   1  19
HETATM   19  C   UNL     1      46.490 -30.911  -2.854  1.00  0.00     0.267 C 
HETATM   20  O   UNL     1      47.531 -31.479  -2.556  1.00  0.00    -0.265 OA
BRANCH  19  21
HETATM   21  O   UNL     1      45.925 -30.906  -4.095  1.00  0.00    -0.316 OA
BRANCH  21  22
HETATM   22  C   UNL     1      44.498 -31.100  -4.166  1.00  0.00     0.123 C 
HETATM   23  C   UNL     1      44.251 -32.584  -4.400  1.00  0.00     0.040 C 
HETATM   24  C   UNL     1      43.966 -30.262  -5.319  1.00  0.00     0.040 C 
ENDBRANCH  21  22
ENDBRANCH  19  21
ENDBRANCH   1  19
BRANCH   2  25
HETATM   25  O   UNL     1      46.225 -28.154  -3.320  1.00  0.00    -0.389 OA
HETATM   26  H   UNL     1      45.766 -28.816  -3.877  1.00  0.00     0.210 HD
ENDBRANCH   2  25
BRANCH   7  27
HETATM   27  O   UNL     1      46.928 -31.576   2.423  1.00  0.00    -0.343 OA
HETATM   28  H   UNL     1      46.994 -32.419   1.950  1.00  0.00     0.219 HD
ENDBRANCH   7  27
TORSDOF 6
ENDMDL
