MODEL 1
REMARK VINA RESULT:      -8.4      0.000      0.000
REMARK  8 active torsions:
REMARK  status: ('A' for Active; 'I' for Inactive)
REMARK    1  A    between atoms: O_2  and  C_3 
REMARK    2  A    between atoms: C_5  and  N_6 
REMARK       I    between atoms: N_6  and  C_7 
REMARK    3  A    between atoms: C_7  and  C_8 
REMARK       I    between atoms: C_8  and  N_9 
REMARK    4  A    between atoms: N_9  and  C_10 
REMARK    5  A    between atoms: C_10  and  C_11 
REMARK    6  A    between atoms: C_11  and  S_12 
REMARK    7  A    between atoms: S_12  and  C_13 
REMARK    8  A    between atoms: C_26  and  O_27 
ROOT
HETATM    1  C   UNL     1      40.280 -12.817   3.527  1.00  0.00     0.309 C 
HETATM    2  N   UNL     1      41.579 -13.276   3.578  1.00  0.00    -0.351 N 
HETATM    3  O   UNL     1      39.556 -12.588   4.485  1.00  0.00    -0.262 OA
HETATM    4  H   UNL     1      41.980 -13.526   2.677  1.00  0.00     0.162 HD
ENDROOT
BRANCH   1   5
HETATM    5  C   UNL     1      39.748 -12.621   2.089  1.00  0.00     0.314 C 
HETATM    6  N   UNL     1      40.710 -12.882   1.143  1.00  0.00    -0.316 N 
HETATM    7  H   UNL     1      41.611 -13.198   1.503  1.00  0.00     0.169 HD
HETATM    8  O   UNL     1      38.585 -12.273   1.938  1.00  0.00    -0.262 OA
BRANCH   6   9
HETATM    9  C   UNL     1      40.624 -12.780  -0.259  1.00  0.00     0.071 A 
HETATM   10  C   UNL     1      40.113 -13.798  -1.073  1.00  0.00     0.069 A 
HETATM   11  C   UNL     1      40.039 -13.619  -2.456  1.00  0.00     0.070 A 
HETATM   12  C   UNL     1      40.506 -12.432  -3.023  1.00  0.00     0.039 A 
HETATM   13  C   UNL     1      41.016 -11.409  -2.221  1.00  0.00     0.042 A 
HETATM   14  C   UNL     1      41.071 -11.572  -0.837  1.00  0.00     0.095 A 
BRANCH  11  15
HETATM   15  O   UNL     1      39.546 -14.525  -3.356  1.00  0.00    -0.356 OA
HETATM   16  C   UNL     1      38.131 -14.571  -3.499  1.00  0.00     0.210 C 
ENDBRANCH  11  15
BRANCH  14  17
HETATM   17  O   UNL     1      41.542 -10.632   0.050  1.00  0.00    -0.354 OA
HETATM   18  C   UNL     1      41.725  -9.310  -0.442  1.00  0.00     0.210 C 
ENDBRANCH  14  17
ENDBRANCH   6   9
ENDBRANCH   1   5
BRANCH   2  19
HETATM   19  C   UNL     1      42.174 -13.746   4.815  1.00  0.00     0.144 C 
BRANCH  19  20
HETATM   20  C   UNL     1      42.507 -15.272   4.870  1.00  0.00     0.033 C 
HETATM   21  C   UNL     1      43.517 -15.517   6.014  1.00  0.00     0.049 C 
HETATM   22  C   UNL     1      42.866 -15.348   7.386  1.00  0.00     0.169 C 
HETATM   23  O   UNL     1      41.717 -16.181   7.511  1.00  0.00    -0.391 OA
HETATM   24  C   UNL     1      40.711 -15.901   6.540  1.00  0.00     0.169 C 
HETATM   25  C   UNL     1      41.249 -16.124   5.130  1.00  0.00     0.049 C 
BRANCH  20  26
HETATM   26  S   UNL     1      43.255 -15.678   3.198  1.00  0.00    -0.118 SA
BRANCH  26  27
HETATM   27  C   UNL     1      43.428 -17.451   3.226  1.00  0.00     0.001 A 
HETATM   28  C   UNL     1      42.902 -18.230   2.192  1.00  0.00     0.018 A 
HETATM   29  C   UNL     1      43.066 -19.616   2.199  1.00  0.00     0.001 A 
HETATM   30  C   UNL     1      43.773 -20.230   3.232  1.00  0.00     0.000 A 
HETATM   31  C   UNL     1      44.326 -19.457   4.251  1.00  0.00     0.001 A 
HETATM   32  C   UNL     1      44.163 -18.070   4.242  1.00  0.00     0.018 A 
ENDBRANCH  26  27
ENDBRANCH  20  26
ENDBRANCH  19  20
ENDBRANCH   2  19
TORSDOF 8
ENDMDL
MODEL 2
REMARK VINA RESULT:      -7.9      4.141      7.477
REMARK  8 active torsions:
REMARK  status: ('A' for Active; 'I' for Inactive)
REMARK    1  A    between atoms: O_2  and  C_3 
REMARK    2  A    between atoms: C_5  and  N_6 
REMARK       I    between atoms: N_6  and  C_7 
REMARK    3  A    between atoms: C_7  and  C_8 
REMARK       I    between atoms: C_8  and  N_9 
REMARK    4  A    between atoms: N_9  and  C_10 
REMARK    5  A    between atoms: C_10  and  C_11 
REMARK    6  A    between atoms: C_11  and  S_12 
REMARK    7  A    between atoms: S_12  and  C_13 
REMARK    8  A    between atoms: C_26  and  O_27 
ROOT
HETATM    1  C   UNL     1      41.286 -11.891   5.479  1.00  0.00     0.309 C 
HETATM    2  N   UNL     1      42.124 -12.915   5.089  1.00  0.00    -0.351 N 
HETATM    3  O   UNL     1      40.079 -11.835   5.294  1.00  0.00    -0.262 OA
HETATM    4  H   UNL     1      43.115 -12.729   5.220  1.00  0.00     0.162 HD
ENDROOT
BRANCH   1   5
HETATM    5  C   UNL     1      42.016 -10.730   6.190  1.00  0.00     0.314 C 
HETATM    6  N   UNL     1      42.549 -11.116   7.396  1.00  0.00    -0.316 N 
HETATM    7  H   UNL     1      42.428 -12.100   7.639  1.00  0.00     0.169 HD
HETATM    8  O   UNL     1      42.051  -9.637   5.641  1.00  0.00    -0.262 OA
BRANCH   6   9
HETATM    9  C   UNL     1      43.246 -10.343   8.345  1.00  0.00     0.071 A 
HETATM   10  C   UNL     1      42.642  -9.341   9.111  1.00  0.00     0.069 A 
HETATM   11  C   UNL     1      43.391  -8.627  10.049  1.00  0.00     0.070 A 
HETATM   12  C   UNL     1      44.752  -8.898  10.194  1.00  0.00     0.039 A 
HETATM   13  C   UNL     1      45.367  -9.897   9.436  1.00  0.00     0.042 A 
HETATM   14  C   UNL     1      44.618 -10.630   8.515  1.00  0.00     0.095 A 
BRANCH  11  15
HETATM   15  O   UNL     1      42.917  -7.639  10.870  1.00  0.00    -0.356 OA
HETATM   16  C   UNL     1      41.681  -7.898  11.526  1.00  0.00     0.210 C 
ENDBRANCH  11  15
BRANCH  14  17
HETATM   17  O   UNL     1      45.112 -11.641   7.724  1.00  0.00    -0.354 OA
HETATM   18  C   UNL     1      45.919 -11.261   6.615  1.00  0.00     0.210 C 
ENDBRANCH  14  17
ENDBRANCH   6   9
ENDBRANCH   1   5
BRANCH   2  19
HETATM   19  C   UNL     1      41.674 -13.974   4.205  1.00  0.00     0.144 C 
BRANCH  19  20
HETATM   20  C   UNL     1      42.234 -15.400   4.516  1.00  0.00     0.033 C 
HETATM   21  C   UNL     1      43.131 -15.316   5.771  1.00  0.00     0.049 C 
HETATM   22  C   UNL     1      42.308 -15.082   7.037  1.00  0.00     0.169 C 
HETATM   23  O   UNL     1      41.297 -16.076   7.179  1.00  0.00    -0.391 OA
HETATM   24  C   UNL     1      40.379 -16.103   6.088  1.00  0.00     0.169 C 
HETATM   25  C   UNL     1      41.104 -16.414   4.783  1.00  0.00     0.049 C 
BRANCH  20  26
HETATM   26  S   UNL     1      43.224 -15.888   2.999  1.00  0.00    -0.118 SA
BRANCH  26  27
HETATM   27  C   UNL     1      43.429 -17.648   3.171  1.00  0.00     0.001 A 
HETATM   28  C   UNL     1      42.972 -18.515   2.175  1.00  0.00     0.018 A 
HETATM   29  C   UNL     1      43.162 -19.893   2.295  1.00  0.00     0.001 A 
HETATM   30  C   UNL     1      43.828 -20.411   3.406  1.00  0.00     0.000 A 
HETATM   31  C   UNL     1      44.314 -19.551   4.388  1.00  0.00     0.001 A 
HETATM   32  C   UNL     1      44.125 -18.172   4.266  1.00  0.00     0.018 A 
ENDBRANCH  26  27
ENDBRANCH  20  26
ENDBRANCH  19  20
ENDBRANCH   2  19
TORSDOF 8
ENDMDL
MODEL 3
REMARK VINA RESULT:      -7.8      5.479      9.190
REMARK  8 active torsions:
REMARK  status: ('A' for Active; 'I' for Inactive)
REMARK    1  A    between atoms: O_2  and  C_3 
REMARK    2  A    between atoms: C_5  and  N_6 
REMARK       I    between atoms: N_6  and  C_7 
REMARK    3  A    between atoms: C_7  and  C_8 
REMARK       I    between atoms: C_8  and  N_9 
REMARK    4  A    between atoms: N_9  and  C_10 
REMARK    5  A    between atoms: C_10  and  C_11 
REMARK    6  A    between atoms: C_11  and  S_12 
REMARK    7  A    between atoms: S_12  and  C_13 
REMARK    8  A    between atoms: C_26  and  O_27 
ROOT
HETATM    1  C   UNL     1      39.474 -10.237   7.227  1.00  0.00     0.309 C 
HETATM    2  N   UNL     1      40.539 -11.003   6.804  1.00  0.00    -0.351 N 
HETATM    3  O   UNL     1      38.447 -10.018   6.599  1.00  0.00    -0.262 OA
HETATM    4  H   UNL     1      41.356 -10.971   7.409  1.00  0.00     0.162 HD
ENDROOT
BRANCH   1   5
HETATM    5  C   UNL     1      39.678  -9.607   8.623  1.00  0.00     0.314 C 
HETATM    6  N   UNL     1      40.972  -9.746   9.066  1.00  0.00    -0.316 N 
HETATM    7  H   UNL     1      41.616 -10.200   8.419  1.00  0.00     0.169 HD
HETATM    8  O   UNL     1      38.723  -9.073   9.170  1.00  0.00    -0.262 OA
BRANCH   6   9
HETATM    9  C   UNL     1      41.536  -9.343  10.293  1.00  0.00     0.071 A 
HETATM   10  C   UNL     1      40.956  -9.628  11.534  1.00  0.00     0.069 A 
HETATM   11  C   UNL     1      41.582  -9.214  12.712  1.00  0.00     0.070 A 
HETATM   12  C   UNL     1      42.772  -8.487  12.640  1.00  0.00     0.039 A 
HETATM   13  C   UNL     1      43.361  -8.198  11.408  1.00  0.00     0.042 A 
HETATM   14  C   UNL     1      42.752  -8.629  10.229  1.00  0.00     0.095 A 
BRANCH  11  15
HETATM   15  O   UNL     1      41.131  -9.444  13.983  1.00  0.00    -0.356 OA
HETATM   16  C   UNL     1      41.461  -8.464  14.961  1.00  0.00     0.210 C 
ENDBRANCH  11  15
BRANCH  14  17
HETATM   17  O   UNL     1      43.243  -8.412   8.963  1.00  0.00    -0.354 OA
HETATM   18  C   UNL     1      44.646  -8.562   8.777  1.00  0.00     0.210 C 
ENDBRANCH  14  17
ENDBRANCH   6   9
ENDBRANCH   1   5
BRANCH   2  19
HETATM   19  C   UNL     1      40.642 -11.480   5.436  1.00  0.00     0.144 C 
BRANCH  19  20
HETATM   20  C   UNL     1      41.706 -12.597   5.186  1.00  0.00     0.033 C 
HETATM   21  C   UNL     1      42.169 -12.518   3.715  1.00  0.00     0.049 C 
HETATM   22  C   UNL     1      43.030 -11.282   3.460  1.00  0.00     0.169 C 
HETATM   23  O   UNL     1      44.133 -11.235   4.361  1.00  0.00    -0.391 OA
HETATM   24  C   UNL     1      43.738 -11.188   5.731  1.00  0.00     0.169 C 
HETATM   25  C   UNL     1      42.936 -12.431   6.101  1.00  0.00     0.049 C 
BRANCH  20  26
HETATM   26  S   UNL     1      40.823 -14.213   5.541  1.00  0.00    -0.118 SA
BRANCH  26  27
HETATM   27  C   UNL     1      41.626 -15.384   4.466  1.00  0.00     0.001 A 
HETATM   28  C   UNL     1      42.865 -15.930   4.813  1.00  0.00     0.018 A 
HETATM   29  C   UNL     1      43.478 -16.872   3.985  1.00  0.00     0.001 A 
HETATM   30  C   UNL     1      42.847 -17.287   2.813  1.00  0.00     0.000 A 
HETATM   31  C   UNL     1      41.598 -16.770   2.476  1.00  0.00     0.001 A 
HETATM   32  C   UNL     1      40.984 -15.829   3.306  1.00  0.00     0.018 A 
ENDBRANCH  26  27
ENDBRANCH  20  26
ENDBRANCH  19  20
ENDBRANCH   2  19
TORSDOF 8
ENDMDL
MODEL 4
REMARK VINA RESULT:      -7.6      5.428      9.071
REMARK  8 active torsions:
REMARK  status: ('A' for Active; 'I' for Inactive)
REMARK    1  A    between atoms: O_2  and  C_3 
REMARK    2  A    between atoms: C_5  and  N_6 
REMARK       I    between atoms: N_6  and  C_7 
REMARK    3  A    between atoms: C_7  and  C_8 
REMARK       I    between atoms: C_8  and  N_9 
REMARK    4  A    between atoms: N_9  and  C_10 
REMARK    5  A    between atoms: C_10  and  C_11 
REMARK    6  A    between atoms: C_11  and  S_12 
REMARK    7  A    between atoms: S_12  and  C_13 
REMARK    8  A    between atoms: C_26  and  O_27 
ROOT
HETATM    1  C   UNL     1      44.663 -11.693   7.251  1.00  0.00     0.309 C 
HETATM    2  N   UNL     1      43.551 -12.500   7.137  1.00  0.00    -0.351 N 
HETATM    3  O   UNL     1      45.572 -11.595   6.439  1.00  0.00    -0.262 OA
HETATM    4  H   UNL     1      42.965 -12.541   7.967  1.00  0.00     0.162 HD
ENDROOT
BRANCH   1   5
HETATM    5  C   UNL     1      44.709 -10.885   8.567  1.00  0.00     0.314 C 
HETATM    6  N   UNL     1      43.503 -10.292   8.851  1.00  0.00    -0.316 N 
HETATM    7  H   UNL     1      42.747 -10.488   8.195  1.00  0.00     0.169 HD
HETATM    8  O   UNL     1      45.757 -10.852   9.198  1.00  0.00    -0.262 OA
BRANCH   6   9
HETATM    9  C   UNL     1      43.160  -9.453   9.930  1.00  0.00     0.071 A 
HETATM   10  C   UNL     1      42.896  -9.928  11.219  1.00  0.00     0.069 A 
HETATM   11  C   UNL     1      42.582  -9.035  12.245  1.00  0.00     0.070 A 
HETATM   12  C   UNL     1      42.503  -7.669  11.969  1.00  0.00     0.039 A 
HETATM   13  C   UNL     1      42.765  -7.182  10.687  1.00  0.00     0.042 A 
HETATM   14  C   UNL     1      43.103  -8.067   9.663  1.00  0.00     0.095 A 
BRANCH  11  15
HETATM   15  O   UNL     1      42.322  -9.369  13.547  1.00  0.00    -0.356 OA
HETATM   16  C   UNL     1      41.073  -8.938  14.075  1.00  0.00     0.210 C 
ENDBRANCH  11  15
BRANCH  14  17
HETATM   17  O   UNL     1      43.391  -7.703   8.369  1.00  0.00    -0.354 OA
HETATM   18  C   UNL     1      42.358  -7.063   7.629  1.00  0.00     0.210 C 
ENDBRANCH  14  17
ENDBRANCH   6   9
ENDBRANCH   1   5
BRANCH   2  19
HETATM   19  C   UNL     1      43.442 -13.506   6.096  1.00  0.00     0.144 C 
BRANCH  19  20
HETATM   20  C   UNL     1      42.262 -13.313   5.089  1.00  0.00     0.033 C 
HETATM   21  C   UNL     1      41.487 -12.033   5.474  1.00  0.00     0.049 C 
HETATM   22  C   UNL     1      42.294 -10.773   5.167  1.00  0.00     0.169 C 
HETATM   23  O   UNL     1      42.704 -10.749   3.802  1.00  0.00    -0.391 OA
HETATM   24  C   UNL     1      43.521 -11.861   3.441  1.00  0.00     0.169 C 
HETATM   25  C   UNL     1      42.764 -13.170   3.638  1.00  0.00     0.049 C 
BRANCH  20  26
HETATM   26  S   UNL     1      41.193 -14.843   5.277  1.00  0.00    -0.118 SA
BRANCH  26  27
HETATM   27  C   UNL     1      42.039 -16.078   4.312  1.00  0.00     0.001 A 
HETATM   28  C   UNL     1      43.136 -16.761   4.842  1.00  0.00     0.018 A 
HETATM   29  C   UNL     1      43.779 -17.751   4.097  1.00  0.00     0.001 A 
HETATM   30  C   UNL     1      43.316 -18.076   2.822  1.00  0.00     0.000 A 
HETATM   31  C   UNL     1      42.204 -17.421   2.299  1.00  0.00     0.001 A 
HETATM   32  C   UNL     1      41.560 -16.431   3.046  1.00  0.00     0.018 A 
ENDBRANCH  26  27
ENDBRANCH  20  26
ENDBRANCH  19  20
ENDBRANCH   2  19
TORSDOF 8
ENDMDL
MODEL 5
REMARK VINA RESULT:      -7.6      3.788      7.951
REMARK  8 active torsions:
REMARK  status: ('A' for Active; 'I' for Inactive)
REMARK    1  A    between atoms: O_2  and  C_3 
REMARK    2  A    between atoms: C_5  and  N_6 
REMARK       I    between atoms: N_6  and  C_7 
REMARK    3  A    between atoms: C_7  and  C_8 
REMARK       I    between atoms: C_8  and  N_9 
REMARK    4  A    between atoms: N_9  and  C_10 
REMARK    5  A    between atoms: C_10  and  C_11 
REMARK    6  A    between atoms: C_11  and  S_12 
REMARK    7  A    between atoms: S_12  and  C_13 
REMARK    8  A    between atoms: C_26  and  O_27 
ROOT
HETATM    1  C   UNL     1      42.126 -14.272   3.107  1.00  0.00     0.309 C 
HETATM    2  N   UNL     1      43.024 -13.710   3.989  1.00  0.00    -0.351 N 
HETATM    3  O   UNL     1      41.410 -13.667   2.321  1.00  0.00    -0.262 OA
HETATM    4  H   UNL     1      43.441 -14.362   4.649  1.00  0.00     0.162 HD
ENDROOT
BRANCH   1   5
HETATM    5  C   UNL     1      42.054 -15.813   3.193  1.00  0.00     0.314 C 
HETATM    6  N   UNL     1      43.035 -16.330   4.004  1.00  0.00    -0.316 N 
HETATM    7  H   UNL     1      43.641 -15.647   4.459  1.00  0.00     0.169 HD
HETATM    8  O   UNL     1      41.178 -16.394   2.568  1.00  0.00    -0.262 OA
BRANCH   6   9
HETATM    9  C   UNL     1      43.320 -17.678   4.302  1.00  0.00     0.071 A 
HETATM   10  C   UNL     1      43.577 -18.642   3.321  1.00  0.00     0.069 A 
HETATM   11  C   UNL     1      43.872 -19.956   3.690  1.00  0.00     0.070 A 
HETATM   12  C   UNL     1      43.877 -20.307   5.041  1.00  0.00     0.039 A 
HETATM   13  C   UNL     1      43.624 -19.354   6.029  1.00  0.00     0.042 A 
HETATM   14  C   UNL     1      43.352 -18.034   5.668  1.00  0.00     0.095 A 
BRANCH  11  15
HETATM   15  O   UNL     1      44.159 -20.984   2.833  1.00  0.00    -0.356 OA
HETATM   16  C   UNL     1      43.811 -20.788   1.467  1.00  0.00     0.210 C 
ENDBRANCH  11  15
BRANCH  14  17
HETATM   17  O   UNL     1      43.098 -17.011   6.551  1.00  0.00    -0.354 OA
HETATM   18  C   UNL     1      44.090 -16.742   7.535  1.00  0.00     0.210 C 
ENDBRANCH  14  17
ENDBRANCH   6   9
ENDBRANCH   1   5
BRANCH   2  19
HETATM   19  C   UNL     1      43.065 -12.279   4.228  1.00  0.00     0.144 C 
BRANCH  19  20
HETATM   20  C   UNL     1      42.622 -11.817   5.654  1.00  0.00     0.033 C 
HETATM   21  C   UNL     1      42.731 -10.278   5.732  1.00  0.00     0.049 C 
HETATM   22  C   UNL     1      41.652  -9.594   4.895  1.00  0.00     0.169 C 
HETATM   23  O   UNL     1      40.353 -10.049   5.267  1.00  0.00    -0.391 OA
HETATM   24  C   UNL     1      40.180 -11.454   5.096  1.00  0.00     0.169 C 
HETATM   25  C   UNL     1      41.169 -12.226   5.964  1.00  0.00     0.049 C 
BRANCH  20  26
HETATM   26  S   UNL     1      43.816 -12.648   6.839  1.00  0.00    -0.118 SA
BRANCH  26  27
HETATM   27  C   UNL     1      44.591 -11.289   7.689  1.00  0.00     0.001 A 
HETATM   28  C   UNL     1      45.775 -10.730   7.200  1.00  0.00     0.018 A 
HETATM   29  C   UNL     1      46.364  -9.644   7.850  1.00  0.00     0.001 A 
HETATM   30  C   UNL     1      45.762  -9.098   8.984  1.00  0.00     0.000 A 
HETATM   31  C   UNL     1      44.566  -9.630   9.459  1.00  0.00     0.001 A 
HETATM   32  C   UNL     1      43.975 -10.716   8.808  1.00  0.00     0.018 A 
ENDBRANCH  26  27
ENDBRANCH  20  26
ENDBRANCH  19  20
ENDBRANCH   2  19
TORSDOF 8
ENDMDL
MODEL 6
REMARK VINA RESULT:      -7.6      5.628      8.935
REMARK  8 active torsions:
REMARK  status: ('A' for Active; 'I' for Inactive)
REMARK    1  A    between atoms: O_2  and  C_3 
REMARK    2  A    between atoms: C_5  and  N_6 
REMARK       I    between atoms: N_6  and  C_7 
REMARK    3  A    between atoms: C_7  and  C_8 
REMARK       I    between atoms: C_8  and  N_9 
REMARK    4  A    between atoms: N_9  and  C_10 
REMARK    5  A    between atoms: C_10  and  C_11 
REMARK    6  A    between atoms: C_11  and  S_12 
REMARK    7  A    between atoms: S_12  and  C_13 
REMARK    8  A    between atoms: C_26  and  O_27 
ROOT
HETATM    1  C   UNL     1      43.868 -12.141   7.195  1.00  0.00     0.309 C 
HETATM    2  N   UNL     1      42.890 -11.178   7.332  1.00  0.00    -0.351 N 
HETATM    3  O   UNL     1      45.064 -11.991   7.399  1.00  0.00    -0.262 OA
HETATM    4  H   UNL     1      41.969 -11.453   6.999  1.00  0.00     0.162 HD
ENDROOT
BRANCH   1   5
HETATM    5  C   UNL     1      43.329 -13.506   6.710  1.00  0.00     0.314 C 
HETATM    6  N   UNL     1      43.070 -13.508   5.361  1.00  0.00    -0.316 N 
HETATM    7  H   UNL     1      43.294 -12.645   4.865  1.00  0.00     0.169 HD
HETATM    8  O   UNL     1      43.195 -14.406   7.528  1.00  0.00    -0.262 OA
BRANCH   6   9
HETATM    9  C   UNL     1      42.539 -14.540   4.563  1.00  0.00     0.071 A 
HETATM   10  C   UNL     1      43.309 -15.593   4.058  1.00  0.00     0.069 A 
HETATM   11  C   UNL     1      42.712 -16.594   3.289  1.00  0.00     0.070 A 
HETATM   12  C   UNL     1      41.348 -16.520   3.002  1.00  0.00     0.039 A 
HETATM   13  C   UNL     1      40.568 -15.475   3.502  1.00  0.00     0.042 A 
HETATM   14  C   UNL     1      41.154 -14.485   4.290  1.00  0.00     0.095 A 
BRANCH  11  15
HETATM   15  O   UNL     1      43.347 -17.682   2.754  1.00  0.00    -0.356 OA
HETATM   16  C   UNL     1      43.984 -18.561   3.675  1.00  0.00     0.210 C 
ENDBRANCH  11  15
BRANCH  14  17
HETATM   17  O   UNL     1      40.486 -13.418   4.843  1.00  0.00    -0.354 OA
HETATM   18  C   UNL     1      39.742 -12.589   3.958  1.00  0.00     0.210 C 
ENDBRANCH  14  17
ENDBRANCH   6   9
ENDBRANCH   1   5
BRANCH   2  19
HETATM   19  C   UNL     1      43.220  -9.780   7.544  1.00  0.00     0.144 C 
BRANCH  19  20
HETATM   20  C   UNL     1      42.704  -9.158   8.882  1.00  0.00     0.033 C 
HETATM   21  C   UNL     1      43.133  -7.675   8.936  1.00  0.00     0.049 C 
HETATM   22  C   UNL     1      42.347  -6.826   7.939  1.00  0.00     0.169 C 
HETATM   23  O   UNL     1      40.943  -6.975   8.137  1.00  0.00    -0.391 OA
HETATM   24  C   UNL     1      40.494  -8.319   7.978  1.00  0.00     0.169 C 
HETATM   25  C   UNL     1      41.169  -9.234   8.995  1.00  0.00     0.049 C 
BRANCH  20  26
HETATM   26  S   UNL     1      43.523 -10.157  10.242  1.00  0.00    -0.118 SA
BRANCH  26  27
HETATM   27  C   UNL     1      42.916  -9.414  11.743  1.00  0.00     0.001 A 
HETATM   28  C   UNL     1      41.822  -9.966  12.415  1.00  0.00     0.018 A 
HETATM   29  C   UNL     1      41.368  -9.402  13.608  1.00  0.00     0.001 A 
HETATM   30  C   UNL     1      42.016  -8.291  14.146  1.00  0.00     0.000 A 
HETATM   31  C   UNL     1      43.126  -7.753  13.498  1.00  0.00     0.001 A 
HETATM   32  C   UNL     1      43.582  -8.320  12.305  1.00  0.00     0.018 A 
ENDBRANCH  26  27
ENDBRANCH  20  26
ENDBRANCH  19  20
ENDBRANCH   2  19
TORSDOF 8
ENDMDL
MODEL 7
REMARK VINA RESULT:      -7.4      6.671     10.124
REMARK  8 active torsions:
REMARK  status: ('A' for Active; 'I' for Inactive)
REMARK    1  A    between atoms: O_2  and  C_3 
REMARK    2  A    between atoms: C_5  and  N_6 
REMARK       I    between atoms: N_6  and  C_7 
REMARK    3  A    between atoms: C_7  and  C_8 
REMARK       I    between atoms: C_8  and  N_9 
REMARK    4  A    between atoms: N_9  and  C_10 
REMARK    5  A    between atoms: C_10  and  C_11 
REMARK    6  A    between atoms: C_11  and  S_12 
REMARK    7  A    between atoms: S_12  and  C_13 
REMARK    8  A    between atoms: C_26  and  O_27 
ROOT
HETATM    1  C   UNL     1      43.810  -9.994   8.041  1.00  0.00     0.309 C 
HETATM    2  N   UNL     1      42.497 -10.054   8.456  1.00  0.00    -0.351 N 
HETATM    3  O   UNL     1      44.557  -9.032   8.143  1.00  0.00    -0.262 OA
HETATM    4  H   UNL     1      41.998 -10.895   8.177  1.00  0.00     0.162 HD
ENDROOT
BRANCH   1   5
HETATM    5  C   UNL     1      44.308 -11.294   7.370  1.00  0.00     0.314 C 
HETATM    6  N   UNL     1      43.271 -12.060   6.897  1.00  0.00    -0.316 N 
HETATM    7  H   UNL     1      42.338 -11.664   7.014  1.00  0.00     0.169 HD
HETATM    8  O   UNL     1      45.513 -11.505   7.325  1.00  0.00    -0.262 OA
BRANCH   6   9
HETATM    9  C   UNL     1      43.315 -13.319   6.265  1.00  0.00     0.071 A 
HETATM   10  C   UNL     1      43.782 -14.477   6.895  1.00  0.00     0.069 A 
HETATM   11  C   UNL     1      43.778 -15.696   6.214  1.00  0.00     0.070 A 
HETATM   12  C   UNL     1      43.335 -15.745   4.891  1.00  0.00     0.039 A 
HETATM   13  C   UNL     1      42.866 -14.595   4.252  1.00  0.00     0.042 A 
HETATM   14  C   UNL     1      42.845 -13.379   4.935  1.00  0.00     0.095 A 
BRANCH  11  15
HETATM   15  O   UNL     1      44.189 -16.900   6.721  1.00  0.00    -0.356 OA
HETATM   16  C   UNL     1      43.217 -17.939   6.755  1.00  0.00     0.210 C 
ENDBRANCH  11  15
BRANCH  14  17
HETATM   17  O   UNL     1      42.397 -12.189   4.413  1.00  0.00    -0.354 OA
HETATM   18  C   UNL     1      43.123 -11.647   3.316  1.00  0.00     0.210 C 
ENDBRANCH  14  17
ENDBRANCH   6   9
ENDBRANCH   1   5
BRANCH   2  19
HETATM   19  C   UNL     1      41.778  -8.869   8.888  1.00  0.00     0.144 C 
BRANCH  19  20
HETATM   20  C   UNL     1      41.217  -8.912  10.347  1.00  0.00     0.033 C 
HETATM   21  C   UNL     1      40.911  -7.468  10.802  1.00  0.00     0.049 C 
HETATM   22  C   UNL     1      39.695  -6.895  10.076  1.00  0.00     0.169 C 
HETATM   23  O   UNL     1      38.562  -7.746  10.229  1.00  0.00    -0.391 OA
HETATM   24  C   UNL     1      38.771  -9.058   9.712  1.00  0.00     0.169 C 
HETATM   25  C   UNL     1      39.923  -9.745  10.439  1.00  0.00     0.049 C 
BRANCH  20  26
HETATM   26  S   UNL     1      42.580  -9.682  11.381  1.00  0.00    -0.118 SA
BRANCH  26  27
HETATM   27  C   UNL     1      42.484  -8.810  12.931  1.00  0.00     0.001 A 
HETATM   28  C   UNL     1      43.327  -7.725  13.187  1.00  0.00     0.018 A 
HETATM   29  C   UNL     1      43.229  -7.023  14.390  1.00  0.00     0.001 A 
HETATM   30  C   UNL     1      42.274  -7.391  15.337  1.00  0.00     0.000 A 
HETATM   31  C   UNL     1      41.409  -8.452  15.076  1.00  0.00     0.001 A 
HETATM   32  C   UNL     1      41.506  -9.153  13.872  1.00  0.00     0.018 A 
ENDBRANCH  26  27
ENDBRANCH  20  26
ENDBRANCH  19  20
ENDBRANCH   2  19
TORSDOF 8
ENDMDL
MODEL 8
REMARK VINA RESULT:      -7.3      2.761      9.412
REMARK  8 active torsions:
REMARK  status: ('A' for Active; 'I' for Inactive)
REMARK    1  A    between atoms: O_2  and  C_3 
REMARK    2  A    between atoms: C_5  and  N_6 
REMARK       I    between atoms: N_6  and  C_7 
REMARK    3  A    between atoms: C_7  and  C_8 
REMARK       I    between atoms: C_8  and  N_9 
REMARK    4  A    between atoms: N_9  and  C_10 
REMARK    5  A    between atoms: C_10  and  C_11 
REMARK    6  A    between atoms: C_11  and  S_12 
REMARK    7  A    between atoms: S_12  and  C_13 
REMARK    8  A    between atoms: C_26  and  O_27 
ROOT
HETATM    1  C   UNL     1      40.676 -15.058   0.959  1.00  0.00     0.309 C 
HETATM    2  N   UNL     1      40.670 -13.792   0.412  1.00  0.00    -0.351 N 
HETATM    3  O   UNL     1      39.800 -15.902   0.837  1.00  0.00    -0.262 OA
HETATM    4  H   UNL     1      41.426 -13.188   0.724  1.00  0.00     0.162 HD
ENDROOT
BRANCH   1   5
HETATM    5  C   UNL     1      41.926 -15.357   1.816  1.00  0.00     0.314 C 
HETATM    6  N   UNL     1      41.705 -16.374   2.712  1.00  0.00    -0.316 N 
HETATM    7  H   UNL     1      40.784 -16.810   2.670  1.00  0.00     0.169 HD
HETATM    8  O   UNL     1      42.939 -14.698   1.624  1.00  0.00    -0.262 OA
BRANCH   6   9
HETATM    9  C   UNL     1      42.579 -16.906   3.682  1.00  0.00     0.071 A 
HETATM   10  C   UNL     1      42.742 -16.348   4.955  1.00  0.00     0.069 A 
HETATM   11  C   UNL     1      43.611 -16.940   5.874  1.00  0.00     0.070 A 
HETATM   12  C   UNL     1      44.338 -18.073   5.503  1.00  0.00     0.039 A 
HETATM   13  C   UNL     1      44.182 -18.640   4.237  1.00  0.00     0.042 A 
HETATM   14  C   UNL     1      43.297 -18.067   3.323  1.00  0.00     0.095 A 
BRANCH  11  15
HETATM   15  O   UNL     1      43.846 -16.505   7.150  1.00  0.00    -0.356 OA
HETATM   16  C   UNL     1      42.877 -15.627   7.710  1.00  0.00     0.210 C 
ENDBRANCH  11  15
BRANCH  14  17
HETATM   17  O   UNL     1      43.055 -18.542   2.055  1.00  0.00    -0.354 OA
HETATM   18  C   UNL     1      43.186 -19.944   1.852  1.00  0.00     0.210 C 
ENDBRANCH  14  17
ENDBRANCH   6   9
ENDBRANCH   1   5
BRANCH   2  19
HETATM   19  C   UNL     1      39.486 -13.239  -0.221  1.00  0.00     0.144 C 
BRANCH  19  20
HETATM   20  C   UNL     1      39.699 -12.638  -1.647  1.00  0.00     0.033 C 
HETATM   21  C   UNL     1      40.115 -13.775  -2.607  1.00  0.00     0.049 C 
HETATM   22  C   UNL     1      38.950 -14.719  -2.899  1.00  0.00     0.169 C 
HETATM   23  O   UNL     1      37.822 -14.000  -3.392  1.00  0.00    -0.391 OA
HETATM   24  C   UNL     1      37.339 -13.018  -2.479  1.00  0.00     0.169 C 
HETATM   25  C   UNL     1      38.416 -11.978  -2.189  1.00  0.00     0.049 C 
BRANCH  20  26
HETATM   26  S   UNL     1      41.069 -11.371  -1.453  1.00  0.00    -0.118 SA
BRANCH  26  27
HETATM   27  C   UNL     1      40.526  -9.997  -2.447  1.00  0.00     0.001 A 
HETATM   28  C   UNL     1      39.916  -8.889  -1.851  1.00  0.00     0.018 A 
HETATM   29  C   UNL     1      39.520  -7.799  -2.628  1.00  0.00     0.001 A 
HETATM   30  C   UNL     1      39.747  -7.803  -4.004  1.00  0.00     0.000 A 
HETATM   31  C   UNL     1      40.381  -8.890  -4.600  1.00  0.00     0.001 A 
HETATM   32  C   UNL     1      40.780  -9.980  -3.823  1.00  0.00     0.018 A 
ENDBRANCH  26  27
ENDBRANCH  20  26
ENDBRANCH  19  20
ENDBRANCH   2  19
TORSDOF 8
ENDMDL
MODEL 9
REMARK VINA RESULT:      -7.2      2.709      9.150
REMARK  8 active torsions:
REMARK  status: ('A' for Active; 'I' for Inactive)
REMARK    1  A    between atoms: O_2  and  C_3 
REMARK    2  A    between atoms: C_5  and  N_6 
REMARK       I    between atoms: N_6  and  C_7 
REMARK    3  A    between atoms: C_7  and  C_8 
REMARK       I    between atoms: C_8  and  N_9 
REMARK    4  A    between atoms: N_9  and  C_10 
REMARK    5  A    between atoms: C_10  and  C_11 
REMARK    6  A    between atoms: C_11  and  S_12 
REMARK    7  A    between atoms: S_12  and  C_13 
REMARK    8  A    between atoms: C_26  and  O_27 
ROOT
HETATM    1  C   UNL     1      40.743 -14.893   0.834  1.00  0.00     0.309 C 
HETATM    2  N   UNL     1      40.864 -13.668   0.213  1.00  0.00    -0.351 N 
HETATM    3  O   UNL     1      39.775 -15.638   0.780  1.00  0.00    -0.262 OA
HETATM    4  H   UNL     1      41.692 -13.137   0.473  1.00  0.00     0.162 HD
ENDROOT
BRANCH   1   5
HETATM    5  C   UNL     1      41.975 -15.283   1.681  1.00  0.00     0.314 C 
HETATM    6  N   UNL     1      41.647 -16.139   2.705  1.00  0.00    -0.316 N 
HETATM    7  H   UNL     1      40.669 -16.424   2.748  1.00  0.00     0.169 HD
HETATM    8  O   UNL     1      43.066 -14.821   1.375  1.00  0.00    -0.262 OA
BRANCH   6   9
HETATM    9  C   UNL     1      42.477 -16.683   3.705  1.00  0.00     0.071 A 
HETATM   10  C   UNL     1      43.139 -17.908   3.570  1.00  0.00     0.069 A 
HETATM   11  C   UNL     1      43.963 -18.376   4.595  1.00  0.00     0.070 A 
HETATM   12  C   UNL     1      44.097 -17.630   5.767  1.00  0.00     0.039 A 
HETATM   13  C   UNL     1      43.442 -16.405   5.913  1.00  0.00     0.042 A 
HETATM   14  C   UNL     1      42.637 -15.920   4.883  1.00  0.00     0.095 A 
BRANCH  11  15
HETATM   15  O   UNL     1      44.677 -19.544   4.580  1.00  0.00    -0.356 OA
HETATM   16  C   UNL     1      44.132 -20.631   5.319  1.00  0.00     0.210 C 
ENDBRANCH  11  15
BRANCH  14  17
HETATM   17  O   UNL     1      41.954 -14.727   4.910  1.00  0.00    -0.354 OA
HETATM   18  C   UNL     1      42.723 -13.544   5.092  1.00  0.00     0.210 C 
ENDBRANCH  14  17
ENDBRANCH   6   9
ENDBRANCH   1   5
BRANCH   2  19
HETATM   19  C   UNL     1      39.733 -13.021  -0.426  1.00  0.00     0.144 C 
BRANCH  19  20
HETATM   20  C   UNL     1      39.892 -12.735  -1.955  1.00  0.00     0.033 C 
HETATM   21  C   UNL     1      40.120 -14.076  -2.688  1.00  0.00     0.049 C 
HETATM   22  C   UNL     1      38.851 -14.926  -2.717  1.00  0.00     0.169 C 
HETATM   23  O   UNL     1      37.763 -14.198  -3.280  1.00  0.00    -0.391 OA
HETATM   24  C   UNL     1      37.448 -13.010  -2.557  1.00  0.00     0.169 C 
HETATM   25  C   UNL     1      38.639 -12.057  -2.544  1.00  0.00     0.049 C 
BRANCH  20  26
HETATM   26  S   UNL     1      41.388 -11.613  -2.098  1.00  0.00    -0.118 SA
BRANCH  26  27
HETATM   27  C   UNL     1      40.701 -10.045  -2.590  1.00  0.00     0.001 A 
HETATM   28  C   UNL     1      40.186  -9.166  -1.634  1.00  0.00     0.018 A 
HETATM   29  C   UNL     1      39.676  -7.924  -2.018  1.00  0.00     0.001 A 
HETATM   30  C   UNL     1      39.696  -7.546  -3.360  1.00  0.00     0.000 A 
HETATM   31  C   UNL     1      40.236  -8.404  -4.315  1.00  0.00     0.001 A 
HETATM   32  C   UNL     1      40.747  -9.647  -3.930  1.00  0.00     0.018 A 
ENDBRANCH  26  27
ENDBRANCH  20  26
ENDBRANCH  19  20
ENDBRANCH   2  19
TORSDOF 8
ENDMDL
MODEL 10
REMARK VINA RESULT:      -7.2      5.886      8.940
REMARK  8 active torsions:
REMARK  status: ('A' for Active; 'I' for Inactive)
REMARK    1  A    between atoms: O_2  and  C_3 
REMARK    2  A    between atoms: C_5  and  N_6 
REMARK       I    between atoms: N_6  and  C_7 
REMARK    3  A    between atoms: C_7  and  C_8 
REMARK       I    between atoms: C_8  and  N_9 
REMARK    4  A    between atoms: N_9  and  C_10 
REMARK    5  A    between atoms: C_10  and  C_11 
REMARK    6  A    between atoms: C_11  and  S_12 
REMARK    7  A    between atoms: S_12  and  C_13 
REMARK    8  A    between atoms: C_26  and  O_27 
ROOT
HETATM    1  C   UNL     1      42.858 -11.460   5.904  1.00  0.00     0.309 C 
HETATM    2  N   UNL     1      42.431 -10.971   7.121  1.00  0.00    -0.351 N 
HETATM    3  O   UNL     1      43.587 -10.884   5.110  1.00  0.00    -0.262 OA
HETATM    4  H   UNL     1      41.729 -11.541   7.588  1.00  0.00     0.162 HD
ENDROOT
BRANCH   1   5
HETATM    5  C   UNL     1      42.301 -12.862   5.569  1.00  0.00     0.314 C 
HETATM    6  N   UNL     1      42.831 -13.362   4.404  1.00  0.00    -0.316 N 
HETATM    7  H   UNL     1      43.529 -12.776   3.947  1.00  0.00     0.169 HD
HETATM    8  O   UNL     1      41.487 -13.366   6.331  1.00  0.00    -0.262 OA
BRANCH   6   9
HETATM    9  C   UNL     1      42.548 -14.579   3.753  1.00  0.00     0.071 A 
HETATM   10  C   UNL     1      43.223 -15.772   4.029  1.00  0.00     0.069 A 
HETATM   11  C   UNL     1      42.875 -16.947   3.358  1.00  0.00     0.070 A 
HETATM   12  C   UNL     1      41.871 -16.915   2.389  1.00  0.00     0.039 A 
HETATM   13  C   UNL     1      41.188 -15.730   2.106  1.00  0.00     0.042 A 
HETATM   14  C   UNL     1      41.515 -14.559   2.790  1.00  0.00     0.095 A 
BRANCH  11  15
HETATM   15  O   UNL     1      43.443 -18.177   3.549  1.00  0.00    -0.356 OA
HETATM   16  C   UNL     1      44.345 -18.298   4.643  1.00  0.00     0.210 C 
ENDBRANCH  11  15
BRANCH  14  17
HETATM   17  O   UNL     1      40.906 -13.340   2.602  1.00  0.00    -0.354 OA
HETATM   18  C   UNL     1      39.528 -13.244   2.942  1.00  0.00     0.210 C 
ENDBRANCH  14  17
ENDBRANCH   6   9
ENDBRANCH   1   5
BRANCH   2  19
HETATM   19  C   UNL     1      42.647  -9.589   7.507  1.00  0.00     0.144 C 
BRANCH  19  20
HETATM   20  C   UNL     1      43.103  -9.362   8.985  1.00  0.00     0.033 C 
HETATM   21  C   UNL     1      43.927 -10.586   9.442  1.00  0.00     0.049 C 
HETATM   22  C   UNL     1      45.292 -10.635   8.757  1.00  0.00     0.169 C 
HETATM   23  O   UNL     1      46.005  -9.417   8.956  1.00  0.00    -0.391 OA
HETATM   24  C   UNL     1      45.324  -8.276   8.439  1.00  0.00     0.169 C 
HETATM   25  C   UNL     1      43.975  -8.098   9.128  1.00  0.00     0.049 C 
BRANCH  20  26
HETATM   26  S   UNL     1      41.519  -9.195   9.974  1.00  0.00    -0.118 SA
BRANCH  26  27
HETATM   27  C   UNL     1      41.985  -8.179  11.360  1.00  0.00     0.001 A 
HETATM   28  C   UNL     1      42.793  -8.695  12.377  1.00  0.00     0.018 A 
HETATM   29  C   UNL     1      43.184  -7.888  13.447  1.00  0.00     0.001 A 
HETATM   30  C   UNL     1      42.783  -6.553  13.497  1.00  0.00     0.000 A 
HETATM   31  C   UNL     1      42.002  -6.023  12.472  1.00  0.00     0.001 A 
HETATM   32  C   UNL     1      41.613  -6.831  11.401  1.00  0.00     0.018 A 
ENDBRANCH  26  27
ENDBRANCH  20  26
ENDBRANCH  19  20
ENDBRANCH   2  19
TORSDOF 8
ENDMDL
