MODEL 1
REMARK VINA RESULT:      -8.3      0.000      0.000
REMARK  9 active torsions:
REMARK  status: ('A' for Active; 'I' for Inactive)
REMARK    1  A    between atoms: O_2  and  C_3 
REMARK    2  A    between atoms: C_4  and  O_5 
REMARK    3  A    between atoms: O_5  and  C_6 
REMARK    4  A    between atoms: C_6  and  C_7 
REMARK    5  A    between atoms: C_7  and  C_8 
REMARK    6  A    between atoms: C_8  and  C_9 
REMARK    7  A    between atoms: C_9  and  N_10 
REMARK       I    between atoms: N_10  and  C_11 
REMARK    8  A    between atoms: C_11  and  C_12 
REMARK    9  A    between atoms: C_16  and  C_17 
ROOT
HETATM    1  N   UNL     1      43.311 -11.029   8.049  1.00  0.00    -0.345 N 
HETATM    2  C   UNL     1      44.270 -10.773   8.995  1.00  0.00     0.270 C 
HETATM    3  O   UNL     1      45.469 -10.892   8.767  1.00  0.00    -0.266 OA
HETATM    4  H   UNL     1      42.335 -11.018   8.301  1.00  0.00     0.163 HD
ENDROOT
BRANCH   2   5
HETATM    5  C   UNL     1      43.773 -10.360  10.280  1.00  0.00     0.120 A 
HETATM    6  N   UNL     1      43.452 -11.269  11.248  1.00  0.00    -0.272 N 
HETATM    7  H   UNL     1      43.521 -12.280  11.179  1.00  0.00     0.189 HD
HETATM    8  N   UNL     1      43.006 -10.724  12.389  1.00  0.00    -0.174 NA
HETATM    9  C   UNL     1      43.039  -9.399  12.174  1.00  0.00     0.089 A 
HETATM   10  C   UNL     1      43.514  -9.132  10.857  1.00  0.00     0.071 A 
BRANCH   9  11
HETATM   11  C   UNL     1      42.631  -8.441  13.210  1.00  0.00    -0.003 A 
HETATM   12  C   UNL     1      41.992  -8.872  14.384  1.00  0.00     0.053 A 
HETATM   13  C   UNL     1      41.628  -7.923  15.319  1.00  0.00     0.106 A 
HETATM   14  C   UNL     1      41.873  -6.584  15.134  1.00  0.00     0.105 A 
HETATM   15  O   UNL     1      41.004  -8.177  16.501  1.00  0.00    -0.323 OA
HETATM   16  O   UNL     1      41.434  -5.826  16.173  1.00  0.00    -0.323 OA
HETATM   17  C   UNL     1      42.497  -6.116  14.001  1.00  0.00     0.040 A 
HETATM   18  C   UNL     1      40.882  -6.841  17.036  1.00  0.00     0.352 A 
HETATM   19  C   UNL     1      42.877  -7.056  13.035  1.00  0.00     0.017 A 
ENDBRANCH   9  11
ENDBRANCH   2   5
BRANCH   1  20
HETATM   20  C   UNL     1      43.678 -11.503   6.742  1.00  0.00     0.217 C 
BRANCH  20  21
HETATM   21  C   UNL     1      43.713 -13.022   6.754  1.00  0.00    -0.085 C 
BRANCH  21  22
HETATM   22  C   UNL     1      43.742 -14.326   6.765  1.00  0.00    -0.078 C 
BRANCH  22  23
HETATM   23  C   UNL     1      43.776 -15.846   6.778  1.00  0.00     0.269 C 
BRANCH  23  24
HETATM   24  O   UNL     1      42.640 -16.379   6.099  1.00  0.00    -0.337 OA
BRANCH  24  25
HETATM   25  C   UNL     1      42.829 -16.902   4.847  1.00  0.00     0.103 A 
HETATM   26  C   UNL     1      41.958 -16.500   3.819  1.00  0.00     0.101 A 
HETATM   27  C   UNL     1      42.054 -17.093   2.553  1.00  0.00     0.039 A 
HETATM   28  C   UNL     1      43.023 -18.057   2.287  1.00  0.00     0.003 A 
HETATM   29  C   UNL     1      43.895 -18.452   3.296  1.00  0.00     0.003 A 
HETATM   30  C   UNL     1      43.792 -17.885   4.570  1.00  0.00     0.040 A 
BRANCH  26  31
HETATM   31  O   UNL     1      40.943 -15.582   3.910  1.00  0.00    -0.353 OA
HETATM   32  C   UNL     1      41.300 -14.219   3.722  1.00  0.00     0.210 C 
ENDBRANCH  26  31
ENDBRANCH  24  25
ENDBRANCH  23  24
ENDBRANCH  22  23
ENDBRANCH  21  22
ENDBRANCH  20  21
ENDBRANCH   1  20
TORSDOF 9
ENDMDL
MODEL 2
REMARK VINA RESULT:      -8.2      1.485      2.235
REMARK  9 active torsions:
REMARK  status: ('A' for Active; 'I' for Inactive)
REMARK    1  A    between atoms: O_2  and  C_3 
REMARK    2  A    between atoms: C_4  and  O_5 
REMARK    3  A    between atoms: O_5  and  C_6 
REMARK    4  A    between atoms: C_6  and  C_7 
REMARK    5  A    between atoms: C_7  and  C_8 
REMARK    6  A    between atoms: C_8  and  C_9 
REMARK    7  A    between atoms: C_9  and  N_10 
REMARK       I    between atoms: N_10  and  C_11 
REMARK    8  A    between atoms: C_11  and  C_12 
REMARK    9  A    between atoms: C_16  and  C_17 
ROOT
HETATM    1  N   UNL     1      43.715 -11.261   7.741  1.00  0.00    -0.345 N 
HETATM    2  C   UNL     1      44.365 -10.726   8.823  1.00  0.00     0.270 C 
HETATM    3  O   UNL     1      45.579 -10.817   8.974  1.00  0.00    -0.266 OA
HETATM    4  H   UNL     1      42.708 -11.255   7.701  1.00  0.00     0.163 HD
ENDROOT
BRANCH   2   5
HETATM    5  C   UNL     1      43.524 -10.054   9.776  1.00  0.00     0.120 A 
HETATM    6  N   UNL     1      42.166 -10.017   9.632  1.00  0.00    -0.272 N 
HETATM    7  H   UNL     1      41.624 -10.433   8.880  1.00  0.00     0.189 HD
HETATM    8  N   UNL     1      41.526  -9.354  10.606  1.00  0.00    -0.174 NA
HETATM    9  C   UNL     1      42.497  -8.941  11.436  1.00  0.00     0.089 A 
HETATM   10  C   UNL     1      43.767  -9.360  10.946  1.00  0.00     0.071 A 
BRANCH   9  11
HETATM   11  C   UNL     1      42.194  -8.177  12.654  1.00  0.00    -0.003 A 
HETATM   12  C   UNL     1      40.869  -7.877  13.010  1.00  0.00     0.053 A 
HETATM   13  C   UNL     1      40.648  -7.151  14.164  1.00  0.00     0.106 A 
HETATM   14  C   UNL     1      41.679  -6.721  14.965  1.00  0.00     0.105 A 
HETATM   15  O   UNL     1      39.430  -6.780  14.643  1.00  0.00    -0.323 OA
HETATM   16  O   UNL     1      41.242  -6.025  16.047  1.00  0.00    -0.323 OA
HETATM   17  C   UNL     1      42.991  -6.993  14.656  1.00  0.00     0.040 A 
HETATM   18  C   UNL     1      39.815  -6.064  15.837  1.00  0.00     0.352 A 
HETATM   19  C   UNL     1      43.245  -7.727  13.491  1.00  0.00     0.017 A 
ENDBRANCH   9  11
ENDBRANCH   2   5
BRANCH   1  20
HETATM   20  C   UNL     1      44.438 -12.007   6.746  1.00  0.00     0.217 C 
BRANCH  20  21
HETATM   21  C   UNL     1      43.939 -13.443   6.739  1.00  0.00    -0.085 C 
BRANCH  21  22
HETATM   22  C   UNL     1      43.511 -14.674   6.734  1.00  0.00    -0.078 C 
BRANCH  22  23
HETATM   23  C   UNL     1      43.011 -16.111   6.728  1.00  0.00     0.269 C 
BRANCH  23  24
HETATM   24  O   UNL     1      43.944 -16.964   6.065  1.00  0.00    -0.337 OA
BRANCH  24  25
HETATM   25  C   UNL     1      43.641 -17.382   4.796  1.00  0.00     0.103 A 
HETATM   26  C   UNL     1      43.928 -18.714   4.449  1.00  0.00     0.101 A 
HETATM   27  C   UNL     1      43.729 -19.148   3.131  1.00  0.00     0.039 A 
HETATM   28  C   UNL     1      43.224 -18.284   2.162  1.00  0.00     0.003 A 
HETATM   29  C   UNL     1      42.930 -16.968   2.502  1.00  0.00     0.003 A 
HETATM   30  C   UNL     1      43.146 -16.518   3.808  1.00  0.00     0.040 A 
BRANCH  26  31
HETATM   31  O   UNL     1      44.442 -19.688   5.267  1.00  0.00    -0.353 OA
HETATM   32  C   UNL     1      43.913 -20.998   5.105  1.00  0.00     0.210 C 
ENDBRANCH  26  31
ENDBRANCH  24  25
ENDBRANCH  23  24
ENDBRANCH  22  23
ENDBRANCH  21  22
ENDBRANCH  20  21
ENDBRANCH   1  20
TORSDOF 9
ENDMDL
MODEL 3
REMARK VINA RESULT:      -8.1      2.444      3.932
REMARK  9 active torsions:
REMARK  status: ('A' for Active; 'I' for Inactive)
REMARK    1  A    between atoms: O_2  and  C_3 
REMARK    2  A    between atoms: C_4  and  O_5 
REMARK    3  A    between atoms: O_5  and  C_6 
REMARK    4  A    between atoms: C_6  and  C_7 
REMARK    5  A    between atoms: C_7  and  C_8 
REMARK    6  A    between atoms: C_8  and  C_9 
REMARK    7  A    between atoms: C_9  and  N_10 
REMARK       I    between atoms: N_10  and  C_11 
REMARK    8  A    between atoms: C_11  and  C_12 
REMARK    9  A    between atoms: C_16  and  C_17 
ROOT
HETATM    1  N   UNL     1      43.260 -11.689   4.596  1.00  0.00    -0.345 N 
HETATM    2  C   UNL     1      44.453 -11.361   5.186  1.00  0.00     0.270 C 
HETATM    3  O   UNL     1      45.504 -11.295   4.557  1.00  0.00    -0.266 OA
HETATM    4  H   UNL     1      42.438 -11.832   5.160  1.00  0.00     0.163 HD
ENDROOT
BRANCH   2   5
HETATM    5  C   UNL     1      44.391 -11.106   6.600  1.00  0.00     0.120 A 
HETATM    6  N   UNL     1      45.494 -11.221   7.397  1.00  0.00    -0.272 N 
HETATM    7  H   UNL     1      46.431 -11.483   7.103  1.00  0.00     0.189 HD
HETATM    8  N   UNL     1      45.271 -10.947   8.690  1.00  0.00    -0.174 NA
HETATM    9  C   UNL     1      43.968 -10.631   8.755  1.00  0.00     0.089 A 
HETATM   10  C   UNL     1      43.380 -10.722   7.460  1.00  0.00     0.071 A 
BRANCH   9  11
HETATM   11  C   UNL     1      43.330 -10.252  10.023  1.00  0.00    -0.003 A 
HETATM   12  C   UNL     1      42.297  -9.300  10.058  1.00  0.00     0.053 A 
HETATM   13  C   UNL     1      41.739  -8.981  11.281  1.00  0.00     0.106 A 
HETATM   14  C   UNL     1      42.163  -9.565  12.450  1.00  0.00     0.105 A 
HETATM   15  O   UNL     1      40.737  -8.084  11.483  1.00  0.00    -0.323 OA
HETATM   16  O   UNL     1      41.483  -9.110  13.535  1.00  0.00    -0.323 OA
HETATM   17  C   UNL     1      43.170 -10.502  12.464  1.00  0.00     0.040 A 
HETATM   18  C   UNL     1      40.582  -8.169  12.916  1.00  0.00     0.352 A 
HETATM   19  C   UNL     1      43.754 -10.844  11.238  1.00  0.00     0.017 A 
ENDBRANCH   9  11
ENDBRANCH   2   5
BRANCH   1  20
HETATM   20  C   UNL     1      43.200 -12.022   3.198  1.00  0.00     0.217 C 
BRANCH  20  21
HETATM   21  C   UNL     1      42.897 -13.504   3.051  1.00  0.00    -0.085 C 
BRANCH  21  22
HETATM   22  C   UNL     1      42.637 -14.775   2.924  1.00  0.00    -0.078 C 
BRANCH  22  23
HETATM   23  C   UNL     1      42.334 -16.258   2.775  1.00  0.00     0.269 C 
BRANCH  23  24
HETATM   24  O   UNL     1      43.534 -16.995   2.539  1.00  0.00    -0.337 OA
BRANCH  24  25
HETATM   25  C   UNL     1      43.623 -18.258   3.062  1.00  0.00     0.103 A 
HETATM   26  C   UNL     1      44.012 -18.396   4.405  1.00  0.00     0.101 A 
HETATM   27  C   UNL     1      44.216 -19.674   4.943  1.00  0.00     0.039 A 
HETATM   28  C   UNL     1      44.012 -20.815   4.172  1.00  0.00     0.003 A 
HETATM   29  C   UNL     1      43.618 -20.686   2.845  1.00  0.00     0.003 A 
HETATM   30  C   UNL     1      43.435 -19.415   2.290  1.00  0.00     0.040 A 
BRANCH  26  31
HETATM   31  O   UNL     1      44.271 -17.386   5.298  1.00  0.00    -0.353 OA
HETATM   32  C   UNL     1      43.417 -17.307   6.432  1.00  0.00     0.210 C 
ENDBRANCH  26  31
ENDBRANCH  24  25
ENDBRANCH  23  24
ENDBRANCH  22  23
ENDBRANCH  21  22
ENDBRANCH  20  21
ENDBRANCH   1  20
TORSDOF 9
ENDMDL
MODEL 4
REMARK VINA RESULT:      -8.0      6.745     10.911
REMARK  9 active torsions:
REMARK  status: ('A' for Active; 'I' for Inactive)
REMARK    1  A    between atoms: O_2  and  C_3 
REMARK    2  A    between atoms: C_4  and  O_5 
REMARK    3  A    between atoms: O_5  and  C_6 
REMARK    4  A    between atoms: C_6  and  C_7 
REMARK    5  A    between atoms: C_7  and  C_8 
REMARK    6  A    between atoms: C_8  and  C_9 
REMARK    7  A    between atoms: C_9  and  N_10 
REMARK       I    between atoms: N_10  and  C_11 
REMARK    8  A    between atoms: C_11  and  C_12 
REMARK    9  A    between atoms: C_16  and  C_17 
ROOT
HETATM    1  N   UNL     1      42.822 -12.158   4.866  1.00  0.00    -0.345 N 
HETATM    2  C   UNL     1      43.340 -11.698   3.683  1.00  0.00     0.270 C 
HETATM    3  O   UNL     1      44.524 -11.406   3.552  1.00  0.00    -0.266 OA
HETATM    4  H   UNL     1      41.827 -12.291   4.965  1.00  0.00     0.163 HD
ENDROOT
BRANCH   2   5
HETATM    5  C   UNL     1      42.397 -11.571   2.605  1.00  0.00     0.120 A 
HETATM    6  N   UNL     1      42.107 -10.359   2.046  1.00  0.00    -0.272 N 
HETATM    7  H   UNL     1      42.498  -9.460   2.310  1.00  0.00     0.189 HD
HETATM    8  N   UNL     1      41.210 -10.412   1.050  1.00  0.00    -0.174 NA
HETATM    9  C   UNL     1      40.898 -11.713   0.937  1.00  0.00     0.089 A 
HETATM   10  C   UNL     1      41.622 -12.473   1.900  1.00  0.00     0.071 A 
BRANCH   9  11
HETATM   11  C   UNL     1      39.939 -12.189  -0.069  1.00  0.00    -0.003 A 
HETATM   12  C   UNL     1      40.261 -13.253  -0.929  1.00  0.00     0.053 A 
HETATM   13  C   UNL     1      39.320 -13.653  -1.858  1.00  0.00     0.106 A 
HETATM   14  C   UNL     1      38.092 -13.045  -1.961  1.00  0.00     0.105 A 
HETATM   15  O   UNL     1      39.476 -14.661  -2.757  1.00  0.00    -0.323 OA
HETATM   16  O   UNL     1      37.321 -13.591  -2.938  1.00  0.00    -0.323 OA
HETATM   17  C   UNL     1      37.734 -12.001  -1.141  1.00  0.00     0.040 A 
HETATM   18  C   UNL     1      38.205 -14.615  -3.441  1.00  0.00     0.352 A 
HETATM   19  C   UNL     1      38.668 -11.574  -0.189  1.00  0.00     0.017 A 
ENDBRANCH   9  11
ENDBRANCH   2   5
BRANCH   1  20
HETATM   20  C   UNL     1      43.651 -12.274   6.035  1.00  0.00     0.217 C 
BRANCH  20  21
HETATM   21  C   UNL     1      43.780 -13.741   6.411  1.00  0.00    -0.085 C 
BRANCH  21  22
HETATM   22  C   UNL     1      43.892 -14.999   6.733  1.00  0.00    -0.078 C 
BRANCH  22  23
HETATM   23  C   UNL     1      44.022 -16.467   7.109  1.00  0.00     0.269 C 
BRANCH  23  24
HETATM   24  O   UNL     1      43.004 -17.240   6.475  1.00  0.00    -0.337 OA
BRANCH  24  25
HETATM   25  C   UNL     1      42.979 -17.267   5.105  1.00  0.00     0.103 A 
HETATM   26  C   UNL     1      41.881 -16.685   4.449  1.00  0.00     0.101 A 
HETATM   27  C   UNL     1      41.769 -16.786   3.055  1.00  0.00     0.039 A 
HETATM   28  C   UNL     1      42.748 -17.433   2.305  1.00  0.00     0.003 A 
HETATM   29  C   UNL     1      43.841 -18.002   2.947  1.00  0.00     0.003 A 
HETATM   30  C   UNL     1      43.951 -17.929   4.339  1.00  0.00     0.040 A 
BRANCH  26  31
HETATM   31  O   UNL     1      40.825 -16.028   5.029  1.00  0.00    -0.353 OA
HETATM   32  C   UNL     1      40.592 -14.694   4.598  1.00  0.00     0.210 C 
ENDBRANCH  26  31
ENDBRANCH  24  25
ENDBRANCH  23  24
ENDBRANCH  22  23
ENDBRANCH  21  22
ENDBRANCH  20  21
ENDBRANCH   1  20
TORSDOF 9
ENDMDL
MODEL 5
REMARK VINA RESULT:      -8.0      1.262      2.117
REMARK  9 active torsions:
REMARK  status: ('A' for Active; 'I' for Inactive)
REMARK    1  A    between atoms: O_2  and  C_3 
REMARK    2  A    between atoms: C_4  and  O_5 
REMARK    3  A    between atoms: O_5  and  C_6 
REMARK    4  A    between atoms: C_6  and  C_7 
REMARK    5  A    between atoms: C_7  and  C_8 
REMARK    6  A    between atoms: C_8  and  C_9 
REMARK    7  A    between atoms: C_9  and  N_10 
REMARK       I    between atoms: N_10  and  C_11 
REMARK    8  A    between atoms: C_11  and  C_12 
REMARK    9  A    between atoms: C_16  and  C_17 
ROOT
HETATM    1  N   UNL     1      43.673 -11.634   7.727  1.00  0.00    -0.345 N 
HETATM    2  C   UNL     1      44.367 -10.876   8.633  1.00  0.00     0.270 C 
HETATM    3  O   UNL     1      45.593 -10.854   8.673  1.00  0.00    -0.266 OA
HETATM    4  H   UNL     1      42.669 -11.705   7.789  1.00  0.00     0.163 HD
ENDROOT
BRANCH   2   5
HETATM    5  C   UNL     1      43.559 -10.109   9.544  1.00  0.00     0.120 A 
HETATM    6  N   UNL     1      42.272  -9.764   9.242  1.00  0.00    -0.272 N 
HETATM    7  H   UNL     1      41.766  -9.993   8.391  1.00  0.00     0.189 HD
HETATM    8  N   UNL     1      41.654  -9.053  10.195  1.00  0.00    -0.174 NA
HETATM    9  C   UNL     1      42.564  -8.927  11.174  1.00  0.00     0.089 A 
HETATM   10  C   UNL     1      43.776  -9.576  10.799  1.00  0.00     0.071 A 
BRANCH   9  11
HETATM   11  C   UNL     1      42.260  -8.209  12.419  1.00  0.00    -0.003 A 
HETATM   12  C   UNL     1      40.933  -7.935  12.791  1.00  0.00     0.053 A 
HETATM   13  C   UNL     1      40.711  -7.252  13.972  1.00  0.00     0.106 A 
HETATM   14  C   UNL     1      41.741  -6.840  14.782  1.00  0.00     0.105 A 
HETATM   15  O   UNL     1      39.492  -6.911  14.469  1.00  0.00    -0.323 OA
HETATM   16  O   UNL     1      41.302  -6.187  15.890  1.00  0.00    -0.323 OA
HETATM   17  C   UNL     1      43.055  -7.088  14.459  1.00  0.00     0.040 A 
HETATM   18  C   UNL     1      39.875  -6.233  15.685  1.00  0.00     0.352 A 
HETATM   19  C   UNL     1      43.310  -7.778  13.267  1.00  0.00     0.017 A 
ENDBRANCH   9  11
ENDBRANCH   2   5
BRANCH   1  20
HETATM   20  C   UNL     1      44.366 -12.488   6.801  1.00  0.00     0.217 C 
BRANCH  20  21
HETATM   21  C   UNL     1      43.362 -13.092   5.832  1.00  0.00    -0.085 C 
BRANCH  21  22
HETATM   22  C   UNL     1      42.501 -13.609   5.001  1.00  0.00    -0.078 C 
BRANCH  22  23
HETATM   23  C   UNL     1      41.497 -14.212   4.031  1.00  0.00     0.269 C 
BRANCH  23  24
HETATM   24  O   UNL     1      41.198 -15.561   4.392  1.00  0.00    -0.337 OA
BRANCH  24  25
HETATM   25  C   UNL     1      42.021 -16.548   3.918  1.00  0.00     0.103 A 
HETATM   26  C   UNL     1      42.967 -17.105   4.796  1.00  0.00     0.101 A 
HETATM   27  C   UNL     1      43.895 -18.041   4.318  1.00  0.00     0.039 A 
HETATM   28  C   UNL     1      43.875 -18.451   2.987  1.00  0.00     0.003 A 
HETATM   29  C   UNL     1      42.936 -17.912   2.116  1.00  0.00     0.003 A 
HETATM   30  C   UNL     1      42.021 -16.959   2.576  1.00  0.00     0.040 A 
BRANCH  26  31
HETATM   31  O   UNL     1      43.137 -16.805   6.124  1.00  0.00    -0.353 OA
HETATM   32  C   UNL     1      43.417 -17.897   6.991  1.00  0.00     0.210 C 
ENDBRANCH  26  31
ENDBRANCH  24  25
ENDBRANCH  23  24
ENDBRANCH  22  23
ENDBRANCH  21  22
ENDBRANCH  20  21
ENDBRANCH   1  20
TORSDOF 9
ENDMDL
MODEL 6
REMARK VINA RESULT:      -7.8      2.763     11.786
REMARK  9 active torsions:
REMARK  status: ('A' for Active; 'I' for Inactive)
REMARK    1  A    between atoms: O_2  and  C_3 
REMARK    2  A    between atoms: C_4  and  O_5 
REMARK    3  A    between atoms: O_5  and  C_6 
REMARK    4  A    between atoms: C_6  and  C_7 
REMARK    5  A    between atoms: C_7  and  C_8 
REMARK    6  A    between atoms: C_8  and  C_9 
REMARK    7  A    between atoms: C_9  and  N_10 
REMARK       I    between atoms: N_10  and  C_11 
REMARK    8  A    between atoms: C_11  and  C_12 
REMARK    9  A    between atoms: C_16  and  C_17 
ROOT
HETATM    1  N   UNL     1      40.348 -10.420   7.403  1.00  0.00    -0.345 N 
HETATM    2  C   UNL     1      39.707 -11.443   6.754  1.00  0.00     0.270 C 
HETATM    3  O   UNL     1      38.485 -11.509   6.674  1.00  0.00    -0.266 OA
HETATM    4  H   UNL     1      41.347 -10.451   7.536  1.00  0.00     0.163 HD
ENDROOT
BRANCH   2   5
HETATM    5  C   UNL     1      40.567 -12.442   6.179  1.00  0.00     0.120 A 
HETATM    6  N   UNL     1      41.902 -12.487   6.463  1.00  0.00    -0.272 N 
HETATM    7  H   UNL     1      42.414 -11.859   7.076  1.00  0.00     0.189 HD
HETATM    8  N   UNL     1      42.563 -13.479   5.849  1.00  0.00    -0.174 NA
HETATM    9  C   UNL     1      41.628 -14.124   5.134  1.00  0.00     0.089 A 
HETATM   10  C   UNL     1      40.360 -13.499   5.314  1.00  0.00     0.071 A 
BRANCH   9  11
HETATM   11  C   UNL     1      41.959 -15.299   4.317  1.00  0.00    -0.003 A 
HETATM   12  C   UNL     1      43.014 -16.156   4.675  1.00  0.00     0.053 A 
HETATM   13  C   UNL     1      43.281 -17.242   3.864  1.00  0.00     0.106 A 
HETATM   14  C   UNL     1      42.548 -17.505   2.732  1.00  0.00     0.105 A 
HETATM   15  O   UNL     1      44.263 -18.160   4.071  1.00  0.00    -0.323 OA
HETATM   16  O   UNL     1      42.977 -18.619   2.082  1.00  0.00    -0.323 OA
HETATM   17  C   UNL     1      41.507 -16.695   2.344  1.00  0.00     0.040 A 
HETATM   18  C   UNL     1      44.066 -19.029   2.935  1.00  0.00     0.352 A 
HETATM   19  C   UNL     1      41.214 -15.586   3.146  1.00  0.00     0.017 A 
ENDBRANCH   9  11
ENDBRANCH   2   5
BRANCH   1  20
HETATM   20  C   UNL     1      39.598  -9.389   8.069  1.00  0.00     0.217 C 
BRANCH  20  21
HETATM   21  C   UNL     1      39.587  -9.667   9.563  1.00  0.00    -0.085 C 
BRANCH  21  22
HETATM   22  C   UNL     1      39.577  -9.906  10.845  1.00  0.00    -0.078 C 
BRANCH  22  23
HETATM   23  C   UNL     1      39.567 -10.186  12.340  1.00  0.00     0.269 C 
BRANCH  23  24
HETATM   24  O   UNL     1      40.897 -10.360  12.828  1.00  0.00    -0.337 OA
BRANCH  24  25
HETATM   25  C   UNL     1      41.534  -9.268  13.356  1.00  0.00     0.103 A 
HETATM   26  C   UNL     1      42.632  -8.736  12.657  1.00  0.00     0.101 A 
HETATM   27  C   UNL     1      43.372  -7.687  13.218  1.00  0.00     0.039 A 
HETATM   28  C   UNL     1      43.019  -7.142  14.451  1.00  0.00     0.003 A 
HETATM   29  C   UNL     1      41.928  -7.657  15.142  1.00  0.00     0.003 A 
HETATM   30  C   UNL     1      41.197  -8.720  14.603  1.00  0.00     0.040 A 
BRANCH  26  31
HETATM   31  O   UNL     1      43.124  -9.159  11.449  1.00  0.00    -0.353 OA
HETATM   32  C   UNL     1      42.984  -8.261  10.356  1.00  0.00     0.210 C 
ENDBRANCH  26  31
ENDBRANCH  24  25
ENDBRANCH  23  24
ENDBRANCH  22  23
ENDBRANCH  21  22
ENDBRANCH  20  21
ENDBRANCH   1  20
TORSDOF 9
ENDMDL
MODEL 7
REMARK VINA RESULT:      -7.7      2.061      2.560
REMARK  9 active torsions:
REMARK  status: ('A' for Active; 'I' for Inactive)
REMARK    1  A    between atoms: O_2  and  C_3 
REMARK    2  A    between atoms: C_4  and  O_5 
REMARK    3  A    between atoms: O_5  and  C_6 
REMARK    4  A    between atoms: C_6  and  C_7 
REMARK    5  A    between atoms: C_7  and  C_8 
REMARK    6  A    between atoms: C_8  and  C_9 
REMARK    7  A    between atoms: C_9  and  N_10 
REMARK       I    between atoms: N_10  and  C_11 
REMARK    8  A    between atoms: C_11  and  C_12 
REMARK    9  A    between atoms: C_16  and  C_17 
ROOT
HETATM    1  N   UNL     1      43.607 -10.356   8.586  1.00  0.00    -0.345 N 
HETATM    2  C   UNL     1      44.041 -10.302   9.885  1.00  0.00     0.270 C 
HETATM    3  O   UNL     1      45.198 -10.556  10.204  1.00  0.00    -0.266 OA
HETATM    4  H   UNL     1      42.629 -10.239   8.373  1.00  0.00     0.163 HD
ENDROOT
BRANCH   2   5
HETATM    5  C   UNL     1      43.044  -9.932  10.853  1.00  0.00     0.120 A 
HETATM    6  N   UNL     1      42.746 -10.736  11.916  1.00  0.00    -0.272 N 
HETATM    7  H   UNL     1      43.168 -11.634  12.135  1.00  0.00     0.189 HD
HETATM    8  N   UNL     1      41.797 -10.248  12.727  1.00  0.00    -0.174 NA
HETATM    9  C   UNL     1      41.455  -9.068  12.185  1.00  0.00     0.089 A 
HETATM   10  C   UNL     1      42.216  -8.837  11.003  1.00  0.00     0.071 A 
BRANCH   9  11
HETATM   11  C   UNL     1      40.435  -8.206  12.799  1.00  0.00    -0.003 A 
HETATM   12  C   UNL     1      40.686  -7.535  14.007  1.00  0.00     0.053 A 
HETATM   13  C   UNL     1      39.686  -6.742  14.537  1.00  0.00     0.106 A 
HETATM   14  C   UNL     1      38.467  -6.595  13.919  1.00  0.00     0.105 A 
HETATM   15  O   UNL     1      39.771  -6.031  15.693  1.00  0.00    -0.323 OA
HETATM   16  O   UNL     1      37.631  -5.775  14.608  1.00  0.00    -0.323 OA
HETATM   17  C   UNL     1      38.178  -7.233  12.736  1.00  0.00     0.040 A 
HETATM   18  C   UNL     1      38.462  -5.422  15.733  1.00  0.00     0.352 A 
HETATM   19  C   UNL     1      39.173  -8.043  12.175  1.00  0.00     0.017 A 
ENDBRANCH   9  11
ENDBRANCH   2   5
BRANCH   1  20
HETATM   20  C   UNL     1      44.495 -10.768   7.532  1.00  0.00     0.217 C 
BRANCH  20  21
HETATM   21  C   UNL     1      44.180 -12.205   7.148  1.00  0.00    -0.085 C 
BRANCH  21  22
HETATM   22  C   UNL     1      43.909 -13.437   6.818  1.00  0.00    -0.078 C 
BRANCH  22  23
HETATM   23  C   UNL     1      43.593 -14.874   6.434  1.00  0.00     0.269 C 
BRANCH  23  24
HETATM   24  O   UNL     1      42.482 -14.921   5.539  1.00  0.00    -0.337 OA
BRANCH  24  25
HETATM   25  C   UNL     1      42.731 -15.210   4.223  1.00  0.00     0.103 A 
HETATM   26  C   UNL     1      42.923 -16.555   3.862  1.00  0.00     0.101 A 
HETATM   27  C   UNL     1      43.284 -16.879   2.547  1.00  0.00     0.039 A 
HETATM   28  C   UNL     1      43.427 -15.886   1.581  1.00  0.00     0.003 A 
HETATM   29  C   UNL     1      43.228 -14.555   1.929  1.00  0.00     0.003 A 
HETATM   30  C   UNL     1      42.892 -14.218   3.244  1.00  0.00     0.040 A 
BRANCH  26  31
HETATM   31  O   UNL     1      42.839 -17.650   4.685  1.00  0.00    -0.353 OA
HETATM   32  C   UNL     1      44.067 -18.269   5.047  1.00  0.00     0.210 C 
ENDBRANCH  26  31
ENDBRANCH  24  25
ENDBRANCH  23  24
ENDBRANCH  22  23
ENDBRANCH  21  22
ENDBRANCH  20  21
ENDBRANCH   1  20
TORSDOF 9
ENDMDL
MODEL 8
REMARK VINA RESULT:      -7.6      3.248     11.853
REMARK  9 active torsions:
REMARK  status: ('A' for Active; 'I' for Inactive)
REMARK    1  A    between atoms: O_2  and  C_3 
REMARK    2  A    between atoms: C_4  and  O_5 
REMARK    3  A    between atoms: O_5  and  C_6 
REMARK    4  A    between atoms: C_6  and  C_7 
REMARK    5  A    between atoms: C_7  and  C_8 
REMARK    6  A    between atoms: C_8  and  C_9 
REMARK    7  A    between atoms: C_9  and  N_10 
REMARK       I    between atoms: N_10  and  C_11 
REMARK    8  A    between atoms: C_11  and  C_12 
REMARK    9  A    between atoms: C_16  and  C_17 
ROOT
HETATM    1  N   UNL     1      41.629 -11.851   5.140  1.00  0.00    -0.345 N 
HETATM    2  C   UNL     1      42.480 -11.935   4.069  1.00  0.00     0.270 C 
HETATM    3  O   UNL     1      42.977 -10.945   3.543  1.00  0.00    -0.266 OA
HETATM    4  H   UNL     1      41.162 -12.676   5.482  1.00  0.00     0.163 HD
ENDROOT
BRANCH   2   5
HETATM    5  C   UNL     1      42.747 -13.268   3.598  1.00  0.00     0.120 A 
HETATM    6  N   UNL     1      43.026 -13.519   2.285  1.00  0.00    -0.272 N 
HETATM    7  H   UNL     1      43.075 -12.838   1.533  1.00  0.00     0.189 HD
HETATM    8  N   UNL     1      43.253 -14.811   2.008  1.00  0.00    -0.174 NA
HETATM    9  C   UNL     1      43.128 -15.443   3.186  1.00  0.00     0.089 A 
HETATM   10  C   UNL     1      42.807 -14.505   4.209  1.00  0.00     0.071 A 
BRANCH   9  11
HETATM   11  C   UNL     1      43.319 -16.895   3.304  1.00  0.00    -0.003 A 
HETATM   12  C   UNL     1      43.645 -17.484   4.537  1.00  0.00     0.053 A 
HETATM   13  C   UNL     1      43.817 -18.854   4.585  1.00  0.00     0.106 A 
HETATM   14  C   UNL     1      43.677 -19.646   3.471  1.00  0.00     0.105 A 
HETATM   15  O   UNL     1      44.133 -19.572   5.695  1.00  0.00    -0.323 OA
HETATM   16  O   UNL     1      43.889 -20.961   3.738  1.00  0.00    -0.323 OA
HETATM   17  C   UNL     1      43.358 -19.113   2.244  1.00  0.00     0.040 A 
HETATM   18  C   UNL     1      44.180 -20.909   5.150  1.00  0.00     0.352 A 
HETATM   19  C   UNL     1      43.179 -17.726   2.166  1.00  0.00     0.017 A 
ENDBRANCH   9  11
ENDBRANCH   2   5
BRANCH   1  20
HETATM   20  C   UNL     1      41.239 -10.571   5.669  1.00  0.00     0.217 C 
BRANCH  20  21
HETATM   21  C   UNL     1      42.104 -10.246   6.876  1.00  0.00    -0.085 C 
BRANCH  21  22
HETATM   22  C   UNL     1      42.844  -9.968   7.912  1.00  0.00    -0.078 C 
BRANCH  22  23
HETATM   23  C   UNL     1      43.708  -9.643   9.121  1.00  0.00     0.269 C 
BRANCH  23  24
HETATM   24  O   UNL     1      43.170 -10.244  10.299  1.00  0.00    -0.337 OA
BRANCH  24  25
HETATM   25  C   UNL     1      42.717  -9.416  11.292  1.00  0.00     0.103 A 
HETATM   26  C   UNL     1      41.330  -9.231  11.422  1.00  0.00     0.101 A 
HETATM   27  C   UNL     1      40.835  -8.311  12.357  1.00  0.00     0.039 A 
HETATM   28  C   UNL     1      41.700  -7.595  13.182  1.00  0.00     0.003 A 
HETATM   29  C   UNL     1      43.072  -7.781  13.064  1.00  0.00     0.003 A 
HETATM   30  C   UNL     1      43.578  -8.678  12.118  1.00  0.00     0.040 A 
BRANCH  26  31
HETATM   31  O   UNL     1      40.343  -9.837  10.687  1.00  0.00    -0.353 OA
HETATM   32  C   UNL     1      39.345  -8.985  10.140  1.00  0.00     0.210 C 
ENDBRANCH  26  31
ENDBRANCH  24  25
ENDBRANCH  23  24
ENDBRANCH  22  23
ENDBRANCH  21  22
ENDBRANCH  20  21
ENDBRANCH   1  20
TORSDOF 9
ENDMDL
MODEL 9
REMARK VINA RESULT:      -7.6      7.873     11.280
REMARK  9 active torsions:
REMARK  status: ('A' for Active; 'I' for Inactive)
REMARK    1  A    between atoms: O_2  and  C_3 
REMARK    2  A    between atoms: C_4  and  O_5 
REMARK    3  A    between atoms: O_5  and  C_6 
REMARK    4  A    between atoms: C_6  and  C_7 
REMARK    5  A    between atoms: C_7  and  C_8 
REMARK    6  A    between atoms: C_8  and  C_9 
REMARK    7  A    between atoms: C_9  and  N_10 
REMARK       I    between atoms: N_10  and  C_11 
REMARK    8  A    between atoms: C_11  and  C_12 
REMARK    9  A    between atoms: C_16  and  C_17 
ROOT
HETATM    1  N   UNL     1      41.595 -11.461   3.455  1.00  0.00    -0.345 N 
HETATM    2  C   UNL     1      42.872 -11.951   3.539  1.00  0.00     0.270 C 
HETATM    3  O   UNL     1      43.860 -11.251   3.341  1.00  0.00    -0.266 OA
HETATM    4  H   UNL     1      40.807 -12.086   3.524  1.00  0.00     0.163 HD
ENDROOT
BRANCH   2   5
HETATM    5  C   UNL     1      42.977 -13.347   3.868  1.00  0.00     0.120 A 
HETATM    6  N   UNL     1      42.895 -13.785   5.159  1.00  0.00    -0.272 N 
HETATM    7  H   UNL     1      42.760 -13.213   5.987  1.00  0.00     0.189 HD
HETATM    8  N   UNL     1      43.009 -15.114   5.298  1.00  0.00    -0.174 NA
HETATM    9  C   UNL     1      43.165 -15.578   4.048  1.00  0.00     0.089 A 
HETATM   10  C   UNL     1      43.153 -14.495   3.121  1.00  0.00     0.071 A 
BRANCH   9  11
HETATM   11  C   UNL     1      43.314 -17.014   3.773  1.00  0.00    -0.003 A 
HETATM   12  C   UNL     1      43.769 -17.898   4.766  1.00  0.00     0.053 A 
HETATM   13  C   UNL     1      43.893 -19.236   4.446  1.00  0.00     0.106 A 
HETATM   14  C   UNL     1      43.584 -19.720   3.197  1.00  0.00     0.105 A 
HETATM   15  O   UNL     1      44.318 -20.214   5.290  1.00  0.00    -0.323 OA
HETATM   16  O   UNL     1      43.777 -21.061   3.096  1.00  0.00    -0.323 OA
HETATM   17  C   UNL     1      43.134 -18.891   2.195  1.00  0.00     0.040 A 
HETATM   18  C   UNL     1      44.245 -21.368   4.426  1.00  0.00     0.352 A 
HETATM   19  C   UNL     1      42.999 -17.529   2.491  1.00  0.00     0.017 A 
ENDBRANCH   9  11
ENDBRANCH   2   5
BRANCH   1  20
HETATM   20  C   UNL     1      41.356 -10.094   3.077  1.00  0.00     0.217 C 
BRANCH  20  21
HETATM   21  C   UNL     1      41.371  -9.986   1.561  1.00  0.00    -0.085 C 
BRANCH  21  22
HETATM   22  C   UNL     1      41.384  -9.894   0.261  1.00  0.00    -0.078 C 
BRANCH  22  23
HETATM   23  C   UNL     1      41.398  -9.786  -1.256  1.00  0.00     0.269 C 
BRANCH  23  24
HETATM   24  O   UNL     1      41.247 -11.074  -1.852  1.00  0.00    -0.337 OA
BRANCH  24  25
HETATM   25  C   UNL     1      39.980 -11.583  -1.968  1.00  0.00     0.103 A 
HETATM   26  C   UNL     1      39.723 -12.856  -1.429  1.00  0.00     0.101 A 
HETATM   27  C   UNL     1      38.469 -13.452  -1.620  1.00  0.00     0.039 A 
HETATM   28  C   UNL     1      37.460 -12.789  -2.314  1.00  0.00     0.003 A 
HETATM   29  C   UNL     1      37.705 -11.526  -2.842  1.00  0.00     0.003 A 
HETATM   30  C   UNL     1      38.960 -10.931  -2.678  1.00  0.00     0.040 A 
BRANCH  26  31
HETATM   31  O   UNL     1      40.600 -13.651  -0.736  1.00  0.00    -0.353 OA
HETATM   32  C   UNL     1      40.511 -13.608   0.683  1.00  0.00     0.210 C 
ENDBRANCH  26  31
ENDBRANCH  24  25
ENDBRANCH  23  24
ENDBRANCH  22  23
ENDBRANCH  21  22
ENDBRANCH  20  21
ENDBRANCH   1  20
TORSDOF 9
ENDMDL
MODEL 10
REMARK VINA RESULT:      -7.6      3.693     11.066
REMARK  9 active torsions:
REMARK  status: ('A' for Active; 'I' for Inactive)
REMARK    1  A    between atoms: O_2  and  C_3 
REMARK    2  A    between atoms: C_4  and  O_5 
REMARK    3  A    between atoms: O_5  and  C_6 
REMARK    4  A    between atoms: C_6  and  C_7 
REMARK    5  A    between atoms: C_7  and  C_8 
REMARK    6  A    between atoms: C_8  and  C_9 
REMARK    7  A    between atoms: C_9  and  N_10 
REMARK       I    between atoms: N_10  and  C_11 
REMARK    8  A    between atoms: C_11  and  C_12 
REMARK    9  A    between atoms: C_16  and  C_17 
ROOT
HETATM    1  N   UNL     1      40.779 -10.750   5.874  1.00  0.00    -0.345 N 
HETATM    2  C   UNL     1      40.256 -12.003   6.057  1.00  0.00     0.270 C 
HETATM    3  O   UNL     1      39.082 -12.189   6.361  1.00  0.00    -0.266 OA
HETATM    4  H   UNL     1      41.769 -10.632   5.724  1.00  0.00     0.163 HD
ENDROOT
BRANCH   2   5
HETATM    5  C   UNL     1      41.180 -13.090   5.876  1.00  0.00     0.120 A 
HETATM    6  N   UNL     1      42.395 -13.108   6.498  1.00  0.00    -0.272 N 
HETATM    7  H   UNL     1      42.767 -12.399   7.124  1.00  0.00     0.189 HD
HETATM    8  N   UNL     1      43.137 -14.191   6.228  1.00  0.00    -0.174 NA
HETATM    9  C   UNL     1      42.381 -14.927   5.398  1.00  0.00     0.089 A 
HETATM   10  C   UNL     1      41.144 -14.266   5.151  1.00  0.00     0.071 A 
BRANCH   9  11
HETATM   11  C   UNL     1      42.847 -16.219   4.876  1.00  0.00    -0.003 A 
HETATM   12  C   UNL     1      43.101 -17.299   5.737  1.00  0.00     0.053 A 
HETATM   13  C   UNL     1      43.541 -18.488   5.187  1.00  0.00     0.106 A 
HETATM   14  C   UNL     1      43.733 -18.639   3.835  1.00  0.00     0.105 A 
HETATM   15  O   UNL     1      43.831 -19.620   5.882  1.00  0.00    -0.323 OA
HETATM   16  O   UNL     1      44.169 -19.884   3.508  1.00  0.00    -0.323 OA
HETATM   17  C   UNL     1      43.496 -17.610   2.954  1.00  0.00     0.040 A 
HETATM   18  C   UNL     1      44.232 -20.501   4.810  1.00  0.00     0.352 A 
HETATM   19  C   UNL     1      43.049 -16.393   3.484  1.00  0.00     0.017 A 
ENDBRANCH   9  11
ENDBRANCH   2   5
BRANCH   1  20
HETATM   20  C   UNL     1      39.971  -9.579   6.082  1.00  0.00     0.217 C 
BRANCH  20  21
HETATM   21  C   UNL     1      40.802  -8.518   6.785  1.00  0.00    -0.085 C 
BRANCH  21  22
HETATM   22  C   UNL     1      41.515  -7.608   7.388  1.00  0.00    -0.078 C 
BRANCH  22  23
HETATM   23  C   UNL     1      42.346  -6.547   8.092  1.00  0.00     0.269 C 
BRANCH  23  24
HETATM   24  O   UNL     1      43.683  -7.007   8.291  1.00  0.00    -0.337 OA
BRANCH  24  25
HETATM   25  C   UNL     1      43.908  -7.907   9.300  1.00  0.00     0.103 A 
HETATM   26  C   UNL     1      44.863  -8.916   9.089  1.00  0.00     0.101 A 
HETATM   27  C   UNL     1      45.044  -9.916  10.055  1.00  0.00     0.039 A 
HETATM   28  C   UNL     1      44.309  -9.908  11.238  1.00  0.00     0.003 A 
HETATM   29  C   UNL     1      43.370  -8.907  11.457  1.00  0.00     0.003 A 
HETATM   30  C   UNL     1      43.163  -7.918  10.489  1.00  0.00     0.040 A 
BRANCH  26  31
HETATM   31  O   UNL     1      45.657  -9.083   7.983  1.00  0.00    -0.353 OA
HETATM   32  C   UNL     1      45.927 -10.424   7.592  1.00  0.00     0.210 C 
ENDBRANCH  26  31
ENDBRANCH  24  25
ENDBRANCH  23  24
ENDBRANCH  22  23
ENDBRANCH  21  22
ENDBRANCH  20  21
ENDBRANCH   1  20
TORSDOF 9
ENDMDL
