MODEL 1
REMARK VINA RESULT:      -8.8      0.000      0.000
REMARK  10 active torsions:
REMARK  status: ('A' for Active; 'I' for Inactive)
REMARK    1  A    between atoms: C_3  and  C_4 
REMARK    2  A    between atoms: C_4  and  C_5 
REMARK       I    between atoms: C_5  and  N_6 
REMARK    3  A    between atoms: N_6  and  C_7 
REMARK    4  A    between atoms: C_7  and  C_8 
REMARK    5  A    between atoms: C_18  and  N_19 
REMARK       I    between atoms: N_19  and  C_20 
REMARK    6  A    between atoms: C_20  and  C_21 
REMARK    7  A    between atoms: C_21  and  O_22 
REMARK    8  A    between atoms: C_28  and  C_29 
REMARK    9  A    between atoms: C_29  and  O_30 
REMARK   10  A    between atoms: C_32  and  O_33 
ROOT
HETATM    1  C   UNL     1      40.569 -14.986   6.054  1.00  0.00     0.016 C 
HETATM    2  C   UNL     1      41.464 -13.832   5.476  1.00  0.00    -0.030 C 
HETATM    3  C   UNL     1      41.584 -14.158   3.902  1.00  0.00     0.056 C 
HETATM    4  C   UNL     1      40.531 -13.415   3.103  1.00  0.00     0.056 A 
HETATM    5  C   UNL     1      39.563 -12.606   3.656  1.00  0.00     0.012 A 
HETATM    6  S   UNL     1      38.541 -11.985   2.448  1.00  0.00    -0.055 SA
HETATM    7  C   UNL     1      39.461 -12.794   1.265  1.00  0.00     0.174 A 
HETATM    8  N   UNL     1      40.471 -13.507   1.719  1.00  0.00    -0.227 NA
HETATM    9  C   UNL     1      39.396 -12.289   5.093  1.00  0.00     0.055 C 
HETATM   10  C   UNL     1      40.740 -12.459   5.849  1.00  0.00     0.012 C 
HETATM   11  C   UNL     1      41.646 -11.158   5.875  1.00  0.00     0.008 C 
HETATM   12  C   UNL     1      40.897 -10.021   6.633  1.00  0.00     0.020 C 
HETATM   13  C   UNL     1      42.934 -11.463   6.698  1.00  0.00     0.128 C 
HETATM   14  C   UNL     1      43.677 -12.698   6.206  1.00  0.00     0.033 C 
HETATM   15  C   UNL     1      42.795 -13.937   6.265  1.00  0.00     0.013 C 
ENDROOT
BRANCH   3  16
HETATM   16  C   UNL     1      42.978 -14.040   3.258  1.00  0.00     0.114 C 
BRANCH  16  17
HETATM   17  C   UNL     1      43.302 -15.237   2.382  1.00  0.00     0.218 C 
HETATM   18  N   UNL     1      42.722 -16.406   2.799  1.00  0.00    -0.357 N 
HETATM   19  H   UNL     1      42.533 -16.464   3.797  1.00  0.00     0.162 HD
HETATM   20  O   UNL     1      44.006 -15.140   1.382  1.00  0.00    -0.274 OA
BRANCH  18  21
HETATM   21  C   UNL     1      42.949 -17.648   2.105  1.00  0.00     0.161 C 
BRANCH  21  22
HETATM   22  C   UNL     1      43.407 -18.703   3.075  1.00  0.00    -0.041 A 
HETATM   23  C   UNL     1      43.510 -20.039   2.659  1.00  0.00     0.009 A 
HETATM   24  C   UNL     1      43.900 -21.035   3.555  1.00  0.00     0.001 A 
HETATM   25  C   UNL     1      44.190 -20.706   4.877  1.00  0.00     0.000 A 
HETATM   26  C   UNL     1      44.092 -19.381   5.301  1.00  0.00     0.001 A 
HETATM   27  C   UNL     1      43.702 -18.383   4.406  1.00  0.00     0.009 A 
ENDBRANCH  21  22
ENDBRANCH  18  21
ENDBRANCH  16  17
ENDBRANCH   3  16
BRANCH  11  28
HETATM   28  C   UNL     1      41.987 -10.608   4.465  1.00  0.00     0.176 C 
BRANCH  28  29
HETATM   29  O   UNL     1      41.997  -9.184   4.410  1.00  0.00    -0.400 OA
HETATM   30  H   UNL     1      41.109  -8.889   4.705  1.00  0.00     0.209 HD
ENDBRANCH  28  29
ENDBRANCH  11  28
BRANCH   7  31
HETATM   31  N   UNL     1      39.185 -12.708  -0.074  1.00  0.00    -0.304 N 
HETATM   32  C   UNL     1      39.218 -13.727  -1.002  1.00  0.00     0.247 C 
HETATM   33  O   UNL     1      39.504 -14.906  -0.814  1.00  0.00    -0.271 OA
HETATM   34  H   UNL     1      38.948 -11.780  -0.406  1.00  0.00     0.171 HD
BRANCH  32  35
HETATM   35  C   UNL     1      38.795 -13.239  -2.391  1.00  0.00     0.270 C 
BRANCH  35  36
HETATM   36  O   UNL     1      39.818 -13.386  -3.372  1.00  0.00    -0.387 OA
HETATM   37  C   UNL     1      40.953 -12.576  -3.083  1.00  0.00     0.202 C 
ENDBRANCH  35  36
ENDBRANCH  32  35
ENDBRANCH   7  31
BRANCH  13  38
HETATM   38  O   UNL     1      43.840 -10.357   6.657  1.00  0.00    -0.395 OA
HETATM   39  H   UNL     1      43.833 -10.008   5.747  1.00  0.00     0.210 HD
ENDBRANCH  13  38
TORSDOF 10
ENDMDL
MODEL 2
REMARK VINA RESULT:      -8.7      3.159      6.686
REMARK  10 active torsions:
REMARK  status: ('A' for Active; 'I' for Inactive)
REMARK    1  A    between atoms: C_3  and  C_4 
REMARK    2  A    between atoms: C_4  and  C_5 
REMARK       I    between atoms: C_5  and  N_6 
REMARK    3  A    between atoms: N_6  and  C_7 
REMARK    4  A    between atoms: C_7  and  C_8 
REMARK    5  A    between atoms: C_18  and  N_19 
REMARK       I    between atoms: N_19  and  C_20 
REMARK    6  A    between atoms: C_20  and  C_21 
REMARK    7  A    between atoms: C_21  and  O_22 
REMARK    8  A    between atoms: C_28  and  C_29 
REMARK    9  A    between atoms: C_29  and  O_30 
REMARK   10  A    between atoms: C_32  and  O_33 
ROOT
HETATM    1  C   UNL     1      43.630 -13.823   2.329  1.00  0.00     0.016 C 
HETATM    2  C   UNL     1      42.276 -13.658   3.107  1.00  0.00    -0.030 C 
HETATM    3  C   UNL     1      42.654 -13.936   4.649  1.00  0.00     0.056 C 
HETATM    4  C   UNL     1      42.956 -12.644   5.384  1.00  0.00     0.056 A 
HETATM    5  C   UNL     1      42.957 -11.398   4.797  1.00  0.00     0.012 A 
HETATM    6  S   UNL     1      43.385 -10.205   5.931  1.00  0.00    -0.055 SA
HETATM    7  C   UNL     1      43.506 -11.403   7.135  1.00  0.00     0.174 A 
HETATM    8  N   UNL     1      43.262 -12.635   6.738  1.00  0.00    -0.227 NA
HETATM    9  C   UNL     1      42.637 -11.090   3.385  1.00  0.00     0.055 C 
HETATM   10  C   UNL     1      41.733 -12.193   2.777  1.00  0.00     0.012 C 
HETATM   11  C   UNL     1      40.178 -11.948   2.972  1.00  0.00     0.008 C 
HETATM   12  C   UNL     1      39.766 -10.637   2.237  1.00  0.00     0.020 C 
HETATM   13  C   UNL     1      39.399 -13.106   2.279  1.00  0.00     0.128 C 
HETATM   14  C   UNL     1      39.848 -14.485   2.741  1.00  0.00     0.033 C 
HETATM   15  C   UNL     1      41.328 -14.708   2.471  1.00  0.00     0.013 C 
ENDROOT
BRANCH   3  16
HETATM   16  C   UNL     1      41.710 -14.846   5.457  1.00  0.00     0.114 C 
BRANCH  16  17
HETATM   17  C   UNL     1      42.397 -16.126   5.898  1.00  0.00     0.218 C 
HETATM   18  N   UNL     1      43.530 -16.424   5.189  1.00  0.00    -0.357 N 
HETATM   19  H   UNL     1      43.552 -16.063   4.237  1.00  0.00     0.162 HD
HETATM   20  O   UNL     1      41.970 -16.807   6.825  1.00  0.00    -0.274 OA
BRANCH  18  21
HETATM   21  C   UNL     1      44.290 -17.620   5.451  1.00  0.00     0.161 C 
BRANCH  21  22
HETATM   22  C   UNL     1      44.026 -18.643   4.379  1.00  0.00    -0.041 A 
HETATM   23  C   UNL     1      43.559 -18.232   3.121  1.00  0.00     0.009 A 
HETATM   24  C   UNL     1      43.275 -19.169   2.127  1.00  0.00     0.001 A 
HETATM   25  C   UNL     1      43.454 -20.527   2.381  1.00  0.00     0.000 A 
HETATM   26  C   UNL     1      43.918 -20.946   3.627  1.00  0.00     0.001 A 
HETATM   27  C   UNL     1      44.202 -20.010   4.623  1.00  0.00     0.009 A 
ENDBRANCH  21  22
ENDBRANCH  18  21
ENDBRANCH  16  17
ENDBRANCH   3  16
BRANCH  11  28
HETATM   28  C   UNL     1      39.754 -11.782   4.454  1.00  0.00     0.176 C 
BRANCH  28  29
HETATM   29  O   UNL     1      38.736 -10.803   4.637  1.00  0.00    -0.400 OA
HETATM   30  H   UNL     1      38.465 -10.513   3.739  1.00  0.00     0.209 HD
ENDBRANCH  28  29
ENDBRANCH  11  28
BRANCH   7  31
HETATM   31  N   UNL     1      43.826 -11.115   8.435  1.00  0.00    -0.304 N 
HETATM   32  C   UNL     1      44.967 -10.496   8.898  1.00  0.00     0.247 C 
HETATM   33  O   UNL     1      45.920 -10.086   8.242  1.00  0.00    -0.271 OA
HETATM   34  H   UNL     1      43.143 -11.413   9.122  1.00  0.00     0.171 HD
BRANCH  32  35
HETATM   35  C   UNL     1      44.930 -10.308  10.418  1.00  0.00     0.270 C 
BRANCH  35  36
HETATM   36  O   UNL     1      43.974 -11.145  11.063  1.00  0.00    -0.387 OA
HETATM   37  C   UNL     1      43.121 -10.407  11.933  1.00  0.00     0.202 C 
ENDBRANCH  35  36
ENDBRANCH  32  35
ENDBRANCH   7  31
BRANCH  13  38
HETATM   38  O   UNL     1      37.994 -12.993   2.522  1.00  0.00    -0.395 OA
HETATM   39  H   UNL     1      37.840 -13.226   3.456  1.00  0.00     0.210 HD
ENDBRANCH  13  38
TORSDOF 10
ENDMDL
MODEL 3
REMARK VINA RESULT:      -8.4      2.817      6.345
REMARK  10 active torsions:
REMARK  status: ('A' for Active; 'I' for Inactive)
REMARK    1  A    between atoms: C_3  and  C_4 
REMARK    2  A    between atoms: C_4  and  C_5 
REMARK       I    between atoms: C_5  and  N_6 
REMARK    3  A    between atoms: N_6  and  C_7 
REMARK    4  A    between atoms: C_7  and  C_8 
REMARK    5  A    between atoms: C_18  and  N_19 
REMARK       I    between atoms: N_19  and  C_20 
REMARK    6  A    between atoms: C_20  and  C_21 
REMARK    7  A    between atoms: C_21  and  O_22 
REMARK    8  A    between atoms: C_28  and  C_29 
REMARK    9  A    between atoms: C_29  and  O_30 
REMARK   10  A    between atoms: C_32  and  O_33 
ROOT
HETATM    1  C   UNL     1      43.887 -12.688   2.991  1.00  0.00     0.016 C 
HETATM    2  C   UNL     1      42.381 -13.108   2.847  1.00  0.00    -0.030 C 
HETATM    3  C   UNL     1      41.869 -13.317   4.361  1.00  0.00     0.056 C 
HETATM    4  C   UNL     1      41.217 -12.059   4.901  1.00  0.00     0.056 A 
HETATM    5  C   UNL     1      41.121 -10.874   4.207  1.00  0.00     0.012 A 
HETATM    6  S   UNL     1      40.367  -9.683   5.158  1.00  0.00    -0.055 SA
HETATM    7  C   UNL     1      40.181 -10.817   6.415  1.00  0.00     0.174 A 
HETATM    8  N   UNL     1      40.659 -12.020   6.172  1.00  0.00    -0.227 NA
HETATM    9  C   UNL     1      41.591 -10.622   2.825  1.00  0.00     0.055 C 
HETATM   10  C   UNL     1      41.659 -11.948   2.022  1.00  0.00     0.012 C 
HETATM   11  C   UNL     1      40.312 -12.333   1.278  1.00  0.00     0.008 C 
HETATM   12  C   UNL     1      39.974 -11.238   0.223  1.00  0.00     0.020 C 
HETATM   13  C   UNL     1      40.541 -13.655   0.485  1.00  0.00     0.128 C 
HETATM   14  C   UNL     1      41.087 -14.781   1.350  1.00  0.00     0.033 C 
HETATM   15  C   UNL     1      42.415 -14.399   1.988  1.00  0.00     0.013 C 
ENDROOT
BRANCH   3  16
HETATM   16  C   UNL     1      41.024 -14.571   4.656  1.00  0.00     0.114 C 
BRANCH  16  17
HETATM   17  C   UNL     1      41.810 -15.616   5.428  1.00  0.00     0.218 C 
HETATM   18  N   UNL     1      42.964 -16.015   4.809  1.00  0.00    -0.357 N 
HETATM   19  H   UNL     1      42.960 -15.938   3.794  1.00  0.00     0.162 HD
HETATM   20  O   UNL     1      41.436 -16.036   6.518  1.00  0.00    -0.274 OA
BRANCH  18  21
HETATM   21  C   UNL     1      43.817 -17.025   5.383  1.00  0.00     0.161 C 
BRANCH  21  22
HETATM   22  C   UNL     1      43.804 -18.259   4.523  1.00  0.00    -0.041 A 
HETATM   23  C   UNL     1      43.514 -18.154   3.154  1.00  0.00     0.009 A 
HETATM   24  C   UNL     1      43.463 -19.292   2.348  1.00  0.00     0.001 A 
HETATM   25  C   UNL     1      43.701 -20.547   2.904  1.00  0.00     0.000 A 
HETATM   26  C   UNL     1      43.990 -20.663   4.263  1.00  0.00     0.001 A 
HETATM   27  C   UNL     1      44.041 -19.525   5.070  1.00  0.00     0.009 A 
ENDBRANCH  21  22
ENDBRANCH  18  21
ENDBRANCH  16  17
ENDBRANCH   3  16
BRANCH  11  28
HETATM   28  C   UNL     1      39.086 -12.439   2.223  1.00  0.00     0.176 C 
BRANCH  28  29
HETATM   29  O   UNL     1      37.851 -12.181   1.563  1.00  0.00    -0.400 OA
HETATM   30  H   UNL     1      37.738 -12.891   0.895  1.00  0.00     0.209 HD
ENDBRANCH  28  29
ENDBRANCH  11  28
BRANCH   7  31
HETATM   31  N   UNL     1      39.566 -10.512   7.601  1.00  0.00    -0.304 N 
HETATM   32  C   UNL     1      40.054  -9.714   8.614  1.00  0.00     0.247 C 
HETATM   33  O   UNL     1      41.129  -9.125   8.656  1.00  0.00    -0.271 OA
HETATM   34  H   UNL     1      38.660 -10.944   7.740  1.00  0.00     0.171 HD
BRANCH  32  35
HETATM   35  C   UNL     1      39.045  -9.577   9.758  1.00  0.00     0.270 C 
BRANCH  35  36
HETATM   36  O   UNL     1      38.250  -8.398   9.667  1.00  0.00    -0.387 OA
HETATM   37  C   UNL     1      38.653  -7.409  10.610  1.00  0.00     0.202 C 
ENDBRANCH  35  36
ENDBRANCH  32  35
ENDBRANCH   7  31
BRANCH  13  38
HETATM   38  O   UNL     1      39.324 -14.107  -0.114  1.00  0.00    -0.395 OA
HETATM   39  H   UNL     1      39.214 -13.625  -0.955  1.00  0.00     0.210 HD
ENDBRANCH  13  38
TORSDOF 10
ENDMDL
MODEL 4
REMARK VINA RESULT:      -7.9      3.190      7.647
REMARK  10 active torsions:
REMARK  status: ('A' for Active; 'I' for Inactive)
REMARK    1  A    between atoms: C_3  and  C_4 
REMARK    2  A    between atoms: C_4  and  C_5 
REMARK       I    between atoms: C_5  and  N_6 
REMARK    3  A    between atoms: N_6  and  C_7 
REMARK    4  A    between atoms: C_7  and  C_8 
REMARK    5  A    between atoms: C_18  and  N_19 
REMARK       I    between atoms: N_19  and  C_20 
REMARK    6  A    between atoms: C_20  and  C_21 
REMARK    7  A    between atoms: C_21  and  O_22 
REMARK    8  A    between atoms: C_28  and  C_29 
REMARK    9  A    between atoms: C_29  and  O_30 
REMARK   10  A    between atoms: C_32  and  O_33 
ROOT
HETATM    1  C   UNL     1      39.692 -11.724   6.499  1.00  0.00     0.016 C 
HETATM    2  C   UNL     1      40.702 -11.376   5.348  1.00  0.00    -0.030 C 
HETATM    3  C   UNL     1      41.970 -12.336   5.613  1.00  0.00     0.056 C 
HETATM    4  C   UNL     1      41.868 -13.618   4.810  1.00  0.00     0.056 A 
HETATM    5  C   UNL     1      40.805 -13.943   3.997  1.00  0.00     0.012 A 
HETATM    6  S   UNL     1      41.033 -15.477   3.300  1.00  0.00    -0.055 SA
HETATM    7  C   UNL     1      42.539 -15.601   4.085  1.00  0.00     0.174 A 
HETATM    8  N   UNL     1      42.871 -14.577   4.843  1.00  0.00    -0.227 NA
HETATM    9  C   UNL     1      39.610 -13.109   3.734  1.00  0.00     0.055 C 
HETATM   10  C   UNL     1      39.928 -11.610   3.972  1.00  0.00     0.012 C 
HETATM   11  C   UNL     1      40.490 -10.849   2.699  1.00  0.00     0.008 C 
HETATM   12  C   UNL     1      39.413 -10.860   1.573  1.00  0.00     0.020 C 
HETATM   13  C   UNL     1      40.723  -9.354   3.073  1.00  0.00     0.128 C 
HETATM   14  C   UNL     1      41.597  -9.179   4.307  1.00  0.00     0.033 C 
HETATM   15  C   UNL     1      40.987  -9.862   5.522  1.00  0.00     0.013 C 
ENDROOT
BRANCH   3  16
HETATM   16  C   UNL     1      43.371 -11.706   5.508  1.00  0.00     0.114 C 
BRANCH  16  17
HETATM   17  C   UNL     1      44.062 -11.632   6.858  1.00  0.00     0.218 C 
HETATM   18  N   UNL     1      44.774 -10.480   7.058  1.00  0.00    -0.357 N 
HETATM   19  H   UNL     1      45.125 -10.035   6.212  1.00  0.00     0.162 HD
HETATM   20  O   UNL     1      43.962 -12.529   7.689  1.00  0.00    -0.274 OA
BRANCH  18  21
HETATM   21  C   UNL     1      45.521 -10.256   8.270  1.00  0.00     0.161 C 
BRANCH  21  22
HETATM   22  C   UNL     1      44.703  -9.442   9.236  1.00  0.00    -0.041 A 
HETATM   23  C   UNL     1      44.058  -8.276   8.796  1.00  0.00     0.009 A 
HETATM   24  C   UNL     1      43.325  -7.491   9.686  1.00  0.00     0.001 A 
HETATM   25  C   UNL     1      43.230  -7.863  11.025  1.00  0.00     0.000 A 
HETATM   26  C   UNL     1      43.866  -9.019  11.473  1.00  0.00     0.001 A 
HETATM   27  C   UNL     1      44.600  -9.807  10.583  1.00  0.00     0.009 A 
ENDBRANCH  21  22
ENDBRANCH  18  21
ENDBRANCH  16  17
ENDBRANCH   3  16
BRANCH  11  28
HETATM   28  C   UNL     1      41.769 -11.493   2.101  1.00  0.00     0.176 C 
BRANCH  28  29
HETATM   29  O   UNL     1      41.512 -12.254   0.925  1.00  0.00    -0.400 OA
HETATM   30  H   UNL     1      41.692 -11.659   0.165  1.00  0.00     0.209 HD
ENDBRANCH  28  29
ENDBRANCH  11  28
BRANCH   7  31
HETATM   31  N   UNL     1      43.364 -16.685   3.937  1.00  0.00    -0.304 N 
HETATM   32  C   UNL     1      43.565 -17.711   4.835  1.00  0.00     0.247 C 
HETATM   33  O   UNL     1      43.052 -17.855   5.941  1.00  0.00    -0.271 OA
HETATM   34  H   UNL     1      43.890 -16.710   3.071  1.00  0.00     0.171 HD
BRANCH  32  35
HETATM   35  C   UNL     1      44.527 -18.766   4.280  1.00  0.00     0.270 C 
BRANCH  35  36
HETATM   36  O   UNL     1      44.285 -20.072   4.795  1.00  0.00    -0.387 OA
HETATM   37  C   UNL     1      43.868 -20.977   3.778  1.00  0.00     0.202 C 
ENDBRANCH  35  36
ENDBRANCH  32  35
ENDBRANCH   7  31
BRANCH  13  38
HETATM   38  O   UNL     1      41.336  -8.647   1.992  1.00  0.00    -0.395 OA
HETATM   39  H   UNL     1      41.606  -9.308   1.327  1.00  0.00     0.210 HD
ENDBRANCH  13  38
TORSDOF 10
ENDMDL
MODEL 5
REMARK VINA RESULT:      -7.7      3.462      6.960
REMARK  10 active torsions:
REMARK  status: ('A' for Active; 'I' for Inactive)
REMARK    1  A    between atoms: C_3  and  C_4 
REMARK    2  A    between atoms: C_4  and  C_5 
REMARK       I    between atoms: C_5  and  N_6 
REMARK    3  A    between atoms: N_6  and  C_7 
REMARK    4  A    between atoms: C_7  and  C_8 
REMARK    5  A    between atoms: C_18  and  N_19 
REMARK       I    between atoms: N_19  and  C_20 
REMARK    6  A    between atoms: C_20  and  C_21 
REMARK    7  A    between atoms: C_21  and  O_22 
REMARK    8  A    between atoms: C_28  and  C_29 
REMARK    9  A    between atoms: C_29  and  O_30 
REMARK   10  A    between atoms: C_32  and  O_33 
ROOT
HETATM    1  C   UNL     1      43.962 -11.763   3.297  1.00  0.00     0.016 C 
HETATM    2  C   UNL     1      42.582 -12.223   3.886  1.00  0.00    -0.030 C 
HETATM    3  C   UNL     1      42.816 -12.281   5.480  1.00  0.00     0.056 C 
HETATM    4  C   UNL     1      42.396 -10.985   6.146  1.00  0.00     0.056 A 
HETATM    5  C   UNL     1      41.923  -9.882   5.470  1.00  0.00     0.012 A 
HETATM    6  S   UNL     1      41.599  -8.611   6.553  1.00  0.00    -0.055 SA
HETATM    7  C   UNL     1      42.069  -9.609   7.851  1.00  0.00     0.174 A 
HETATM    8  N   UNL     1      42.465 -10.821   7.523  1.00  0.00    -0.227 NA
HETATM    9  C   UNL     1      41.706  -9.769   4.010  1.00  0.00     0.055 C 
HETATM   10  C   UNL     1      41.493 -11.170   3.380  1.00  0.00     0.012 C 
HETATM   11  C   UNL     1      39.984 -11.657   3.362  1.00  0.00     0.008 C 
HETATM   12  C   UNL     1      39.139 -10.686   2.484  1.00  0.00     0.020 C 
HETATM   13  C   UNL     1      39.917 -13.051   2.668  1.00  0.00     0.128 C 
HETATM   14  C   UNL     1      40.865 -14.069   3.286  1.00  0.00     0.033 C 
HETATM   15  C   UNL     1      42.310 -13.597   3.219  1.00  0.00     0.013 C 
ENDROOT
BRANCH   3  16
HETATM   16  C   UNL     1      42.275 -13.511   6.232  1.00  0.00     0.114 C 
BRANCH  16  17
HETATM   17  C   UNL     1      43.345 -14.571   6.427  1.00  0.00     0.218 C 
HETATM   18  N   UNL     1      43.168 -15.690   5.658  1.00  0.00    -0.357 N 
HETATM   19  H   UNL     1      42.204 -15.893   5.403  1.00  0.00     0.162 HD
HETATM   20  O   UNL     1      44.287 -14.410   7.196  1.00  0.00    -0.274 OA
BRANCH  18  21
HETATM   21  C   UNL     1      44.070 -16.811   5.740  1.00  0.00     0.161 C 
BRANCH  21  22
HETATM   22  C   UNL     1      43.866 -17.724   4.562  1.00  0.00    -0.041 A 
HETATM   23  C   UNL     1      43.277 -17.229   3.388  1.00  0.00     0.009 A 
HETATM   24  C   UNL     1      43.048 -18.069   2.298  1.00  0.00     0.001 A 
HETATM   25  C   UNL     1      43.404 -19.414   2.371  1.00  0.00     0.000 A 
HETATM   26  C   UNL     1      43.990 -19.916   3.532  1.00  0.00     0.001 A 
HETATM   27  C   UNL     1      44.220 -19.077   4.624  1.00  0.00     0.009 A 
ENDBRANCH  21  22
ENDBRANCH  18  21
ENDBRANCH  16  17
ENDBRANCH   3  16
BRANCH  11  28
HETATM   28  C   UNL     1      39.320 -11.686   4.763  1.00  0.00     0.176 C 
BRANCH  28  29
HETATM   29  O   UNL     1      39.188 -13.002   5.291  1.00  0.00    -0.400 OA
HETATM   30  H   UNL     1      39.700 -13.018   6.129  1.00  0.00     0.209 HD
ENDBRANCH  28  29
ENDBRANCH  11  28
BRANCH   7  31
HETATM   31  N   UNL     1      42.033  -9.192   9.156  1.00  0.00    -0.304 N 
HETATM   32  C   UNL     1      40.936  -9.149   9.990  1.00  0.00     0.247 C 
HETATM   33  O   UNL     1      39.781  -9.470   9.730  1.00  0.00    -0.271 OA
HETATM   34  H   UNL     1      42.918  -8.865   9.528  1.00  0.00     0.171 HD
BRANCH  32  35
HETATM   35  C   UNL     1      41.314  -8.669  11.394  1.00  0.00     0.270 C 
BRANCH  35  36
HETATM   36  O   UNL     1      40.274  -8.858  12.350  1.00  0.00    -0.387 OA
HETATM   37  C   UNL     1      40.744  -9.509  13.526  1.00  0.00     0.202 C 
ENDBRANCH  35  36
ENDBRANCH  32  35
ENDBRANCH   7  31
BRANCH  13  38
HETATM   38  O   UNL     1      38.593 -13.587   2.726  1.00  0.00    -0.395 OA
HETATM   39  H   UNL     1      38.003 -12.957   2.272  1.00  0.00     0.210 HD
ENDBRANCH  13  38
TORSDOF 10
ENDMDL
MODEL 6
REMARK VINA RESULT:      -7.7     10.302     14.656
REMARK  10 active torsions:
REMARK  status: ('A' for Active; 'I' for Inactive)
REMARK    1  A    between atoms: C_3  and  C_4 
REMARK    2  A    between atoms: C_4  and  C_5 
REMARK       I    between atoms: C_5  and  N_6 
REMARK    3  A    between atoms: N_6  and  C_7 
REMARK    4  A    between atoms: C_7  and  C_8 
REMARK    5  A    between atoms: C_18  and  N_19 
REMARK       I    between atoms: N_19  and  C_20 
REMARK    6  A    between atoms: C_20  and  C_21 
REMARK    7  A    between atoms: C_21  and  O_22 
REMARK    8  A    between atoms: C_28  and  C_29 
REMARK    9  A    between atoms: C_29  and  O_30 
REMARK   10  A    between atoms: C_32  and  O_33 
ROOT
HETATM    1  C   UNL     1      42.510  -5.394  12.381  1.00  0.00     0.016 C 
HETATM    2  C   UNL     1      41.027  -5.743  12.761  1.00  0.00    -0.030 C 
HETATM    3  C   UNL     1      41.136  -7.088  13.641  1.00  0.00     0.056 C 
HETATM    4  C   UNL     1      41.188  -6.774  15.124  1.00  0.00     0.056 A 
HETATM    5  C   UNL     1      41.193  -5.501  15.649  1.00  0.00     0.012 A 
HETATM    6  S   UNL     1      41.303  -5.554  17.345  1.00  0.00    -0.055 SA
HETATM    7  C   UNL     1      41.300  -7.255  17.284  1.00  0.00     0.174 A 
HETATM    8  N   UNL     1      41.237  -7.782  16.078  1.00  0.00    -0.227 NA
HETATM    9  C   UNL     1      41.114  -4.234  14.886  1.00  0.00     0.055 C 
HETATM   10  C   UNL     1      40.433  -4.466  13.512  1.00  0.00     0.012 C 
HETATM   11  C   UNL     1      38.854  -4.318  13.530  1.00  0.00     0.008 C 
HETATM   12  C   UNL     1      38.476  -2.860  13.928  1.00  0.00     0.020 C 
HETATM   13  C   UNL     1      38.316  -4.535  12.084  1.00  0.00     0.128 C 
HETATM   14  C   UNL     1      38.786  -5.844  11.464  1.00  0.00     0.033 C 
HETATM   15  C   UNL     1      40.304  -5.915  11.399  1.00  0.00     0.013 C 
ENDROOT
BRANCH   3  16
HETATM   16  C   UNL     1      40.140  -8.221  13.332  1.00  0.00     0.114 C 
BRANCH  16  17
HETATM   17  C   UNL     1      40.795  -9.362  12.574  1.00  0.00     0.218 C 
HETATM   18  N   UNL     1      42.162  -9.290  12.531  1.00  0.00    -0.357 N 
HETATM   19  H   UNL     1      42.549  -8.351  12.595  1.00  0.00     0.162 HD
HETATM   20  O   UNL     1      40.140 -10.268  12.069  1.00  0.00    -0.274 OA
BRANCH  18  21
HETATM   21  C   UNL     1      42.946 -10.271  11.824  1.00  0.00     0.161 C 
BRANCH  21  22
HETATM   22  C   UNL     1      43.740  -9.606  10.732  1.00  0.00    -0.041 A 
HETATM   23  C   UNL     1      43.217  -8.483  10.072  1.00  0.00     0.009 A 
HETATM   24  C   UNL     1      43.924  -7.875   9.034  1.00  0.00     0.001 A 
HETATM   25  C   UNL     1      45.161  -8.385   8.644  1.00  0.00     0.000 A 
HETATM   26  C   UNL     1      45.689  -9.500   9.293  1.00  0.00     0.001 A 
HETATM   27  C   UNL     1      44.983 -10.109  10.332  1.00  0.00     0.009 A 
ENDBRANCH  21  22
ENDBRANCH  18  21
ENDBRANCH  16  17
ENDBRANCH   3  16
BRANCH  11  28
HETATM   28  C   UNL     1      38.152  -5.256  14.547  1.00  0.00     0.176 C 
BRANCH  28  29
HETATM   29  O   UNL     1      36.857  -4.799  14.924  1.00  0.00    -0.400 OA
HETATM   30  H   UNL     1      36.897  -4.612  15.887  1.00  0.00     0.209 HD
ENDBRANCH  28  29
ENDBRANCH  11  28
BRANCH   7  31
HETATM   31  N   UNL     1      41.350  -8.036  18.408  1.00  0.00    -0.304 N 
HETATM   32  C   UNL     1      40.285  -8.492  19.157  1.00  0.00     0.247 C 
HETATM   33  O   UNL     1      39.090  -8.287  18.968  1.00  0.00    -0.271 OA
HETATM   34  H   UNL     1      42.282  -8.282  18.721  1.00  0.00     0.171 HD
BRANCH  32  35
HETATM   35  C   UNL     1      40.750  -9.382  20.313  1.00  0.00     0.270 C 
BRANCH  35  36
HETATM   36  O   UNL     1      39.704  -9.710  21.223  1.00  0.00    -0.387 OA
HETATM   37  C   UNL     1      40.161  -9.741  22.572  1.00  0.00     0.202 C 
ENDBRANCH  35  36
ENDBRANCH  32  35
ENDBRANCH   7  31
BRANCH  13  38
HETATM   38  O   UNL     1      36.886  -4.524  12.064  1.00  0.00    -0.395 OA
HETATM   39  H   UNL     1      36.597  -5.228  11.453  1.00  0.00     0.210 HD
ENDBRANCH  13  38
TORSDOF 10
ENDMDL
MODEL 7
REMARK VINA RESULT:      -7.6      1.903      2.009
REMARK  10 active torsions:
REMARK  status: ('A' for Active; 'I' for Inactive)
REMARK    1  A    between atoms: C_3  and  C_4 
REMARK    2  A    between atoms: C_4  and  C_5 
REMARK       I    between atoms: C_5  and  N_6 
REMARK    3  A    between atoms: N_6  and  C_7 
REMARK    4  A    between atoms: C_7  and  C_8 
REMARK    5  A    between atoms: C_18  and  N_19 
REMARK       I    between atoms: N_19  and  C_20 
REMARK    6  A    between atoms: C_20  and  C_21 
REMARK    7  A    between atoms: C_21  and  O_22 
REMARK    8  A    between atoms: C_28  and  C_29 
REMARK    9  A    between atoms: C_29  and  O_30 
REMARK   10  A    between atoms: C_32  and  O_33 
ROOT
HETATM    1  C   UNL     1      40.189 -14.555   6.376  1.00  0.00     0.016 C 
HETATM    2  C   UNL     1      41.350 -13.790   5.648  1.00  0.00    -0.030 C 
HETATM    3  C   UNL     1      41.047 -13.985   4.077  1.00  0.00     0.056 C 
HETATM    4  C   UNL     1      40.253 -12.819   3.520  1.00  0.00     0.056 A 
HETATM    5  C   UNL     1      39.805 -11.755   4.270  1.00  0.00     0.012 A 
HETATM    6  S   UNL     1      38.917 -10.674   3.304  1.00  0.00    -0.055 SA
HETATM    7  C   UNL     1      39.210 -11.660   1.947  1.00  0.00     0.174 A 
HETATM    8  N   UNL     1      39.915 -12.748   2.175  1.00  0.00    -0.227 NA
HETATM    9  C   UNL     1      40.039 -11.537   5.716  1.00  0.00     0.055 C 
HETATM   10  C   UNL     1      41.314 -12.286   6.182  1.00  0.00     0.012 C 
HETATM   11  C   UNL     1      42.654 -11.448   6.045  1.00  0.00     0.008 C 
HETATM   12  C   UNL     1      42.569 -10.187   6.957  1.00  0.00     0.020 C 
HETATM   13  C   UNL     1      43.837 -12.305   6.585  1.00  0.00     0.128 C 
HETATM   14  C   UNL     1      43.924 -13.678   5.933  1.00  0.00     0.033 C 
HETATM   15  C   UNL     1      42.647 -14.478   6.149  1.00  0.00     0.013 C 
ENDROOT
BRANCH   3  16
HETATM   16  C   UNL     1      42.232 -14.356   3.166  1.00  0.00     0.114 C 
BRANCH  16  17
HETATM   17  C   UNL     1      42.083 -15.749   2.581  1.00  0.00     0.218 C 
HETATM   18  N   UNL     1      43.257 -16.451   2.505  1.00  0.00    -0.357 N 
HETATM   19  H   UNL     1      44.096 -15.883   2.418  1.00  0.00     0.162 HD
HETATM   20  O   UNL     1      40.994 -16.194   2.232  1.00  0.00    -0.274 OA
BRANCH  18  21
HETATM   21  C   UNL     1      43.306 -17.778   1.944  1.00  0.00     0.161 C 
BRANCH  21  22
HETATM   22  C   UNL     1      43.611 -18.781   3.022  1.00  0.00    -0.041 A 
HETATM   23  C   UNL     1      43.661 -20.149   2.711  1.00  0.00     0.009 A 
HETATM   24  C   UNL     1      43.908 -21.096   3.706  1.00  0.00     0.001 A 
HETATM   25  C   UNL     1      44.105 -20.685   5.022  1.00  0.00     0.000 A 
HETATM   26  C   UNL     1      44.057 -19.329   5.343  1.00  0.00     0.001 A 
HETATM   27  C   UNL     1      43.811 -18.381   4.349  1.00  0.00     0.009 A 
ENDBRANCH  21  22
ENDBRANCH  18  21
ENDBRANCH  16  17
ENDBRANCH   3  16
BRANCH  11  28
HETATM   28  C   UNL     1      42.928 -10.941   4.605  1.00  0.00     0.176 C 
BRANCH  28  29
HETATM   29  O   UNL     1      42.497  -9.599   4.395  1.00  0.00    -0.400 OA
HETATM   30  H   UNL     1      41.521  -9.601   4.499  1.00  0.00     0.209 HD
ENDBRANCH  28  29
ENDBRANCH  11  28
BRANCH   7  31
HETATM   31  N   UNL     1      38.756 -11.346   0.692  1.00  0.00    -0.304 N 
HETATM   32  C   UNL     1      37.446 -11.198   0.290  1.00  0.00     0.247 C 
HETATM   33  O   UNL     1      36.432 -11.321   0.970  1.00  0.00    -0.271 OA
HETATM   34  H   UNL     1      39.478 -11.230  -0.009  1.00  0.00     0.171 HD
BRANCH  32  35
HETATM   35  C   UNL     1      37.351 -10.794  -1.184  1.00  0.00     0.270 C 
BRANCH  35  36
HETATM   36  O   UNL     1      38.000  -9.557  -1.469  1.00  0.00    -0.387 OA
HETATM   37  C   UNL     1      37.251  -8.442  -0.997  1.00  0.00     0.202 C 
ENDBRANCH  35  36
ENDBRANCH  32  35
ENDBRANCH   7  31
BRANCH  13  38
HETATM   38  O   UNL     1      45.086 -11.639   6.381  1.00  0.00    -0.395 OA
HETATM   39  H   UNL     1      45.340 -11.774   5.449  1.00  0.00     0.210 HD
ENDBRANCH  13  38
TORSDOF 10
ENDMDL
MODEL 8
REMARK VINA RESULT:      -7.4      3.997      7.490
REMARK  10 active torsions:
REMARK  status: ('A' for Active; 'I' for Inactive)
REMARK    1  A    between atoms: C_3  and  C_4 
REMARK    2  A    between atoms: C_4  and  C_5 
REMARK       I    between atoms: C_5  and  N_6 
REMARK    3  A    between atoms: N_6  and  C_7 
REMARK    4  A    between atoms: C_7  and  C_8 
REMARK    5  A    between atoms: C_18  and  N_19 
REMARK       I    between atoms: N_19  and  C_20 
REMARK    6  A    between atoms: C_20  and  C_21 
REMARK    7  A    between atoms: C_21  and  O_22 
REMARK    8  A    between atoms: C_28  and  C_29 
REMARK    9  A    between atoms: C_29  and  O_30 
REMARK   10  A    between atoms: C_32  and  O_33 
ROOT
HETATM    1  C   UNL     1      42.573 -10.829   3.463  1.00  0.00     0.016 C 
HETATM    2  C   UNL     1      41.034 -10.809   3.772  1.00  0.00    -0.030 C 
HETATM    3  C   UNL     1      40.925 -11.200   5.332  1.00  0.00     0.056 C 
HETATM    4  C   UNL     1      40.873  -9.963   6.208  1.00  0.00     0.056 A 
HETATM    5  C   UNL     1      40.959  -8.672   5.735  1.00  0.00     0.012 A 
HETATM    6  S   UNL     1      40.906  -7.561   7.021  1.00  0.00    -0.055 SA
HETATM    7  C   UNL     1      40.736  -8.851   8.119  1.00  0.00     0.174 A 
HETATM    8  N   UNL     1      40.731 -10.056   7.586  1.00  0.00    -0.227 NA
HETATM    9  C   UNL     1      41.079  -8.259   4.319  1.00  0.00     0.055 C 
HETATM   10  C   UNL     1      40.507  -9.354   3.381  1.00  0.00     0.012 C 
HETATM   11  C   UNL     1      38.956  -9.214   3.079  1.00  0.00     0.008 C 
HETATM   12  C   UNL     1      38.694  -7.868   2.338  1.00  0.00     0.020 C 
HETATM   13  C   UNL     1      38.533 -10.348   2.098  1.00  0.00     0.128 C 
HETATM   14  C   UNL     1      38.923 -11.736   2.589  1.00  0.00     0.033 C 
HETATM   15  C   UNL     1      40.426 -11.851   2.797  1.00  0.00     0.013 C 
ENDROOT
BRANCH   3  16
HETATM   16  C   UNL     1      39.851 -12.229   5.731  1.00  0.00     0.114 C 
BRANCH  16  17
HETATM   17  C   UNL     1      40.447 -13.602   5.982  1.00  0.00     0.218 C 
HETATM   18  N   UNL     1      41.749 -13.728   5.577  1.00  0.00    -0.357 N 
HETATM   19  H   UNL     1      42.024 -13.118   4.810  1.00  0.00     0.162 HD
HETATM   20  O   UNL     1      39.808 -14.500   6.522  1.00  0.00    -0.274 OA
BRANCH  18  21
HETATM   21  C   UNL     1      42.462 -14.973   5.708  1.00  0.00     0.161 C 
BRANCH  21  22
HETATM   22  C   UNL     1      42.741 -15.552   4.347  1.00  0.00    -0.041 A 
HETATM   23  C   UNL     1      42.879 -16.940   4.192  1.00  0.00     0.009 A 
HETATM   24  C   UNL     1      43.172 -17.491   2.944  1.00  0.00     0.001 A 
HETATM   25  C   UNL     1      43.332 -16.659   1.838  1.00  0.00     0.000 A 
HETATM   26  C   UNL     1      43.196 -15.279   1.980  1.00  0.00     0.001 A 
HETATM   27  C   UNL     1      42.902 -14.726   3.228  1.00  0.00     0.009 A 
ENDBRANCH  21  22
ENDBRANCH  18  21
ENDBRANCH  16  17
ENDBRANCH   3  16
BRANCH  11  28
HETATM   28  C   UNL     1      38.072  -9.203   4.353  1.00  0.00     0.176 C 
BRANCH  28  29
HETATM   29  O   UNL     1      36.975  -8.299   4.263  1.00  0.00    -0.400 OA
HETATM   30  H   UNL     1      36.442  -8.585   3.489  1.00  0.00     0.209 HD
ENDBRANCH  28  29
ENDBRANCH  11  28
BRANCH   7  31
HETATM   31  N   UNL     1      40.602  -8.661   9.469  1.00  0.00    -0.304 N 
HETATM   32  C   UNL     1      39.448  -8.363  10.161  1.00  0.00     0.247 C 
HETATM   33  O   UNL     1      38.318  -8.205   9.708  1.00  0.00    -0.271 OA
HETATM   34  H   UNL     1      41.462  -8.735  10.001  1.00  0.00     0.171 HD
BRANCH  32  35
HETATM   35  C   UNL     1      39.700  -8.279  11.669  1.00  0.00     0.270 C 
BRANCH  35  36
HETATM   36  O   UNL     1      39.992  -9.542  12.261  1.00  0.00    -0.387 OA
HETATM   37  C   UNL     1      40.735  -9.406  13.468  1.00  0.00     0.202 C 
ENDBRANCH  35  36
ENDBRANCH  32  35
ENDBRANCH   7  31
BRANCH  13  38
HETATM   38  O   UNL     1      37.120 -10.336   1.882  1.00  0.00    -0.395 OA
HETATM   39  H   UNL     1      36.791  -9.457   2.149  1.00  0.00     0.210 HD
ENDBRANCH  13  38
TORSDOF 10
ENDMDL
MODEL 9
REMARK VINA RESULT:      -7.3      2.847      6.546
REMARK  10 active torsions:
REMARK  status: ('A' for Active; 'I' for Inactive)
REMARK    1  A    between atoms: C_3  and  C_4 
REMARK    2  A    between atoms: C_4  and  C_5 
REMARK       I    between atoms: C_5  and  N_6 
REMARK    3  A    between atoms: N_6  and  C_7 
REMARK    4  A    between atoms: C_7  and  C_8 
REMARK    5  A    between atoms: C_18  and  N_19 
REMARK       I    between atoms: N_19  and  C_20 
REMARK    6  A    between atoms: C_20  and  C_21 
REMARK    7  A    between atoms: C_21  and  O_22 
REMARK    8  A    between atoms: C_28  and  C_29 
REMARK    9  A    between atoms: C_29  and  O_30 
REMARK   10  A    between atoms: C_32  and  O_33 
ROOT
HETATM    1  C   UNL     1      43.835 -12.189   4.428  1.00  0.00     0.016 C 
HETATM    2  C   UNL     1      42.744 -13.294   4.665  1.00  0.00    -0.030 C 
HETATM    3  C   UNL     1      41.348 -12.572   4.308  1.00  0.00     0.056 C 
HETATM    4  C   UNL     1      40.948 -12.829   2.867  1.00  0.00     0.056 A 
HETATM    5  C   UNL     1      41.706 -13.543   1.966  1.00  0.00     0.012 A 
HETATM    6  S   UNL     1      40.949 -13.576   0.444  1.00  0.00    -0.055 SA
HETATM    7  C   UNL     1      39.651 -12.677   1.079  1.00  0.00     0.174 A 
HETATM    8  N   UNL     1      39.756 -12.343   2.348  1.00  0.00    -0.227 NA
HETATM    9  C   UNL     1      43.001 -14.208   2.236  1.00  0.00     0.055 C 
HETATM   10  C   UNL     1      43.142 -14.536   3.745  1.00  0.00     0.012 C 
HETATM   11  C   UNL     1      42.559 -15.950   4.165  1.00  0.00     0.008 C 
HETATM   12  C   UNL     1      43.350 -17.074   3.431  1.00  0.00     0.020 C 
HETATM   13  C   UNL     1      42.806 -16.160   5.690  1.00  0.00     0.128 C 
HETATM   14  C   UNL     1      42.271 -15.017   6.542  1.00  0.00     0.033 C 
HETATM   15  C   UNL     1      42.908 -13.690   6.156  1.00  0.00     0.013 C 
ENDROOT
BRANCH   3  16
HETATM   16  C   UNL     1      40.169 -12.790   5.275  1.00  0.00     0.114 C 
BRANCH  16  17
HETATM   17  C   UNL     1      39.973 -11.606   6.205  1.00  0.00     0.218 C 
HETATM   18  N   UNL     1      40.966 -10.666   6.128  1.00  0.00    -0.357 N 
HETATM   19  H   UNL     1      41.875 -11.020   5.839  1.00  0.00     0.162 HD
HETATM   20  O   UNL     1      38.993 -11.510   6.936  1.00  0.00    -0.274 OA
BRANCH  18  21
HETATM   21  C   UNL     1      40.958  -9.492   6.965  1.00  0.00     0.161 C 
BRANCH  21  22
HETATM   22  C   UNL     1      42.331  -9.257   7.533  1.00  0.00    -0.041 A 
HETATM   23  C   UNL     1      43.272 -10.297   7.543  1.00  0.00     0.009 A 
HETATM   24  C   UNL     1      44.538 -10.107   8.098  1.00  0.00     0.001 A 
HETATM   25  C   UNL     1      44.875  -8.873   8.651  1.00  0.00     0.000 A 
HETATM   26  C   UNL     1      43.948  -7.832   8.646  1.00  0.00     0.001 A 
HETATM   27  C   UNL     1      42.681  -8.021   8.091  1.00  0.00     0.009 A 
ENDBRANCH  21  22
ENDBRANCH  18  21
ENDBRANCH  16  17
ENDBRANCH   3  16
BRANCH  11  28
HETATM   28  C   UNL     1      41.064 -16.143   3.798  1.00  0.00     0.176 C 
BRANCH  28  29
HETATM   29  O   UNL     1      40.200 -16.080   4.928  1.00  0.00    -0.400 OA
HETATM   30  H   UNL     1      40.609 -16.639   5.623  1.00  0.00     0.209 HD
ENDBRANCH  28  29
ENDBRANCH  11  28
BRANCH   7  31
HETATM   31  N   UNL     1      38.558 -12.326   0.330  1.00  0.00    -0.304 N 
HETATM   32  C   UNL     1      38.518 -11.444  -0.729  1.00  0.00     0.247 C 
HETATM   33  O   UNL     1      39.446 -10.799  -1.206  1.00  0.00    -0.271 OA
HETATM   34  H   UNL     1      37.686 -12.761   0.612  1.00  0.00     0.171 HD
BRANCH  32  35
HETATM   35  C   UNL     1      37.115 -11.359  -1.338  1.00  0.00     0.270 C 
BRANCH  35  36
HETATM   36  O   UNL     1      36.569 -10.043  -1.305  1.00  0.00    -0.387 OA
HETATM   37  C   UNL     1      36.077  -9.704  -0.012  1.00  0.00     0.202 C 
ENDBRANCH  35  36
ENDBRANCH  32  35
ENDBRANCH   7  31
BRANCH  13  38
HETATM   38  O   UNL     1      42.198 -17.372   6.143  1.00  0.00    -0.395 OA
HETATM   39  H   UNL     1      42.912 -17.957   6.457  1.00  0.00     0.210 HD
ENDBRANCH  13  38
TORSDOF 10
ENDMDL
MODEL 10
REMARK VINA RESULT:      -7.2      6.541      9.349
REMARK  10 active torsions:
REMARK  status: ('A' for Active; 'I' for Inactive)
REMARK    1  A    between atoms: C_3  and  C_4 
REMARK    2  A    between atoms: C_4  and  C_5 
REMARK       I    between atoms: C_5  and  N_6 
REMARK    3  A    between atoms: N_6  and  C_7 
REMARK    4  A    between atoms: C_7  and  C_8 
REMARK    5  A    between atoms: C_18  and  N_19 
REMARK       I    between atoms: N_19  and  C_20 
REMARK    6  A    between atoms: C_20  and  C_21 
REMARK    7  A    between atoms: C_21  and  O_22 
REMARK    8  A    between atoms: C_28  and  C_29 
REMARK    9  A    between atoms: C_29  and  O_30 
REMARK   10  A    between atoms: C_32  and  O_33 
ROOT
HETATM    1  C   UNL     1      39.839 -10.444  12.918  1.00  0.00     0.016 C 
HETATM    2  C   UNL     1      40.771  -9.185  12.811  1.00  0.00    -0.030 C 
HETATM    3  C   UNL     1      41.456  -9.307  11.357  1.00  0.00     0.056 C 
HETATM    4  C   UNL     1      40.681  -8.524  10.315  1.00  0.00     0.056 A 
HETATM    5  C   UNL     1      39.514  -7.838  10.568  1.00  0.00     0.012 A 
HETATM    6  S   UNL     1      38.921  -7.123   9.143  1.00  0.00    -0.055 SA
HETATM    7  C   UNL     1      40.261  -7.733   8.289  1.00  0.00     0.174 A 
HETATM    8  N   UNL     1      41.112  -8.446   8.997  1.00  0.00    -0.227 NA
HETATM    9  C   UNL     1      38.834  -7.709  11.876  1.00  0.00     0.055 C 
HETATM   10  C   UNL     1      39.843  -7.906  13.037  1.00  0.00     0.012 C 
HETATM   11  C   UNL     1      40.565  -6.575  13.510  1.00  0.00     0.008 C 
HETATM   12  C   UNL     1      39.502  -5.579  14.063  1.00  0.00     0.020 C 
HETATM   13  C   UNL     1      41.511  -6.916  14.701  1.00  0.00     0.128 C 
HETATM   14  C   UNL     1      42.485  -8.043  14.383  1.00  0.00     0.033 C 
HETATM   15  C   UNL     1      41.752  -9.321  14.004  1.00  0.00     0.013 C 
ENDROOT
BRANCH   3  16
HETATM   16  C   UNL     1      42.970  -9.042  11.262  1.00  0.00     0.114 C 
BRANCH  16  17
HETATM   17  C   UNL     1      43.703 -10.180  10.574  1.00  0.00     0.218 C 
HETATM   18  N   UNL     1      44.023  -9.928   9.267  1.00  0.00    -0.357 N 
HETATM   19  H   UNL     1      43.406  -9.275   8.788  1.00  0.00     0.162 HD
HETATM   20  O   UNL     1      43.992 -11.217  11.163  1.00  0.00    -0.274 OA
BRANCH  18  21
HETATM   21  C   UNL     1      44.690 -10.912   8.452  1.00  0.00     0.161 C 
BRANCH  21  22
HETATM   22  C   UNL     1      44.095 -10.923   7.069  1.00  0.00    -0.041 A 
HETATM   23  C   UNL     1      42.814 -10.392   6.855  1.00  0.00     0.009 A 
HETATM   24  C   UNL     1      42.234 -10.426   5.586  1.00  0.00     0.001 A 
HETATM   25  C   UNL     1      42.928 -10.994   4.520  1.00  0.00     0.000 A 
HETATM   26  C   UNL     1      44.201 -11.524   4.722  1.00  0.00     0.001 A 
HETATM   27  C   UNL     1      44.783 -11.490   5.990  1.00  0.00     0.009 A 
ENDBRANCH  21  22
ENDBRANCH  18  21
ENDBRANCH  16  17
ENDBRANCH   3  16
BRANCH  11  28
HETATM   28  C   UNL     1      41.321  -5.838  12.374  1.00  0.00     0.176 C 
BRANCH  28  29
HETATM   29  O   UNL     1      41.465  -4.442  12.615  1.00  0.00    -0.400 OA
HETATM   30  H   UNL     1      40.676  -4.165  13.129  1.00  0.00     0.209 HD
ENDBRANCH  28  29
ENDBRANCH  11  28
BRANCH   7  31
HETATM   31  N   UNL     1      40.458  -7.495   6.954  1.00  0.00    -0.304 N 
HETATM   32  C   UNL     1      41.496  -6.798   6.373  1.00  0.00     0.247 C 
HETATM   33  O   UNL     1      42.442  -6.252   6.932  1.00  0.00    -0.271 OA
HETATM   34  H   UNL     1      39.741  -7.866   6.340  1.00  0.00     0.171 HD
BRANCH  32  35
HETATM   35  C   UNL     1      41.388  -6.795   4.845  1.00  0.00     0.270 C 
BRANCH  35  36
HETATM   36  O   UNL     1      41.264  -5.487   4.294  1.00  0.00    -0.387 OA
HETATM   37  C   UNL     1      42.418  -5.111   3.549  1.00  0.00     0.202 C 
ENDBRANCH  35  36
ENDBRANCH  32  35
ENDBRANCH   7  31
BRANCH  13  38
HETATM   38  O   UNL     1      42.272  -5.771  15.092  1.00  0.00    -0.395 OA
HETATM   39  H   UNL     1      43.200  -6.056  15.191  1.00  0.00     0.210 HD
ENDBRANCH  13  38
TORSDOF 10
ENDMDL
