MODEL 1
REMARK VINA RESULT:      -9.0      0.000      0.000
REMARK  8 active torsions:
REMARK  status: ('A' for Active; 'I' for Inactive)
REMARK    1  A    between atoms: N_2  and  C_3 
REMARK    2  A    between atoms: C_4  and  C_5 
REMARK       I    between atoms: C_5  and  N_6 
REMARK    3  A    between atoms: N_6  and  C_7 
REMARK    4  A    between atoms: C_7  and  C_8 
REMARK    5  A    between atoms: N_13  and  C_15 
REMARK    6  A    between atoms: C_15  and  C_16 
REMARK    7  A    between atoms: C_16  and  C_17 
REMARK    8  A    between atoms: C_17  and  C_18 
ROOT
HETATM    1  C   UNL     1      40.840 -13.920   3.507  1.00  0.00     0.140 C 
HETATM    2  O   UNL     1      42.134 -13.596   4.061  1.00  0.00    -0.373 OA
HETATM    3  C   UNL     1      42.040 -12.295   4.682  1.00  0.00     0.064 C 
HETATM    4  C   UNL     1      43.214 -11.461   4.156  1.00  0.00     0.066 C 
HETATM    5  C   UNL     1      44.558 -11.994   4.642  1.00  0.00     0.237 C 
HETATM    6  N   UNL     1      44.583 -12.108   6.155  1.00  0.00    -0.071 N 
HETATM    7  H   UNL     1      45.458 -12.606   6.366  1.00  0.00     0.279 HD
HETATM    8  C   UNL     1      43.475 -13.029   6.619  1.00  0.00     0.237 C 
HETATM    9  C   UNL     1      42.121 -12.483   6.201  1.00  0.00     0.066 C 
HETATM   10  C   UNL     1      40.683 -11.709   4.267  1.00  0.00     0.041 C 
HETATM   11  C   UNL     1      40.265 -12.575   3.103  1.00  0.00     0.036 C 
ENDROOT
BRANCH   1  12
HETATM   12  C   UNL     1      40.963 -14.906   2.344  1.00  0.00     0.155 C 
BRANCH  12  13
HETATM   13  N   UNL     1      41.486 -16.192   2.756  1.00  0.00    -0.354 N 
HETATM   14  C   UNL     1      42.772 -16.578   2.412  1.00  0.00     0.253 C 
HETATM   15  O   UNL     1      43.492 -15.890   1.699  1.00  0.00    -0.268 OA
HETATM   16  H   UNL     1      40.971 -16.745   3.430  1.00  0.00     0.162 HD
BRANCH  14  17
HETATM   17  C   UNL     1      43.205 -17.884   2.987  1.00  0.00     0.053 A 
HETATM   18  C   UNL     1      43.592 -18.012   4.342  1.00  0.00     0.025 A 
HETATM   19  C   UNL     1      43.987 -19.291   4.780  1.00  0.00     0.025 A 
HETATM   20  C   UNL     1      44.007 -20.391   3.917  1.00  0.00     0.002 A 
HETATM   21  C   UNL     1      43.637 -20.243   2.586  1.00  0.00     0.001 A 
HETATM   22  C   UNL     1      43.239 -18.993   2.119  1.00  0.00     0.019 A 
BRANCH  18  23
HETATM   23  N   UNL     1      43.544 -16.922   5.233  1.00  0.00    -0.291 NA
HETATM   24  C   UNL     1      42.332 -16.910   6.048  1.00  0.00     0.116 C 
HETATM   25  C   UNL     1      44.778 -16.628   5.962  1.00  0.00     0.116 C 
ENDBRANCH  18  23
ENDBRANCH  14  17
ENDBRANCH  12  13
ENDBRANCH   1  12
BRANCH   6  26
HETATM   26  C   UNL     1      44.684 -10.759   6.840  1.00  0.00     0.235 C 
BRANCH  26  27
HETATM   27  C   UNL     1      45.990 -10.539   7.595  1.00  0.00     0.032 C 
BRANCH  27  28
HETATM   28  C   UNL     1      46.181  -9.115   8.119  1.00  0.00     0.040 C 
BRANCH  28  29
HETATM   29  C   UNL     1      45.130  -8.782   9.146  1.00  0.00    -0.058 A 
HETATM   30  C   UNL     1      45.029  -9.528  10.329  1.00  0.00     0.007 A 
HETATM   31  C   UNL     1      44.029  -9.245  11.261  1.00  0.00     0.001 A 
HETATM   32  C   UNL     1      43.120  -8.217  11.018  1.00  0.00     0.000 A 
HETATM   33  C   UNL     1      43.212  -7.469   9.847  1.00  0.00     0.001 A 
HETATM   34  C   UNL     1      44.212  -7.749   8.915  1.00  0.00     0.007 A 
ENDBRANCH  28  29
ENDBRANCH  27  28
ENDBRANCH  26  27
ENDBRANCH   6  26
TORSDOF 8
ENDMDL
MODEL 2
REMARK VINA RESULT:      -8.9      3.061     10.512
REMARK  8 active torsions:
REMARK  status: ('A' for Active; 'I' for Inactive)
REMARK    1  A    between atoms: N_2  and  C_3 
REMARK    2  A    between atoms: C_4  and  C_5 
REMARK       I    between atoms: C_5  and  N_6 
REMARK    3  A    between atoms: N_6  and  C_7 
REMARK    4  A    between atoms: C_7  and  C_8 
REMARK    5  A    between atoms: N_13  and  C_15 
REMARK    6  A    between atoms: C_15  and  C_16 
REMARK    7  A    between atoms: C_16  and  C_17 
REMARK    8  A    between atoms: C_17  and  C_18 
ROOT
HETATM    1  C   UNL     1      43.864 -10.470   8.147  1.00  0.00     0.140 C 
HETATM    2  O   UNL     1      43.129 -11.152   7.107  1.00  0.00    -0.373 OA
HETATM    3  C   UNL     1      44.055 -11.992   6.384  1.00  0.00     0.064 C 
HETATM    4  C   UNL     1      43.855 -11.699   4.892  1.00  0.00     0.066 C 
HETATM    5  C   UNL     1      42.489 -12.161   4.396  1.00  0.00     0.237 C 
HETATM    6  N   UNL     1      42.260 -13.627   4.716  1.00  0.00    -0.071 N 
HETATM    7  H   UNL     1      41.274 -13.797   4.480  1.00  0.00     0.279 HD
HETATM    8  C   UNL     1      42.357 -13.847   6.211  1.00  0.00     0.237 C 
HETATM    9  C   UNL     1      43.734 -13.453   6.717  1.00  0.00     0.066 C 
HETATM   10  C   UNL     1      45.461 -11.609   6.865  1.00  0.00     0.041 C 
HETATM   11  C   UNL     1      45.250 -10.283   7.556  1.00  0.00     0.036 C 
ENDROOT
BRANCH   1  12
HETATM   12  C   UNL     1      43.186  -9.156   8.539  1.00  0.00     0.155 C 
BRANCH  12  13
HETATM   13  N   UNL     1      42.851  -9.100   9.947  1.00  0.00    -0.354 N 
HETATM   14  C   UNL     1      42.789  -7.885  10.613  1.00  0.00     0.253 C 
HETATM   15  O   UNL     1      43.075  -6.827  10.068  1.00  0.00    -0.268 OA
HETATM   16  H   UNL     1      42.507  -9.932  10.410  1.00  0.00     0.162 HD
BRANCH  14  17
HETATM   17  C   UNL     1      42.340  -7.976  12.032  1.00  0.00     0.053 A 
HETATM   18  C   UNL     1      41.045  -8.432  12.378  1.00  0.00     0.025 A 
HETATM   19  C   UNL     1      40.723  -8.474  13.749  1.00  0.00     0.025 A 
HETATM   20  C   UNL     1      41.635  -8.075  14.732  1.00  0.00     0.002 A 
HETATM   21  C   UNL     1      42.896  -7.616  14.372  1.00  0.00     0.001 A 
HETATM   22  C   UNL     1      43.249  -7.563  13.026  1.00  0.00     0.019 A 
BRANCH  18  23
HETATM   23  N   UNL     1      40.129  -8.871  11.403  1.00  0.00    -0.291 NA
HETATM   24  C   UNL     1      39.595 -10.201  11.685  1.00  0.00     0.116 C 
HETATM   25  C   UNL     1      39.135  -7.891  10.961  1.00  0.00     0.116 C 
ENDBRANCH  18  23
ENDBRANCH  14  17
ENDBRANCH  12  13
ENDBRANCH   1  12
BRANCH   6  26
HETATM   26  C   UNL     1      43.076 -14.551   3.833  1.00  0.00     0.235 C 
BRANCH  26  27
HETATM   27  C   UNL     1      42.392 -15.876   3.515  1.00  0.00     0.032 C 
BRANCH  27  28
HETATM   28  C   UNL     1      43.082 -16.694   2.423  1.00  0.00     0.040 C 
BRANCH  28  29
HETATM   29  C   UNL     1      43.425 -18.071   2.928  1.00  0.00    -0.058 A 
HETATM   30  C   UNL     1      43.203 -19.199   2.125  1.00  0.00     0.007 A 
HETATM   31  C   UNL     1      43.483 -20.478   2.609  1.00  0.00     0.001 A 
HETATM   32  C   UNL     1      43.983 -20.642   3.899  1.00  0.00     0.000 A 
HETATM   33  C   UNL     1      44.208 -19.529   4.705  1.00  0.00     0.001 A 
HETATM   34  C   UNL     1      43.930 -18.249   4.222  1.00  0.00     0.007 A 
ENDBRANCH  28  29
ENDBRANCH  27  28
ENDBRANCH  26  27
ENDBRANCH   6  26
TORSDOF 8
ENDMDL
MODEL 3
REMARK VINA RESULT:      -8.8      2.467      9.994
REMARK  8 active torsions:
REMARK  status: ('A' for Active; 'I' for Inactive)
REMARK    1  A    between atoms: N_2  and  C_3 
REMARK    2  A    between atoms: C_4  and  C_5 
REMARK       I    between atoms: C_5  and  N_6 
REMARK    3  A    between atoms: N_6  and  C_7 
REMARK    4  A    between atoms: C_7  and  C_8 
REMARK    5  A    between atoms: N_13  and  C_15 
REMARK    6  A    between atoms: C_15  and  C_16 
REMARK    7  A    between atoms: C_16  and  C_17 
REMARK    8  A    between atoms: C_17  and  C_18 
ROOT
HETATM    1  C   UNL     1      42.953 -10.528   6.576  1.00  0.00     0.140 C 
HETATM    2  O   UNL     1      43.133 -11.812   5.939  1.00  0.00    -0.373 OA
HETATM    3  C   UNL     1      41.907 -12.145   5.252  1.00  0.00     0.064 C 
HETATM    4  C   UNL     1      41.533 -13.572   5.669  1.00  0.00     0.066 C 
HETATM    5  C   UNL     1      42.529 -14.601   5.145  1.00  0.00     0.237 C 
HETATM    6  N   UNL     1      42.695 -14.482   3.641  1.00  0.00    -0.071 N 
HETATM    7  H   UNL     1      43.481 -15.105   3.414  1.00  0.00     0.279 HD
HETATM    8  C   UNL     1      43.172 -13.089   3.287  1.00  0.00     0.237 C 
HETATM    9  C   UNL     1      42.163 -12.051   3.744  1.00  0.00     0.066 C 
HETATM   10  C   UNL     1      40.859 -11.117   5.703  1.00  0.00     0.041 C 
HETATM   11  C   UNL     1      41.478 -10.499   6.934  1.00  0.00     0.036 C 
ENDROOT
BRANCH   1  12
HETATM   12  C   UNL     1      43.877 -10.371   7.785  1.00  0.00     0.155 C 
BRANCH  12  13
HETATM   13  N   UNL     1      43.300  -9.545   8.825  1.00  0.00    -0.354 N 
HETATM   14  C   UNL     1      43.352  -9.938  10.153  1.00  0.00     0.253 C 
HETATM   15  O   UNL     1      43.820 -11.015  10.498  1.00  0.00    -0.268 OA
HETATM   16  H   UNL     1      42.998  -8.604   8.602  1.00  0.00     0.162 HD
BRANCH  14  17
HETATM   17  C   UNL     1      42.803  -8.942  11.119  1.00  0.00     0.053 A 
HETATM   18  C   UNL     1      41.529  -8.354  10.941  1.00  0.00     0.025 A 
HETATM   19  C   UNL     1      41.110  -7.422  11.911  1.00  0.00     0.025 A 
HETATM   20  C   UNL     1      41.916  -7.082  13.002  1.00  0.00     0.002 A 
HETATM   21  C   UNL     1      43.171  -7.660  13.152  1.00  0.00     0.001 A 
HETATM   22  C   UNL     1      43.617  -8.586  12.212  1.00  0.00     0.019 A 
BRANCH  18  23
HETATM   23  N   UNL     1      40.690  -8.712   9.868  1.00  0.00    -0.291 NA
HETATM   24  C   UNL     1      39.612  -9.612  10.268  1.00  0.00     0.116 C 
HETATM   25  C   UNL     1      40.284  -7.627   8.974  1.00  0.00     0.116 C 
ENDBRANCH  18  23
ENDBRANCH  14  17
ENDBRANCH  12  13
ENDBRANCH   1  12
BRANCH   6  26
HETATM   26  C   UNL     1      41.496 -15.010   2.878  1.00  0.00     0.235 C 
BRANCH  26  27
HETATM   27  C   UNL     1      41.636 -16.457   2.420  1.00  0.00     0.032 C 
BRANCH  27  28
HETATM   28  C   UNL     1      43.069 -16.878   2.095  1.00  0.00     0.040 C 
BRANCH  28  29
HETATM   29  C   UNL     1      43.430 -18.145   2.827  1.00  0.00    -0.058 A 
HETATM   30  C   UNL     1      43.336 -19.388   2.185  1.00  0.00     0.007 A 
HETATM   31  C   UNL     1      43.631 -20.564   2.876  1.00  0.00     0.001 A 
HETATM   32  C   UNL     1      44.017 -20.510   4.214  1.00  0.00     0.000 A 
HETATM   33  C   UNL     1      44.114 -19.280   4.861  1.00  0.00     0.001 A 
HETATM   34  C   UNL     1      43.822 -18.102   4.171  1.00  0.00     0.007 A 
ENDBRANCH  28  29
ENDBRANCH  27  28
ENDBRANCH  26  27
ENDBRANCH   6  26
TORSDOF 8
ENDMDL
MODEL 4
REMARK VINA RESULT:      -8.8      2.189      9.906
REMARK  8 active torsions:
REMARK  status: ('A' for Active; 'I' for Inactive)
REMARK    1  A    between atoms: N_2  and  C_3 
REMARK    2  A    between atoms: C_4  and  C_5 
REMARK       I    between atoms: C_5  and  N_6 
REMARK    3  A    between atoms: N_6  and  C_7 
REMARK    4  A    between atoms: C_7  and  C_8 
REMARK    5  A    between atoms: N_13  and  C_15 
REMARK    6  A    between atoms: C_15  and  C_16 
REMARK    7  A    between atoms: C_16  and  C_17 
REMARK    8  A    between atoms: C_17  and  C_18 
ROOT
HETATM    1  C   UNL     1      42.944 -11.431   7.064  1.00  0.00     0.140 C 
HETATM    2  O   UNL     1      42.116 -12.163   6.133  1.00  0.00    -0.373 OA
HETATM    3  C   UNL     1      42.739 -13.443   5.893  1.00  0.00     0.064 C 
HETATM    4  C   UNL     1      42.805 -13.632   4.373  1.00  0.00     0.066 C 
HETATM    5  C   UNL     1      41.418 -13.785   3.755  1.00  0.00     0.237 C 
HETATM    6  N   UNL     1      40.644 -14.905   4.427  1.00  0.00    -0.071 N 
HETATM    7  H   UNL     1      39.691 -14.829   4.047  1.00  0.00     0.279 HD
HETATM    8  C   UNL     1      40.509 -14.619   5.907  1.00  0.00     0.237 C 
HETATM    9  C   UNL     1      41.880 -14.525   6.556  1.00  0.00     0.066 C 
HETATM   10  C   UNL     1      44.135 -13.377   6.528  1.00  0.00     0.041 C 
HETATM   11  C   UNL     1      44.353 -11.899   6.748  1.00  0.00     0.036 C 
ENDROOT
BRANCH   1  12
HETATM   12  C   UNL     1      42.754  -9.921   6.911  1.00  0.00     0.155 C 
BRANCH  12  13
HETATM   13  N   UNL     1      42.926  -9.208   8.160  1.00  0.00    -0.354 N 
HETATM   14  C   UNL     1      41.861  -9.038   9.032  1.00  0.00     0.253 C 
HETATM   15  O   UNL     1      40.729  -9.416   8.761  1.00  0.00    -0.268 OA
HETATM   16  H   UNL     1      43.860  -8.972   8.473  1.00  0.00     0.162 HD
BRANCH  14  17
HETATM   17  C   UNL     1      42.211  -8.370  10.318  1.00  0.00     0.053 A 
HETATM   18  C   UNL     1      43.120  -8.947  11.236  1.00  0.00     0.025 A 
HETATM   19  C   UNL     1      43.376  -8.233  12.424  1.00  0.00     0.025 A 
HETATM   20  C   UNL     1      42.755  -7.010  12.695  1.00  0.00     0.002 A 
HETATM   21  C   UNL     1      41.853  -6.466  11.788  1.00  0.00     0.001 A 
HETATM   22  C   UNL     1      41.578  -7.144  10.603  1.00  0.00     0.019 A 
BRANCH  18  23
HETATM   23  N   UNL     1      43.781 -10.161  10.962  1.00  0.00    -0.291 NA
HETATM   24  C   UNL     1      45.149  -9.966  10.488  1.00  0.00     0.116 C 
HETATM   25  C   UNL     1      43.621 -11.223  11.955  1.00  0.00     0.116 C 
ENDBRANCH  18  23
ENDBRANCH  14  17
ENDBRANCH  12  13
ENDBRANCH   1  12
BRANCH   6  26
HETATM   26  C   UNL     1      41.150 -16.280   4.038  1.00  0.00     0.235 C 
BRANCH  26  27
HETATM   27  C   UNL     1      41.626 -16.384   2.593  1.00  0.00     0.032 C 
BRANCH  27  28
HETATM   28  C   UNL     1      43.122 -16.665   2.443  1.00  0.00     0.040 C 
BRANCH  28  29
HETATM   29  C   UNL     1      43.449 -18.062   2.905  1.00  0.00    -0.058 A 
HETATM   30  C   UNL     1      43.126 -19.169   2.108  1.00  0.00     0.007 A 
HETATM   31  C   UNL     1      43.392 -20.464   2.555  1.00  0.00     0.001 A 
HETATM   32  C   UNL     1      43.978 -20.665   3.803  1.00  0.00     0.000 A 
HETATM   33  C   UNL     1      44.303 -19.572   4.603  1.00  0.00     0.001 A 
HETATM   34  C   UNL     1      44.040 -18.276   4.157  1.00  0.00     0.007 A 
ENDBRANCH  28  29
ENDBRANCH  27  28
ENDBRANCH  26  27
ENDBRANCH   6  26
TORSDOF 8
ENDMDL
MODEL 5
REMARK VINA RESULT:      -8.8      3.259      6.639
REMARK  8 active torsions:
REMARK  status: ('A' for Active; 'I' for Inactive)
REMARK    1  A    between atoms: N_2  and  C_3 
REMARK    2  A    between atoms: C_4  and  C_5 
REMARK       I    between atoms: C_5  and  N_6 
REMARK    3  A    between atoms: N_6  and  C_7 
REMARK    4  A    between atoms: C_7  and  C_8 
REMARK    5  A    between atoms: N_13  and  C_15 
REMARK    6  A    between atoms: C_15  and  C_16 
REMARK    7  A    between atoms: C_16  and  C_17 
REMARK    8  A    between atoms: C_17  and  C_18 
ROOT
HETATM    1  C   UNL     1      42.017 -14.632   6.778  1.00  0.00     0.140 C 
HETATM    2  O   UNL     1      42.528 -13.869   5.662  1.00  0.00    -0.373 OA
HETATM    3  C   UNL     1      41.436 -13.101   5.111  1.00  0.00     0.064 C 
HETATM    4  C   UNL     1      41.433 -13.347   3.598  1.00  0.00     0.066 C 
HETATM    5  C   UNL     1      42.666 -12.757   2.920  1.00  0.00     0.237 C 
HETATM    6  N   UNL     1      42.814 -11.282   3.249  1.00  0.00    -0.071 N 
HETATM    7  H   UNL     1      43.736 -11.022   2.874  1.00  0.00     0.279 HD
HETATM    8  C   UNL     1      42.925 -11.099   4.748  1.00  0.00     0.237 C 
HETATM    9  C   UNL     1      41.678 -11.623   5.439  1.00  0.00     0.066 C 
HETATM   10  C   UNL     1      40.155 -13.615   5.783  1.00  0.00     0.041 C 
HETATM   11  C   UNL     1      40.580 -14.930   6.392  1.00  0.00     0.036 C 
ENDROOT
BRANCH   1  12
HETATM   12  C   UNL     1      42.856 -15.888   7.023  1.00  0.00     0.155 C 
BRANCH  12  13
HETATM   13  N   UNL     1      42.797 -16.823   5.918  1.00  0.00    -0.354 N 
HETATM   14  C   UNL     1      43.957 -17.270   5.305  1.00  0.00     0.253 C 
HETATM   15  O   UNL     1      45.064 -16.852   5.619  1.00  0.00    -0.268 OA
HETATM   16  H   UNL     1      41.918 -17.274   5.695  1.00  0.00     0.162 HD
BRANCH  14  17
HETATM   17  C   UNL     1      43.745 -18.301   4.249  1.00  0.00     0.053 A 
HETATM   18  C   UNL     1      43.101 -17.995   3.026  1.00  0.00     0.025 A 
HETATM   19  C   UNL     1      42.949 -19.046   2.099  1.00  0.00     0.025 A 
HETATM   20  C   UNL     1      43.406 -20.339   2.371  1.00  0.00     0.002 A 
HETATM   21  C   UNL     1      44.023 -20.623   3.583  1.00  0.00     0.001 A 
HETATM   22  C   UNL     1      44.191 -19.609   4.522  1.00  0.00     0.019 A 
BRANCH  18  23
HETATM   23  N   UNL     1      42.667 -16.690   2.722  1.00  0.00    -0.291 NA
HETATM   24  C   UNL     1      43.443 -16.070   1.651  1.00  0.00     0.116 C 
HETATM   25  C   UNL     1      41.220 -16.496   2.624  1.00  0.00     0.116 C 
ENDBRANCH  18  23
ENDBRANCH  14  17
ENDBRANCH  12  13
ENDBRANCH   1  12
BRANCH   6  26
HETATM   26  C   UNL     1      41.800 -10.418   2.526  1.00  0.00     0.235 C 
BRANCH  26  27
HETATM   27  C   UNL     1      41.411 -10.934   1.145  1.00  0.00     0.032 C 
BRANCH  27  28
HETATM   28  C   UNL     1      39.903 -11.037   0.914  1.00  0.00     0.040 C 
BRANCH  28  29
HETATM   29  C   UNL     1      39.580 -12.217   0.035  1.00  0.00    -0.058 A 
HETATM   30  C   UNL     1      40.216 -13.450   0.238  1.00  0.00     0.007 A 
HETATM   31  C   UNL     1      39.947 -14.531  -0.603  1.00  0.00     0.001 A 
HETATM   32  C   UNL     1      39.044 -14.390  -1.655  1.00  0.00     0.000 A 
HETATM   33  C   UNL     1      38.406 -13.169  -1.865  1.00  0.00     0.001 A 
HETATM   34  C   UNL     1      38.672 -12.088  -1.024  1.00  0.00     0.007 A 
ENDBRANCH  28  29
ENDBRANCH  27  28
ENDBRANCH  26  27
ENDBRANCH   6  26
TORSDOF 8
ENDMDL
MODEL 6
REMARK VINA RESULT:      -8.6      1.516      2.137
REMARK  8 active torsions:
REMARK  status: ('A' for Active; 'I' for Inactive)
REMARK    1  A    between atoms: N_2  and  C_3 
REMARK    2  A    between atoms: C_4  and  C_5 
REMARK       I    between atoms: C_5  and  N_6 
REMARK    3  A    between atoms: N_6  and  C_7 
REMARK    4  A    between atoms: C_7  and  C_8 
REMARK    5  A    between atoms: N_13  and  C_15 
REMARK    6  A    between atoms: C_15  and  C_16 
REMARK    7  A    between atoms: C_16  and  C_17 
REMARK    8  A    between atoms: C_17  and  C_18 
ROOT
HETATM    1  C   UNL     1      41.094 -12.385   4.120  1.00  0.00     0.140 C 
HETATM    2  O   UNL     1      41.892 -12.290   5.321  1.00  0.00    -0.373 OA
HETATM    3  C   UNL     1      42.892 -11.270   5.112  1.00  0.00     0.064 C 
HETATM    4  C   UNL     1      44.242 -11.877   5.512  1.00  0.00     0.066 C 
HETATM    5  C   UNL     1      44.322 -12.158   7.009  1.00  0.00     0.237 C 
HETATM    6  N   UNL     1      44.007 -10.910   7.815  1.00  0.00    -0.071 N 
HETATM    7  H   UNL     1      43.942 -11.236   8.788  1.00  0.00     0.279 HD
HETATM    8  C   UNL     1      42.620 -10.412   7.467  1.00  0.00     0.237 C 
HETATM    9  C   UNL     1      42.537 -10.065   5.990  1.00  0.00     0.066 C 
HETATM   10  C   UNL     1      42.841 -10.904   3.622  1.00  0.00     0.041 C 
HETATM   11  C   UNL     1      42.067 -12.044   3.005  1.00  0.00     0.036 C 
ENDROOT
BRANCH   1  12
HETATM   12  C   UNL     1      40.464 -13.772   3.977  1.00  0.00     0.155 C 
BRANCH  12  13
HETATM   13  N   UNL     1      41.445 -14.805   3.714  1.00  0.00    -0.354 N 
HETATM   14  C   UNL     1      41.345 -16.048   4.319  1.00  0.00     0.253 C 
HETATM   15  O   UNL     1      40.476 -16.305   5.143  1.00  0.00    -0.268 OA
HETATM   16  H   UNL     1      42.115 -14.676   2.966  1.00  0.00     0.162 HD
BRANCH  14  17
HETATM   17  C   UNL     1      42.369 -17.039   3.880  1.00  0.00     0.053 A 
HETATM   18  C   UNL     1      43.415 -17.460   4.734  1.00  0.00     0.025 A 
HETATM   19  C   UNL     1      44.331 -18.398   4.216  1.00  0.00     0.025 A 
HETATM   20  C   UNL     1      44.222 -18.889   2.911  1.00  0.00     0.002 A 
HETATM   21  C   UNL     1      43.195 -18.453   2.083  1.00  0.00     0.001 A 
HETATM   22  C   UNL     1      42.272 -17.528   2.562  1.00  0.00     0.019 A 
BRANCH  18  23
HETATM   23  N   UNL     1      43.518 -17.002   6.062  1.00  0.00    -0.291 NA
HETATM   24  C   UNL     1      43.285 -18.056   7.045  1.00  0.00     0.116 C 
HETATM   25  C   UNL     1      44.653 -16.127   6.358  1.00  0.00     0.116 C 
ENDBRANCH  18  23
ENDBRANCH  14  17
ENDBRANCH  12  13
ENDBRANCH   1  12
BRANCH   6  26
HETATM   26  C   UNL     1      45.130  -9.893   7.778  1.00  0.00     0.235 C 
BRANCH  26  27
HETATM   27  C   UNL     1      45.207  -9.003   9.014  1.00  0.00     0.032 C 
BRANCH  27  28
HETATM   28  C   UNL     1      45.318  -9.769  10.333  1.00  0.00     0.040 C 
BRANCH  28  29
HETATM   29  C   UNL     1      44.114  -9.510  11.201  1.00  0.00    -0.058 A 
HETATM   30  C   UNL     1      43.433 -10.574  11.808  1.00  0.00     0.007 A 
HETATM   31  C   UNL     1      42.293 -10.336  12.579  1.00  0.00     0.001 A 
HETATM   32  C   UNL     1      41.821  -9.036  12.745  1.00  0.00     0.000 A 
HETATM   33  C   UNL     1      42.491  -7.971  12.146  1.00  0.00     0.001 A 
HETATM   34  C   UNL     1      43.632  -8.206  11.377  1.00  0.00     0.007 A 
ENDBRANCH  28  29
ENDBRANCH  27  28
ENDBRANCH  26  27
ENDBRANCH   6  26
TORSDOF 8
ENDMDL
MODEL 7
REMARK VINA RESULT:      -8.5      2.502     10.213
REMARK  8 active torsions:
REMARK  status: ('A' for Active; 'I' for Inactive)
REMARK    1  A    between atoms: N_2  and  C_3 
REMARK    2  A    between atoms: C_4  and  C_5 
REMARK       I    between atoms: C_5  and  N_6 
REMARK    3  A    between atoms: N_6  and  C_7 
REMARK    4  A    between atoms: C_7  and  C_8 
REMARK    5  A    between atoms: N_13  and  C_15 
REMARK    6  A    between atoms: C_15  and  C_16 
REMARK    7  A    between atoms: C_16  and  C_17 
REMARK    8  A    between atoms: C_17  and  C_18 
ROOT
HETATM    1  C   UNL     1      42.911 -11.491   7.190  1.00  0.00     0.140 C 
HETATM    2  O   UNL     1      42.066 -12.201   6.257  1.00  0.00    -0.373 OA
HETATM    3  C   UNL     1      42.726 -13.437   5.908  1.00  0.00     0.064 C 
HETATM    4  C   UNL     1      42.722 -13.532   4.378  1.00  0.00     0.066 C 
HETATM    5  C   UNL     1      41.313 -13.707   3.820  1.00  0.00     0.237 C 
HETATM    6  N   UNL     1      40.619 -14.896   4.458  1.00  0.00    -0.071 N 
HETATM    7  H   UNL     1      39.645 -14.838   4.131  1.00  0.00     0.279 HD
HETATM    8  C   UNL     1      40.548 -14.705   5.958  1.00  0.00     0.237 C 
HETATM    9  C   UNL     1      41.945 -14.592   6.544  1.00  0.00     0.066 C 
HETATM   10  C   UNL     1      44.149 -13.350   6.478  1.00  0.00     0.041 C 
HETATM   11  C   UNL     1      44.320 -11.880   6.778  1.00  0.00     0.036 C 
ENDROOT
BRANCH   1  12
HETATM   12  C   UNL     1      42.655  -9.984   7.140  1.00  0.00     0.155 C 
BRANCH  12  13
HETATM   13  N   UNL     1      42.449  -9.410   8.453  1.00  0.00    -0.354 N 
HETATM   14  C   UNL     1      43.447  -8.668   9.067  1.00  0.00     0.253 C 
HETATM   15  O   UNL     1      44.555  -8.523   8.565  1.00  0.00    -0.268 OA
HETATM   16  H   UNL     1      41.521  -9.413   8.858  1.00  0.00     0.162 HD
BRANCH  14  17
HETATM   17  C   UNL     1      43.058  -8.060  10.371  1.00  0.00     0.053 A 
HETATM   18  C   UNL     1      42.145  -6.982  10.450  1.00  0.00     0.025 A 
HETATM   19  C   UNL     1      41.851  -6.481  11.734  1.00  0.00     0.025 A 
HETATM   20  C   UNL     1      42.438  -7.015  12.885  1.00  0.00     0.002 A 
HETATM   21  C   UNL     1      43.343  -8.064  12.786  1.00  0.00     0.001 A 
HETATM   22  C   UNL     1      43.657  -8.585  11.533  1.00  0.00     0.019 A 
BRANCH  18  23
HETATM   23  N   UNL     1      41.518  -6.456   9.304  1.00  0.00    -0.291 NA
HETATM   24  C   UNL     1      40.107  -6.824   9.210  1.00  0.00     0.116 C 
HETATM   25  C   UNL     1      41.809  -5.057   8.991  1.00  0.00     0.116 C 
ENDBRANCH  18  23
ENDBRANCH  14  17
ENDBRANCH  12  13
ENDBRANCH   1  12
BRANCH   6  26
HETATM   26  C   UNL     1      41.158 -16.223   3.961  1.00  0.00     0.235 C 
BRANCH  26  27
HETATM   27  C   UNL     1      41.606 -16.208   2.504  1.00  0.00     0.032 C 
BRANCH  27  28
HETATM   28  C   UNL     1      43.078 -16.569   2.296  1.00  0.00     0.040 C 
BRANCH  28  29
HETATM   29  C   UNL     1      43.369 -17.944   2.837  1.00  0.00    -0.058 A 
HETATM   30  C   UNL     1      43.990 -18.100   4.085  1.00  0.00     0.007 A 
HETATM   31  C   UNL     1      44.297 -19.374   4.567  1.00  0.00     0.001 A 
HETATM   32  C   UNL     1      43.991 -20.501   3.807  1.00  0.00     0.000 A 
HETATM   33  C   UNL     1      43.374 -20.357   2.566  1.00  0.00     0.001 A 
HETATM   34  C   UNL     1      43.064 -19.085   2.083  1.00  0.00     0.007 A 
ENDBRANCH  28  29
ENDBRANCH  27  28
ENDBRANCH  26  27
ENDBRANCH   6  26
TORSDOF 8
ENDMDL
MODEL 8
REMARK VINA RESULT:      -8.4      1.990      9.088
REMARK  8 active torsions:
REMARK  status: ('A' for Active; 'I' for Inactive)
REMARK    1  A    between atoms: N_2  and  C_3 
REMARK    2  A    between atoms: C_4  and  C_5 
REMARK       I    between atoms: C_5  and  N_6 
REMARK    3  A    between atoms: N_6  and  C_7 
REMARK    4  A    between atoms: C_7  and  C_8 
REMARK    5  A    between atoms: N_13  and  C_15 
REMARK    6  A    between atoms: C_15  and  C_16 
REMARK    7  A    between atoms: C_16  and  C_17 
REMARK    8  A    between atoms: C_17  and  C_18 
ROOT
HETATM    1  C   UNL     1      40.236 -10.622   5.242  1.00  0.00     0.140 C 
HETATM    2  O   UNL     1      41.101 -11.345   4.337  1.00  0.00    -0.373 OA
HETATM    3  C   UNL     1      40.732 -12.740   4.386  1.00  0.00     0.064 C 
HETATM    4  C   UNL     1      42.023 -13.538   4.601  1.00  0.00     0.066 C 
HETATM    5  C   UNL     1      42.954 -13.455   3.396  1.00  0.00     0.237 C 
HETATM    6  N   UNL     1      42.238 -13.877   2.125  1.00  0.00    -0.071 N 
HETATM    7  H   UNL     1      42.894 -13.646   1.366  1.00  0.00     0.279 HD
HETATM    8  C   UNL     1      41.034 -12.988   1.896  1.00  0.00     0.237 C 
HETATM    9  C   UNL     1      40.062 -13.104   3.057  1.00  0.00     0.066 C 
HETATM   10  C   UNL     1      39.755 -12.894   5.561  1.00  0.00     0.041 C 
HETATM   11  C   UNL     1      39.947 -11.620   6.349  1.00  0.00     0.036 C 
ENDROOT
BRANCH   1  12
HETATM   12  C   UNL     1      40.899  -9.336   5.738  1.00  0.00     0.155 C 
BRANCH  12  13
HETATM   13  N   UNL     1      41.715  -9.548   6.915  1.00  0.00    -0.354 N 
HETATM   14  C   UNL     1      42.460  -8.511   7.457  1.00  0.00     0.253 C 
HETATM   15  O   UNL     1      42.515  -7.405   6.936  1.00  0.00    -0.268 OA
HETATM   16  H   UNL     1      41.620 -10.409   7.438  1.00  0.00     0.162 HD
BRANCH  14  17
HETATM   17  C   UNL     1      43.174  -8.852   8.721  1.00  0.00     0.053 A 
HETATM   18  C   UNL     1      44.112  -9.909   8.787  1.00  0.00     0.025 A 
HETATM   19  C   UNL     1      44.726 -10.147  10.033  1.00  0.00     0.025 A 
HETATM   20  C   UNL     1      44.419  -9.383  11.163  1.00  0.00     0.002 A 
HETATM   21  C   UNL     1      43.484  -8.358  11.082  1.00  0.00     0.001 A 
HETATM   22  C   UNL     1      42.859  -8.094   9.866  1.00  0.00     0.019 A 
BRANCH  18  23
HETATM   23  N   UNL     1      44.459 -10.665   7.650  1.00  0.00    -0.291 NA
HETATM   24  C   UNL     1      45.876 -10.565   7.313  1.00  0.00     0.116 C 
HETATM   25  C   UNL     1      43.904 -12.017   7.579  1.00  0.00     0.116 C 
ENDBRANCH  18  23
ENDBRANCH  14  17
ENDBRANCH  12  13
ENDBRANCH   1  12
BRANCH   6  26
HETATM   26  C   UNL     1      42.009 -15.373   2.053  1.00  0.00     0.235 C 
BRANCH  26  27
HETATM   27  C   UNL     1      43.196 -16.209   2.518  1.00  0.00     0.032 C 
BRANCH  27  28
HETATM   28  C   UNL     1      43.262 -17.606   1.899  1.00  0.00     0.040 C 
BRANCH  28  29
HETATM   29  C   UNL     1      43.528 -18.644   2.959  1.00  0.00    -0.058 A 
HETATM   30  C   UNL     1      43.760 -18.261   4.287  1.00  0.00     0.007 A 
HETATM   31  C   UNL     1      44.047 -19.220   5.260  1.00  0.00     0.001 A 
HETATM   32  C   UNL     1      44.107 -20.568   4.915  1.00  0.00     0.000 A 
HETATM   33  C   UNL     1      43.877 -20.960   3.598  1.00  0.00     0.001 A 
HETATM   34  C   UNL     1      43.589 -20.003   2.624  1.00  0.00     0.007 A 
ENDBRANCH  28  29
ENDBRANCH  27  28
ENDBRANCH  26  27
ENDBRANCH   6  26
TORSDOF 8
ENDMDL
MODEL 9
REMARK VINA RESULT:      -8.2      4.886      7.687
REMARK  8 active torsions:
REMARK  status: ('A' for Active; 'I' for Inactive)
REMARK    1  A    between atoms: N_2  and  C_3 
REMARK    2  A    between atoms: C_4  and  C_5 
REMARK       I    between atoms: C_5  and  N_6 
REMARK    3  A    between atoms: N_6  and  C_7 
REMARK    4  A    between atoms: C_7  and  C_8 
REMARK    5  A    between atoms: N_13  and  C_15 
REMARK    6  A    between atoms: C_15  and  C_16 
REMARK    7  A    between atoms: C_16  and  C_17 
REMARK    8  A    between atoms: C_17  and  C_18 
ROOT
HETATM    1  C   UNL     1      40.075 -14.281   2.973  1.00  0.00     0.140 C 
HETATM    2  O   UNL     1      40.353 -12.919   2.577  1.00  0.00    -0.373 OA
HETATM    3  C   UNL     1      39.989 -12.776   1.187  1.00  0.00     0.064 C 
HETATM    4  C   UNL     1      41.181 -12.125   0.476  1.00  0.00     0.066 C 
HETATM    5  C   UNL     1      41.407 -10.688   0.939  1.00  0.00     0.237 C 
HETATM    6  N   UNL     1      40.143  -9.862   0.786  1.00  0.00    -0.071 N 
HETATM    7  H   UNL     1      40.354  -8.971   1.255  1.00  0.00     0.279 HD
HETATM    8  C   UNL     1      39.024 -10.484   1.595  1.00  0.00     0.237 C 
HETATM    9  C   UNL     1      38.739 -11.894   1.108  1.00  0.00     0.066 C 
HETATM   10  C   UNL     1      39.705 -14.190   0.660  1.00  0.00     0.041 C 
HETATM   11  C   UNL     1      40.317 -15.087   1.709  1.00  0.00     0.036 C 
ENDROOT
BRANCH   1  12
HETATM   12  C   UNL     1      40.956 -14.710   4.148  1.00  0.00     0.155 C 
BRANCH  12  13
HETATM   13  N   UNL     1      41.468 -16.057   3.998  1.00  0.00    -0.354 N 
HETATM   14  C   UNL     1      42.733 -16.280   3.478  1.00  0.00     0.253 C 
HETATM   15  O   UNL     1      43.440 -15.370   3.065  1.00  0.00    -0.268 OA
HETATM   16  H   UNL     1      40.967 -16.829   4.420  1.00  0.00     0.162 HD
BRANCH  14  17
HETATM   17  C   UNL     1      43.161 -17.709   3.474  1.00  0.00     0.053 A 
HETATM   18  C   UNL     1      43.641 -18.348   4.642  1.00  0.00     0.025 A 
HETATM   19  C   UNL     1      44.022 -19.700   4.524  1.00  0.00     0.025 A 
HETATM   20  C   UNL     1      43.941 -20.384   3.308  1.00  0.00     0.002 A 
HETATM   21  C   UNL     1      43.482 -19.735   2.169  1.00  0.00     0.001 A 
HETATM   22  C   UNL     1      43.095 -18.400   2.248  1.00  0.00     0.019 A 
BRANCH  18  23
HETATM   23  N   UNL     1      43.694 -17.683   5.882  1.00  0.00    -0.291 NA
HETATM   24  C   UNL     1      43.459 -18.575   7.014  1.00  0.00     0.116 C 
HETATM   25  C   UNL     1      44.798 -16.740   6.063  1.00  0.00     0.116 C 
ENDBRANCH  18  23
ENDBRANCH  14  17
ENDBRANCH  12  13
ENDBRANCH   1  12
BRANCH   6  26
HETATM   26  C   UNL     1      39.838  -9.523  -0.659  1.00  0.00     0.235 C 
BRANCH  26  27
HETATM   27  C   UNL     1      40.956  -9.878  -1.633  1.00  0.00     0.032 C 
BRANCH  27  28
HETATM   28  C   UNL     1      40.470 -10.334  -3.009  1.00  0.00     0.040 C 
BRANCH  28  29
HETATM   29  C   UNL     1      39.808 -11.684  -2.918  1.00  0.00    -0.058 A 
HETATM   30  C   UNL     1      38.425 -11.786  -2.711  1.00  0.00     0.007 A 
HETATM   31  C   UNL     1      37.819 -13.037  -2.586  1.00  0.00     0.001 A 
HETATM   32  C   UNL     1      38.589 -14.197  -2.661  1.00  0.00     0.000 A 
HETATM   33  C   UNL     1      39.964 -14.107  -2.867  1.00  0.00     0.001 A 
HETATM   34  C   UNL     1      40.571 -12.857  -2.995  1.00  0.00     0.007 A 
ENDBRANCH  28  29
ENDBRANCH  27  28
ENDBRANCH  26  27
ENDBRANCH   6  26
TORSDOF 8
ENDMDL
MODEL 10
REMARK VINA RESULT:      -7.9      3.520      6.341
REMARK  8 active torsions:
REMARK  status: ('A' for Active; 'I' for Inactive)
REMARK    1  A    between atoms: N_2  and  C_3 
REMARK    2  A    between atoms: C_4  and  C_5 
REMARK       I    between atoms: C_5  and  N_6 
REMARK    3  A    between atoms: N_6  and  C_7 
REMARK    4  A    between atoms: C_7  and  C_8 
REMARK    5  A    between atoms: N_13  and  C_15 
REMARK    6  A    between atoms: C_15  and  C_16 
REMARK    7  A    between atoms: C_16  and  C_17 
REMARK    8  A    between atoms: C_17  and  C_18 
ROOT
HETATM    1  C   UNL     1      41.800 -13.962   6.312  1.00  0.00     0.140 C 
HETATM    2  O   UNL     1      42.266 -13.202   5.174  1.00  0.00    -0.373 OA
HETATM    3  C   UNL     1      41.122 -12.560   4.570  1.00  0.00     0.064 C 
HETATM    4  C   UNL     1      41.177 -12.868   3.068  1.00  0.00     0.066 C 
HETATM    5  C   UNL     1      42.366 -12.196   2.390  1.00  0.00     0.237 C 
HETATM    6  N   UNL     1      42.373 -10.701   2.658  1.00  0.00    -0.071 N 
HETATM    7  H   UNL     1      43.276 -10.373   2.290  1.00  0.00     0.279 HD
HETATM    8  C   UNL     1      42.432 -10.448   4.149  1.00  0.00     0.237 C 
HETATM    9  C   UNL     1      41.221 -11.055   4.837  1.00  0.00     0.066 C 
HETATM   10  C   UNL     1      39.877 -13.162   5.238  1.00  0.00     0.041 C 
HETATM   11  C   UNL     1      40.405 -14.406   5.911  1.00  0.00     0.036 C 
ENDROOT
BRANCH   1  12
HETATM   12  C   UNL     1      42.743 -15.125   6.627  1.00  0.00     0.155 C 
BRANCH  12  13
HETATM   13  N   UNL     1      42.739 -16.142   5.596  1.00  0.00    -0.354 N 
HETATM   14  C   UNL     1      43.891 -16.854   5.298  1.00  0.00     0.253 C 
HETATM   15  O   UNL     1      44.964 -16.615   5.836  1.00  0.00    -0.268 OA
HETATM   16  H   UNL     1      41.858 -16.446   5.201  1.00  0.00     0.162 HD
BRANCH  14  17
HETATM   17  C   UNL     1      43.711 -17.932   4.284  1.00  0.00     0.053 A 
HETATM   18  C   UNL     1      43.075 -17.691   3.043  1.00  0.00     0.025 A 
HETATM   19  C   UNL     1      42.955 -18.783   2.160  1.00  0.00     0.025 A 
HETATM   20  C   UNL     1      43.433 -20.054   2.491  1.00  0.00     0.002 A 
HETATM   21  C   UNL     1      44.043 -20.274   3.720  1.00  0.00     0.001 A 
HETATM   22  C   UNL     1      44.180 -19.218   4.617  1.00  0.00     0.019 A 
BRANCH  18  23
HETATM   23  N   UNL     1      42.619 -16.409   2.680  1.00  0.00    -0.291 NA
HETATM   24  C   UNL     1      43.500 -15.745   1.722  1.00  0.00     0.116 C 
HETATM   25  C   UNL     1      41.191 -16.289   2.386  1.00  0.00     0.116 C 
ENDBRANCH  18  23
ENDBRANCH  14  17
ENDBRANCH  12  13
ENDBRANCH   1  12
BRANCH   6  26
HETATM   26  C   UNL     1      41.302  -9.964   1.879  1.00  0.00     0.235 C 
BRANCH  26  27
HETATM   27  C   UNL     1      41.534  -9.935   0.372  1.00  0.00     0.032 C 
BRANCH  27  28
HETATM   28  C   UNL     1      40.611 -10.858  -0.424  1.00  0.00     0.040 C 
BRANCH  28  29
HETATM   29  C   UNL     1      39.171 -10.628  -0.042  1.00  0.00    -0.058 A 
HETATM   30  C   UNL     1      38.476  -9.512  -0.528  1.00  0.00     0.007 A 
HETATM   31  C   UNL     1      37.155  -9.278  -0.141  1.00  0.00     0.001 A 
HETATM   32  C   UNL     1      36.520 -10.152   0.738  1.00  0.00     0.000 A 
HETATM   33  C   UNL     1      37.202 -11.264   1.228  1.00  0.00     0.001 A 
HETATM   34  C   UNL     1      38.522 -11.501   0.840  1.00  0.00     0.007 A 
ENDBRANCH  28  29
ENDBRANCH  27  28
ENDBRANCH  26  27
ENDBRANCH   6  26
TORSDOF 8
ENDMDL
