MODEL 1
REMARK VINA RESULT:      -8.8      0.000      0.000
REMARK  9 active torsions:
REMARK  status: ('A' for Active; 'I' for Inactive)
REMARK       I    between atoms: C_2  and  N_3 
REMARK    1  A    between atoms: N_3  and  C_4 
REMARK    2  A    between atoms: C_6  and  O_7 
REMARK    3  A    between atoms: O_7  and  C_8 
REMARK    4  A    between atoms: C_8  and  C_9 
REMARK    5  A    between atoms: C_9  and  C_10 
REMARK    6  A    between atoms: C_10  and  C_11 
REMARK    7  A    between atoms: C_11  and  N_12 
REMARK       I    between atoms: N_12  and  C_13 
REMARK    8  A    between atoms: C_13  and  C_14 
REMARK    9  A    between atoms: C_18  and  C_19 
ROOT
HETATM    1  C   UNL     1      44.269 -12.307   6.785  1.00  0.00     0.217 C 
ENDROOT
BRANCH   1   2
HETATM    2  C   UNL     1      43.783 -13.746   6.856  1.00  0.00    -0.085 C 
BRANCH   2   3
HETATM    3  C   UNL     1      43.367 -14.980   6.918  1.00  0.00    -0.078 C 
BRANCH   3   4
HETATM    4  C   UNL     1      42.881 -16.418   6.990  1.00  0.00     0.269 C 
BRANCH   4   5
HETATM    5  O   UNL     1      43.785 -17.276   6.301  1.00  0.00    -0.339 OA
BRANCH   5   6
HETATM    6  C   UNL     1      43.488 -17.520   4.984  1.00  0.00     0.072 A 
HETATM    7  C   UNL     1      42.507 -16.863   4.229  1.00  0.00     0.066 A 
HETATM    8  C   UNL     1      42.302 -17.184   2.883  1.00  0.00     0.037 A 
HETATM    9  C   UNL     1      43.084 -18.187   2.298  1.00  0.00     0.029 A 
HETATM   10  C   UNL     1      44.058 -18.851   3.045  1.00  0.00     0.005 A 
HETATM   11  C   UNL     1      44.259 -18.516   4.383  1.00  0.00     0.037 A 
BRANCH   8  12
HETATM   12  N   UNL     1      41.342 -16.550   2.063  1.00  0.00    -0.327 N 
HETATM   13  C   UNL     1      41.429 -15.302   1.472  1.00  0.00     0.218 C 
HETATM   14  C   UNL     1      40.211 -14.961   0.649  1.00  0.00     0.117 C 
HETATM   15  O   UNL     1      42.374 -14.521   1.536  1.00  0.00    -0.274 OA
HETATM   16  H   UNL     1      40.504 -17.085   1.874  1.00  0.00     0.169 HD
ENDBRANCH   8  12
ENDBRANCH   5   6
ENDBRANCH   4   5
ENDBRANCH   3   4
ENDBRANCH   2   3
ENDBRANCH   1   2
BRANCH   1  17
HETATM   17  N   UNL     1      43.646 -11.564   7.848  1.00  0.00    -0.345 N 
HETATM   18  C   UNL     1      44.391 -10.925   8.805  1.00  0.00     0.270 C 
HETATM   19  O   UNL     1      45.618 -10.910   8.788  1.00  0.00    -0.266 OA
HETATM   20  H   UNL     1      42.648 -11.642   7.958  1.00  0.00     0.163 HD
BRANCH  18  21
HETATM   21  C   UNL     1      43.631 -10.279   9.840  1.00  0.00     0.120 A 
HETATM   22  N   UNL     1      42.314  -9.959   9.670  1.00  0.00    -0.272 N 
HETATM   23  H   UNL     1      41.748 -10.136   8.845  1.00  0.00     0.189 HD
HETATM   24  N   UNL     1      41.756  -9.338  10.719  1.00  0.00    -0.174 NA
HETATM   25  C   UNL     1      42.736  -9.265  11.633  1.00  0.00     0.089 A 
HETATM   26  C   UNL     1      43.930  -9.848  11.119  1.00  0.00     0.071 A 
BRANCH  25  27
HETATM   27  C   UNL     1      42.526  -8.643  12.945  1.00  0.00    -0.006 A 
HETATM   28  C   UNL     1      43.302  -7.554  13.368  1.00  0.00     0.014 A 
HETATM   29  C   UNL     1      43.082  -6.960  14.616  1.00  0.00     0.001 A 
HETATM   30  C   UNL     1      42.084  -7.449  15.456  1.00  0.00     0.000 A 
HETATM   31  C   UNL     1      41.308  -8.533  15.054  1.00  0.00     0.001 A 
HETATM   32  C   UNL     1      41.529  -9.127  13.809  1.00  0.00     0.014 A 
ENDBRANCH  25  27
ENDBRANCH  18  21
ENDBRANCH   1  17
TORSDOF 9
ENDMDL
MODEL 2
REMARK VINA RESULT:      -8.6      1.601      2.850
REMARK  9 active torsions:
REMARK  status: ('A' for Active; 'I' for Inactive)
REMARK       I    between atoms: C_2  and  N_3 
REMARK    1  A    between atoms: N_3  and  C_4 
REMARK    2  A    between atoms: C_6  and  O_7 
REMARK    3  A    between atoms: O_7  and  C_8 
REMARK    4  A    between atoms: C_8  and  C_9 
REMARK    5  A    between atoms: C_9  and  C_10 
REMARK    6  A    between atoms: C_10  and  C_11 
REMARK    7  A    between atoms: C_11  and  N_12 
REMARK       I    between atoms: N_12  and  C_13 
REMARK    8  A    between atoms: C_13  and  C_14 
REMARK    9  A    between atoms: C_18  and  C_19 
ROOT
HETATM    1  C   UNL     1      43.781 -11.786   7.014  1.00  0.00     0.217 C 
ENDROOT
BRANCH   1   2
HETATM    2  C   UNL     1      42.752 -12.782   6.503  1.00  0.00    -0.085 C 
BRANCH   2   3
HETATM    3  C   UNL     1      41.870 -13.635   6.065  1.00  0.00    -0.078 C 
BRANCH   3   4
HETATM    4  C   UNL     1      40.841 -14.630   5.553  1.00  0.00     0.269 C 
BRANCH   4   5
HETATM    5  O   UNL     1      40.646 -14.457   4.153  1.00  0.00    -0.339 OA
BRANCH   5   6
HETATM    6  C   UNL     1      41.561 -15.081   3.343  1.00  0.00     0.072 A 
HETATM    7  C   UNL     1      41.729 -16.466   3.210  1.00  0.00     0.066 A 
HETATM    8  C   UNL     1      42.687 -16.993   2.338  1.00  0.00     0.037 A 
HETATM    9  C   UNL     1      43.492 -16.114   1.604  1.00  0.00     0.029 A 
HETATM   10  C   UNL     1      43.335 -14.733   1.735  1.00  0.00     0.005 A 
HETATM   11  C   UNL     1      42.371 -14.221   2.601  1.00  0.00     0.037 A 
BRANCH   8  12
HETATM   12  N   UNL     1      42.897 -18.377   2.146  1.00  0.00    -0.327 N 
HETATM   13  C   UNL     1      43.790 -19.195   2.814  1.00  0.00     0.218 C 
HETATM   14  C   UNL     1      43.725 -20.629   2.349  1.00  0.00     0.117 C 
HETATM   15  O   UNL     1      44.554 -18.869   3.718  1.00  0.00    -0.274 OA
HETATM   16  H   UNL     1      42.308 -18.818   1.450  1.00  0.00     0.169 HD
ENDBRANCH   8  12
ENDBRANCH   5   6
ENDBRANCH   4   5
ENDBRANCH   3   4
ENDBRANCH   2   3
ENDBRANCH   1   2
BRANCH   1  17
HETATM   17  N   UNL     1      43.223 -11.095   8.147  1.00  0.00    -0.345 N 
HETATM   18  C   UNL     1      44.006 -10.699   9.199  1.00  0.00     0.270 C 
HETATM   19  O   UNL     1      45.221 -10.865   9.220  1.00  0.00    -0.266 OA
HETATM   20  H   UNL     1      42.219 -11.036   8.216  1.00  0.00     0.163 HD
BRANCH  18  21
HETATM   21  C   UNL     1      43.299 -10.079  10.287  1.00  0.00     0.120 A 
HETATM   22  N   UNL     1      41.944  -9.900  10.253  1.00  0.00    -0.272 N 
HETATM   23  H   UNL     1      41.314 -10.173   9.504  1.00  0.00     0.189 HD
HETATM   24  N   UNL     1      41.442  -9.285  11.333  1.00  0.00    -0.174 NA
HETATM   25  C   UNL     1      42.502  -9.070  12.128  1.00  0.00     0.089 A 
HETATM   26  C   UNL     1      43.687  -9.557  11.506  1.00  0.00     0.071 A 
BRANCH  25  27
HETATM   27  C   UNL     1      42.370  -8.406  13.430  1.00  0.00    -0.006 A 
HETATM   28  C   UNL     1      41.408  -8.818  14.365  1.00  0.00     0.014 A 
HETATM   29  C   UNL     1      41.303  -8.187  15.608  1.00  0.00     0.001 A 
HETATM   30  C   UNL     1      42.157  -7.136  15.933  1.00  0.00     0.000 A 
HETATM   31  C   UNL     1      43.114  -6.710  15.015  1.00  0.00     0.001 A 
HETATM   32  C   UNL     1      43.218  -7.340  13.772  1.00  0.00     0.014 A 
ENDBRANCH  25  27
ENDBRANCH  18  21
ENDBRANCH   1  17
TORSDOF 9
ENDMDL
MODEL 3
REMARK VINA RESULT:      -8.5      1.810      3.067
REMARK  9 active torsions:
REMARK  status: ('A' for Active; 'I' for Inactive)
REMARK       I    between atoms: C_2  and  N_3 
REMARK    1  A    between atoms: N_3  and  C_4 
REMARK    2  A    between atoms: C_6  and  O_7 
REMARK    3  A    between atoms: O_7  and  C_8 
REMARK    4  A    between atoms: C_8  and  C_9 
REMARK    5  A    between atoms: C_9  and  C_10 
REMARK    6  A    between atoms: C_10  and  C_11 
REMARK    7  A    between atoms: C_11  and  N_12 
REMARK       I    between atoms: N_12  and  C_13 
REMARK    8  A    between atoms: C_13  and  C_14 
REMARK    9  A    between atoms: C_18  and  C_19 
ROOT
HETATM    1  C   UNL     1      45.704 -11.239   6.830  1.00  0.00     0.217 C 
ENDROOT
BRANCH   1   2
HETATM    2  C   UNL     1      44.799 -11.476   5.632  1.00  0.00    -0.085 C 
BRANCH   2   3
HETATM    3  C   UNL     1      44.024 -11.681   4.605  1.00  0.00    -0.078 C 
BRANCH   3   4
HETATM    4  C   UNL     1      43.120 -11.919   3.406  1.00  0.00     0.269 C 
BRANCH   4   5
HETATM    5  O   UNL     1      43.564 -13.058   2.676  1.00  0.00    -0.339 OA
BRANCH   5   6
HETATM    6  C   UNL     1      42.878 -14.222   2.913  1.00  0.00     0.072 A 
HETATM    7  C   UNL     1      43.209 -15.487   2.409  1.00  0.00     0.066 A 
HETATM    8  C   UNL     1      42.444 -16.612   2.732  1.00  0.00     0.037 A 
HETATM    9  C   UNL     1      41.326 -16.457   3.561  1.00  0.00     0.029 A 
HETATM   10  C   UNL     1      40.986 -15.200   4.063  1.00  0.00     0.005 A 
HETATM   11  C   UNL     1      41.762 -14.088   3.741  1.00  0.00     0.037 A 
BRANCH   8  12
HETATM   12  N   UNL     1      42.731 -17.916   2.269  1.00  0.00    -0.327 N 
HETATM   13  C   UNL     1      43.595 -18.839   2.832  1.00  0.00     0.218 C 
HETATM   14  C   UNL     1      43.636 -20.139   2.066  1.00  0.00     0.117 C 
HETATM   15  O   UNL     1      44.258 -18.700   3.855  1.00  0.00    -0.274 OA
HETATM   16  H   UNL     1      42.229 -18.208   1.441  1.00  0.00     0.169 HD
ENDBRANCH   8  12
ENDBRANCH   5   6
ENDBRANCH   4   5
ENDBRANCH   3   4
ENDBRANCH   2   3
ENDBRANCH   1   2
BRANCH   1  17
HETATM   17  N   UNL     1      44.882 -10.911   7.964  1.00  0.00    -0.345 N 
HETATM   18  C   UNL     1      45.205  -9.880   8.807  1.00  0.00     0.270 C 
HETATM   19  O   UNL     1      46.177  -9.154   8.624  1.00  0.00    -0.266 OA
HETATM   20  H   UNL     1      44.139 -11.547   8.209  1.00  0.00     0.163 HD
BRANCH  18  21
HETATM   21  C   UNL     1      44.326  -9.713   9.933  1.00  0.00     0.120 A 
HETATM   22  N   UNL     1      43.172 -10.435  10.056  1.00  0.00    -0.272 N 
HETATM   23  H   UNL     1      42.824 -11.138   9.410  1.00  0.00     0.189 HD
HETATM   24  N   UNL     1      42.453 -10.144  11.149  1.00  0.00    -0.174 NA
HETATM   25  C   UNL     1      43.170  -9.208  11.791  1.00  0.00     0.089 A 
HETATM   26  C   UNL     1      44.355  -8.913  11.059  1.00  0.00     0.071 A 
BRANCH  25  27
HETATM   27  C   UNL     1      42.715  -8.617  13.055  1.00  0.00    -0.006 A 
HETATM   28  C   UNL     1      43.344  -7.487  13.598  1.00  0.00     0.014 A 
HETATM   29  C   UNL     1      42.892  -6.923  14.796  1.00  0.00     0.001 A 
HETATM   30  C   UNL     1      41.807  -7.483  15.466  1.00  0.00     0.000 A 
HETATM   31  C   UNL     1      41.175  -8.608  14.943  1.00  0.00     0.001 A 
HETATM   32  C   UNL     1      41.627  -9.172  13.748  1.00  0.00     0.014 A 
ENDBRANCH  25  27
ENDBRANCH  18  21
ENDBRANCH   1  17
TORSDOF 9
ENDMDL
MODEL 4
REMARK VINA RESULT:      -8.3      2.282     11.472
REMARK  9 active torsions:
REMARK  status: ('A' for Active; 'I' for Inactive)
REMARK       I    between atoms: C_2  and  N_3 
REMARK    1  A    between atoms: N_3  and  C_4 
REMARK    2  A    between atoms: C_6  and  O_7 
REMARK    3  A    between atoms: O_7  and  C_8 
REMARK    4  A    between atoms: C_8  and  C_9 
REMARK    5  A    between atoms: C_9  and  C_10 
REMARK    6  A    between atoms: C_10  and  C_11 
REMARK    7  A    between atoms: C_11  and  N_12 
REMARK       I    between atoms: N_12  and  C_13 
REMARK    8  A    between atoms: C_13  and  C_14 
REMARK    9  A    between atoms: C_18  and  C_19 
ROOT
HETATM    1  C   UNL     1      42.371 -11.954   5.934  1.00  0.00     0.217 C 
ENDROOT
BRANCH   1   2
HETATM    2  C   UNL     1      43.620 -11.452   6.642  1.00  0.00    -0.085 C 
BRANCH   2   3
HETATM    3  C   UNL     1      44.689 -11.021   7.250  1.00  0.00    -0.078 C 
BRANCH   3   4
HETATM    4  C   UNL     1      45.936 -10.518   7.958  1.00  0.00     0.269 C 
BRANCH   4   5
HETATM    5  O   UNL     1      45.718 -10.475   9.365  1.00  0.00    -0.339 OA
BRANCH   5   6
HETATM    6  C   UNL     1      44.845  -9.511   9.803  1.00  0.00     0.072 A 
HETATM    7  C   UNL     1      44.203  -9.490  11.048  1.00  0.00     0.066 A 
HETATM    8  C   UNL     1      43.342  -8.444  11.395  1.00  0.00     0.037 A 
HETATM    9  C   UNL     1      43.117  -7.416  10.471  1.00  0.00     0.029 A 
HETATM   10  C   UNL     1      43.749  -7.432   9.227  1.00  0.00     0.005 A 
HETATM   11  C   UNL     1      44.611  -8.476   8.896  1.00  0.00     0.037 A 
BRANCH   8  12
HETATM   12  N   UNL     1      42.676  -8.355  12.638  1.00  0.00    -0.327 N 
HETATM   13  C   UNL     1      41.573  -9.078  13.057  1.00  0.00     0.218 C 
HETATM   14  C   UNL     1      41.143  -8.722  14.459  1.00  0.00     0.117 C 
HETATM   15  O   UNL     1      40.982  -9.951  12.429  1.00  0.00    -0.274 OA
HETATM   16  H   UNL     1      43.068  -7.698  13.300  1.00  0.00     0.169 HD
ENDBRANCH   8  12
ENDBRANCH   5   6
ENDBRANCH   4   5
ENDBRANCH   3   4
ENDBRANCH   2   3
ENDBRANCH   1   2
BRANCH   1  17
HETATM   17  N   UNL     1      42.677 -13.216   5.314  1.00  0.00    -0.345 N 
HETATM   18  C   UNL     1      42.770 -13.339   3.953  1.00  0.00     0.270 C 
HETATM   19  O   UNL     1      42.647 -12.385   3.191  1.00  0.00    -0.266 OA
HETATM   20  H   UNL     1      42.678 -14.040   5.895  1.00  0.00     0.163 HD
BRANCH  18  21
HETATM   21  C   UNL     1      43.015 -14.673   3.475  1.00  0.00     0.120 A 
HETATM   22  N   UNL     1      43.191 -14.939   2.147  1.00  0.00    -0.272 N 
HETATM   23  H   UNL     1      43.178 -14.265   1.386  1.00  0.00     0.189 HD
HETATM   24  N   UNL     1      43.385 -16.235   1.864  1.00  0.00    -0.174 NA
HETATM   25  C   UNL     1      43.362 -16.852   3.055  1.00  0.00     0.089 A 
HETATM   26  C   UNL     1      43.134 -15.903   4.093  1.00  0.00     0.071 A 
BRANCH  25  27
HETATM   27  C   UNL     1      43.540 -18.303   3.179  1.00  0.00    -0.006 A 
HETATM   28  C   UNL     1      43.263 -19.165   2.107  1.00  0.00     0.014 A 
HETATM   29  C   UNL     1      43.451 -20.546   2.232  1.00  0.00     0.001 A 
HETATM   30  C   UNL     1      43.916 -21.082   3.431  1.00  0.00     0.000 A 
HETATM   31  C   UNL     1      44.190 -20.241   4.506  1.00  0.00     0.001 A 
HETATM   32  C   UNL     1      44.001 -18.862   4.382  1.00  0.00     0.014 A 
ENDBRANCH  25  27
ENDBRANCH  18  21
ENDBRANCH   1  17
TORSDOF 9
ENDMDL
MODEL 5
REMARK VINA RESULT:      -7.9      2.817     10.026
REMARK  9 active torsions:
REMARK  status: ('A' for Active; 'I' for Inactive)
REMARK       I    between atoms: C_2  and  N_3 
REMARK    1  A    between atoms: N_3  and  C_4 
REMARK    2  A    between atoms: C_6  and  O_7 
REMARK    3  A    between atoms: O_7  and  C_8 
REMARK    4  A    between atoms: C_8  and  C_9 
REMARK    5  A    between atoms: C_9  and  C_10 
REMARK    6  A    between atoms: C_10  and  C_11 
REMARK    7  A    between atoms: C_11  and  N_12 
REMARK       I    between atoms: N_12  and  C_13 
REMARK    8  A    between atoms: C_13  and  C_14 
REMARK    9  A    between atoms: C_18  and  C_19 
ROOT
HETATM    1  C   UNL     1      39.767 -10.296   5.968  1.00  0.00     0.217 C 
ENDROOT
BRANCH   1   2
HETATM    2  C   UNL     1      39.594  -9.929   7.433  1.00  0.00    -0.085 C 
BRANCH   2   3
HETATM    3  C   UNL     1      39.445  -9.614   8.689  1.00  0.00    -0.078 C 
BRANCH   3   4
HETATM    4  C   UNL     1      39.272  -9.247  10.153  1.00  0.00     0.269 C 
BRANCH   4   5
HETATM    5  O   UNL     1      40.341  -8.407  10.579  1.00  0.00    -0.339 OA
BRANCH   5   6
HETATM    6  C   UNL     1      41.553  -9.027  10.749  1.00  0.00     0.072 A 
HETATM    7  C   UNL     1      42.611  -9.026   9.831  1.00  0.00     0.066 A 
HETATM    8  C   UNL     1      43.813  -9.680  10.119  1.00  0.00     0.037 A 
HETATM    9  C   UNL     1      43.943 -10.353  11.340  1.00  0.00     0.029 A 
HETATM   10  C   UNL     1      42.892 -10.364  12.258  1.00  0.00     0.005 A 
HETATM   11  C   UNL     1      41.702  -9.700  11.963  1.00  0.00     0.037 A 
BRANCH   8  12
HETATM   12  N   UNL     1      44.923  -9.705   9.244  1.00  0.00    -0.327 N 
HETATM   13  C   UNL     1      45.265 -10.699   8.344  1.00  0.00     0.218 C 
HETATM   14  C   UNL     1      46.515 -10.372   7.565  1.00  0.00     0.117 C 
HETATM   15  O   UNL     1      44.649 -11.738   8.124  1.00  0.00    -0.274 OA
HETATM   16  H   UNL     1      45.522  -8.890   9.272  1.00  0.00     0.169 HD
ENDBRANCH   8  12
ENDBRANCH   5   6
ENDBRANCH   4   5
ENDBRANCH   3   4
ENDBRANCH   2   3
ENDBRANCH   1   2
BRANCH   1  17
HETATM   17  N   UNL     1      40.435 -11.568   5.893  1.00  0.00    -0.345 N 
HETATM   18  C   UNL     1      41.803 -11.658   5.892  1.00  0.00     0.270 C 
HETATM   19  O   UNL     1      42.531 -10.676   6.000  1.00  0.00    -0.266 OA
HETATM   20  H   UNL     1      39.878 -12.384   5.695  1.00  0.00     0.163 HD
BRANCH  18  21
HETATM   21  C   UNL     1      42.328 -12.989   5.746  1.00  0.00     0.120 A 
HETATM   22  N   UNL     1      42.957 -13.629   6.776  1.00  0.00    -0.272 N 
HETATM   23  H   UNL     1      43.111 -13.266   7.712  1.00  0.00     0.189 HD
HETATM   24  N   UNL     1      43.410 -14.853   6.470  1.00  0.00    -0.174 NA
HETATM   25  C   UNL     1      43.046 -15.043   5.193  1.00  0.00     0.089 A 
HETATM   26  C   UNL     1      42.361 -13.894   4.703  1.00  0.00     0.071 A 
BRANCH  25  27
HETATM   27  C   UNL     1      43.362 -16.283   4.474  1.00  0.00    -0.006 A 
HETATM   28  C   UNL     1      42.948 -16.483   3.149  1.00  0.00     0.014 A 
HETATM   29  C   UNL     1      43.268 -17.664   2.470  1.00  0.00     0.001 A 
HETATM   30  C   UNL     1      44.005 -18.659   3.108  1.00  0.00     0.000 A 
HETATM   31  C   UNL     1      44.419 -18.479   4.425  1.00  0.00     0.001 A 
HETATM   32  C   UNL     1      44.097 -17.301   5.104  1.00  0.00     0.014 A 
ENDBRANCH  25  27
ENDBRANCH  18  21
ENDBRANCH   1  17
TORSDOF 9
ENDMDL
MODEL 6
REMARK VINA RESULT:      -7.9      2.197      2.885
REMARK  9 active torsions:
REMARK  status: ('A' for Active; 'I' for Inactive)
REMARK       I    between atoms: C_2  and  N_3 
REMARK    1  A    between atoms: N_3  and  C_4 
REMARK    2  A    between atoms: C_6  and  O_7 
REMARK    3  A    between atoms: O_7  and  C_8 
REMARK    4  A    between atoms: C_8  and  C_9 
REMARK    5  A    between atoms: C_9  and  C_10 
REMARK    6  A    between atoms: C_10  and  C_11 
REMARK    7  A    between atoms: C_11  and  N_12 
REMARK       I    between atoms: N_12  and  C_13 
REMARK    8  A    between atoms: C_13  and  C_14 
REMARK    9  A    between atoms: C_18  and  C_19 
ROOT
HETATM    1  C   UNL     1      44.857 -11.462   7.145  1.00  0.00     0.217 C 
ENDROOT
BRANCH   1   2
HETATM    2  C   UNL     1      43.967 -12.464   6.427  1.00  0.00    -0.085 C 
BRANCH   2   3
HETATM    3  C   UNL     1      43.204 -13.322   5.811  1.00  0.00    -0.078 C 
BRANCH   3   4
HETATM    4  C   UNL     1      42.314 -14.324   5.093  1.00  0.00     0.269 C 
BRANCH   4   5
HETATM    5  O   UNL     1      42.840 -14.608   3.800  1.00  0.00    -0.339 OA
BRANCH   5   6
HETATM    6  C   UNL     1      41.911 -14.818   2.812  1.00  0.00     0.072 A 
HETATM    7  C   UNL     1      41.947 -14.270   1.523  1.00  0.00     0.066 A 
HETATM    8  C   UNL     1      40.950 -14.568   0.589  1.00  0.00     0.037 A 
HETATM    9  C   UNL     1      39.901 -15.416   0.963  1.00  0.00     0.029 A 
HETATM   10  C   UNL     1      39.855 -15.962   2.247  1.00  0.00     0.005 A 
HETATM   11  C   UNL     1      40.859 -15.664   3.166  1.00  0.00     0.037 A 
BRANCH   8  12
HETATM   12  N   UNL     1      40.934 -14.061  -0.730  1.00  0.00    -0.327 N 
HETATM   13  C   UNL     1      40.194 -12.998  -1.216  1.00  0.00     0.218 C 
HETATM   14  C   UNL     1      40.447 -12.735  -2.681  1.00  0.00     0.117 C 
HETATM   15  O   UNL     1      39.427 -12.281  -0.580  1.00  0.00    -0.274 OA
HETATM   16  H   UNL     1      41.552 -14.523  -1.385  1.00  0.00     0.169 HD
ENDBRANCH   8  12
ENDBRANCH   5   6
ENDBRANCH   4   5
ENDBRANCH   3   4
ENDBRANCH   2   3
ENDBRANCH   1   2
BRANCH   1  17
HETATM   17  N   UNL     1      44.229 -11.105   8.390  1.00  0.00    -0.345 N 
HETATM   18  C   UNL     1      44.725 -10.099   9.177  1.00  0.00     0.270 C 
HETATM   19  O   UNL     1      45.693  -9.419   8.852  1.00  0.00    -0.266 OA
HETATM   20  H   UNL     1      43.501 -11.707   8.741  1.00  0.00     0.163 HD
BRANCH  18  21
HETATM   21  C   UNL     1      44.033  -9.900  10.422  1.00  0.00     0.120 A 
HETATM   22  N   UNL     1      43.246 -10.875  10.969  1.00  0.00    -0.272 N 
HETATM   23  H   UNL     1      43.074 -11.801  10.588  1.00  0.00     0.189 HD
HETATM   24  N   UNL     1      42.651 -10.523  12.118  1.00  0.00    -0.174 NA
HETATM   25  C   UNL     1      43.080  -9.274  12.356  1.00  0.00     0.089 A 
HETATM   26  C   UNL     1      43.952  -8.848  11.314  1.00  0.00     0.071 A 
BRANCH  25  27
HETATM   27  C   UNL     1      42.649  -8.521  13.540  1.00  0.00    -0.006 A 
HETATM   28  C   UNL     1      41.594  -8.973  14.347  1.00  0.00     0.014 A 
HETATM   29  C   UNL     1      41.203  -8.253  15.481  1.00  0.00     0.001 A 
HETATM   30  C   UNL     1      41.861  -7.074  15.822  1.00  0.00     0.000 A 
HETATM   31  C   UNL     1      42.906  -6.608  15.029  1.00  0.00     0.001 A 
HETATM   32  C   UNL     1      43.296  -7.326  13.895  1.00  0.00     0.014 A 
ENDBRANCH  25  27
ENDBRANCH  18  21
ENDBRANCH   1  17
TORSDOF 9
ENDMDL
MODEL 7
REMARK VINA RESULT:      -7.9      7.067     10.409
REMARK  9 active torsions:
REMARK  status: ('A' for Active; 'I' for Inactive)
REMARK       I    between atoms: C_2  and  N_3 
REMARK    1  A    between atoms: N_3  and  C_4 
REMARK    2  A    between atoms: C_6  and  O_7 
REMARK    3  A    between atoms: O_7  and  C_8 
REMARK    4  A    between atoms: C_8  and  C_9 
REMARK    5  A    between atoms: C_9  and  C_10 
REMARK    6  A    between atoms: C_10  and  C_11 
REMARK    7  A    between atoms: C_11  and  N_12 
REMARK       I    between atoms: N_12  and  C_13 
REMARK    8  A    between atoms: C_13  and  C_14 
REMARK    9  A    between atoms: C_18  and  C_19 
ROOT
HETATM    1  C   UNL     1      41.808 -10.913   2.272  1.00  0.00     0.217 C 
ENDROOT
BRANCH   1   2
HETATM    2  C   UNL     1      41.621 -10.337   0.878  1.00  0.00    -0.085 C 
BRANCH   2   3
HETATM    3  C   UNL     1      41.461  -9.844  -0.318  1.00  0.00    -0.078 C 
BRANCH   3   4
HETATM    4  C   UNL     1      41.275  -9.270  -1.713  1.00  0.00     0.269 C 
BRANCH   4   5
HETATM    5  O   UNL     1      41.101 -10.321  -2.657  1.00  0.00    -0.339 OA
BRANCH   5   6
HETATM    6  C   UNL     1      40.055 -11.175  -2.412  1.00  0.00     0.072 A 
HETATM    7  C   UNL     1      40.144 -12.418  -1.771  1.00  0.00     0.066 A 
HETATM    8  C   UNL     1      39.004 -13.201  -1.560  1.00  0.00     0.037 A 
HETATM    9  C   UNL     1      37.766 -12.730  -2.012  1.00  0.00     0.029 A 
HETATM   10  C   UNL     1      37.669 -11.496  -2.656  1.00  0.00     0.005 A 
HETATM   11  C   UNL     1      38.811 -10.722  -2.853  1.00  0.00     0.037 A 
BRANCH   8  12
HETATM   12  N   UNL     1      39.023 -14.454  -0.908  1.00  0.00    -0.327 N 
HETATM   13  C   UNL     1      39.915 -14.891   0.055  1.00  0.00     0.218 C 
HETATM   14  C   UNL     1      39.614 -16.290   0.535  1.00  0.00     0.117 C 
HETATM   15  O   UNL     1      40.848 -14.256   0.538  1.00  0.00    -0.274 OA
HETATM   16  H   UNL     1      38.283 -15.094  -1.167  1.00  0.00     0.169 HD
ENDBRANCH   8  12
ENDBRANCH   5   6
ENDBRANCH   4   5
ENDBRANCH   3   4
ENDBRANCH   2   3
ENDBRANCH   1   2
BRANCH   1  17
HETATM   17  N   UNL     1      42.131 -12.310   2.149  1.00  0.00    -0.345 N 
HETATM   18  C   UNL     1      42.500 -13.057   3.237  1.00  0.00     0.270 C 
HETATM   19  O   UNL     1      42.533 -12.599   4.374  1.00  0.00    -0.266 OA
HETATM   20  H   UNL     1      42.220 -12.694   1.221  1.00  0.00     0.163 HD
BRANCH  18  21
HETATM   21  C   UNL     1      42.857 -14.420   2.949  1.00  0.00     0.120 A 
HETATM   22  N   UNL     1      43.274 -14.806   1.706  1.00  0.00    -0.272 N 
HETATM   23  H   UNL     1      43.382 -14.210   0.890  1.00  0.00     0.189 HD
HETATM   24  N   UNL     1      43.544 -16.114   1.596  1.00  0.00    -0.174 NA
HETATM   25  C   UNL     1      43.322 -16.613   2.822  1.00  0.00     0.089 A 
HETATM   26  C   UNL     1      42.890 -15.579   3.701  1.00  0.00     0.071 A 
BRANCH  25  27
HETATM   27  C   UNL     1      43.507 -18.038   3.122  1.00  0.00    -0.006 A 
HETATM   28  C   UNL     1      43.927 -18.466   4.390  1.00  0.00     0.014 A 
HETATM   29  C   UNL     1      44.086 -19.828   4.669  1.00  0.00     0.001 A 
HETATM   30  C   UNL     1      43.827 -20.778   3.683  1.00  0.00     0.000 A 
HETATM   31  C   UNL     1      43.415 -20.369   2.418  1.00  0.00     0.001 A 
HETATM   32  C   UNL     1      43.258 -19.009   2.139  1.00  0.00     0.014 A 
ENDBRANCH  25  27
ENDBRANCH  18  21
ENDBRANCH   1  17
TORSDOF 9
ENDMDL
MODEL 8
REMARK VINA RESULT:      -7.7      5.652     10.402
REMARK  9 active torsions:
REMARK  status: ('A' for Active; 'I' for Inactive)
REMARK       I    between atoms: C_2  and  N_3 
REMARK    1  A    between atoms: N_3  and  C_4 
REMARK    2  A    between atoms: C_6  and  O_7 
REMARK    3  A    between atoms: O_7  and  C_8 
REMARK    4  A    between atoms: C_8  and  C_9 
REMARK    5  A    between atoms: C_9  and  C_10 
REMARK    6  A    between atoms: C_10  and  C_11 
REMARK    7  A    between atoms: C_11  and  N_12 
REMARK       I    between atoms: N_12  and  C_13 
REMARK    8  A    between atoms: C_13  and  C_14 
REMARK    9  A    between atoms: C_18  and  C_19 
ROOT
HETATM    1  C   UNL     1      40.521 -12.806  -0.419  1.00  0.00     0.217 C 
ENDROOT
BRANCH   1   2
HETATM    2  C   UNL     1      40.539 -11.529   0.406  1.00  0.00    -0.085 C 
BRANCH   2   3
HETATM    3  C   UNL     1      40.555 -10.435   1.114  1.00  0.00    -0.078 C 
BRANCH   3   4
HETATM    4  C   UNL     1      40.574  -9.159   1.938  1.00  0.00     0.269 C 
BRANCH   4   5
HETATM    5  O   UNL     1      41.202  -9.395   3.194  1.00  0.00    -0.339 OA
BRANCH   5   6
HETATM    6  C   UNL     1      40.526 -10.226   4.051  1.00  0.00     0.072 A 
HETATM    7  C   UNL     1      40.611 -11.625   4.075  1.00  0.00     0.066 A 
HETATM    8  C   UNL     1      39.885 -12.373   5.008  1.00  0.00     0.037 A 
HETATM    9  C   UNL     1      39.055 -11.703   5.916  1.00  0.00     0.029 A 
HETATM   10  C   UNL     1      38.961 -10.311   5.895  1.00  0.00     0.005 A 
HETATM   11  C   UNL     1      39.696  -9.577   4.966  1.00  0.00     0.037 A 
BRANCH   8  12
HETATM   12  N   UNL     1      39.936 -13.782   5.096  1.00  0.00    -0.327 N 
HETATM   13  C   UNL     1      40.868 -14.552   5.769  1.00  0.00     0.218 C 
HETATM   14  C   UNL     1      40.595 -16.031   5.651  1.00  0.00     0.117 C 
HETATM   15  O   UNL     1      41.815 -14.147   6.437  1.00  0.00    -0.274 OA
HETATM   16  H   UNL     1      39.191 -14.278   4.624  1.00  0.00     0.169 HD
ENDBRANCH   8  12
ENDBRANCH   5   6
ENDBRANCH   4   5
ENDBRANCH   3   4
ENDBRANCH   2   3
ENDBRANCH   1   2
BRANCH   1  17
HETATM   17  N   UNL     1      41.270 -13.813   0.284  1.00  0.00    -0.345 N 
HETATM   18  C   UNL     1      40.780 -14.405   1.419  1.00  0.00     0.270 C 
HETATM   19  O   UNL     1      39.669 -14.149   1.873  1.00  0.00    -0.266 OA
HETATM   20  H   UNL     1      42.226 -13.972   0.007  1.00  0.00     0.163 HD
BRANCH  18  21
HETATM   21  C   UNL     1      41.668 -15.345   2.050  1.00  0.00     0.120 A 
HETATM   22  N   UNL     1      42.788 -14.937   2.717  1.00  0.00    -0.272 N 
HETATM   23  H   UNL     1      43.103 -13.980   2.846  1.00  0.00     0.189 HD
HETATM   24  N   UNL     1      43.522 -15.937   3.227  1.00  0.00    -0.174 NA
HETATM   25  C   UNL     1      42.848 -17.052   2.906  1.00  0.00     0.089 A 
HETATM   26  C   UNL     1      41.676 -16.721   2.168  1.00  0.00     0.071 A 
BRANCH  25  27
HETATM   27  C   UNL     1      43.331 -18.384   3.288  1.00  0.00    -0.006 A 
HETATM   28  C   UNL     1      43.812 -18.642   4.581  1.00  0.00     0.014 A 
HETATM   29  C   UNL     1      44.256 -19.920   4.937  1.00  0.00     0.001 A 
HETATM   30  C   UNL     1      44.224 -20.956   4.006  1.00  0.00     0.000 A 
HETATM   31  C   UNL     1      43.755 -20.716   2.718  1.00  0.00     0.001 A 
HETATM   32  C   UNL     1      43.313 -19.439   2.361  1.00  0.00     0.014 A 
ENDBRANCH  25  27
ENDBRANCH  18  21
ENDBRANCH   1  17
TORSDOF 9
ENDMDL
MODEL 9
REMARK VINA RESULT:      -7.6      5.199      9.649
REMARK  9 active torsions:
REMARK  status: ('A' for Active; 'I' for Inactive)
REMARK       I    between atoms: C_2  and  N_3 
REMARK    1  A    between atoms: N_3  and  C_4 
REMARK    2  A    between atoms: C_6  and  O_7 
REMARK    3  A    between atoms: O_7  and  C_8 
REMARK    4  A    between atoms: C_8  and  C_9 
REMARK    5  A    between atoms: C_9  and  C_10 
REMARK    6  A    between atoms: C_10  and  C_11 
REMARK    7  A    between atoms: C_11  and  N_12 
REMARK       I    between atoms: N_12  and  C_13 
REMARK    8  A    between atoms: C_13  and  C_14 
REMARK    9  A    between atoms: C_18  and  C_19 
ROOT
HETATM    1  C   UNL     1      41.697 -11.611   6.020  1.00  0.00     0.217 C 
ENDROOT
BRANCH   1   2
HETATM    2  C   UNL     1      41.460 -11.013   4.642  1.00  0.00    -0.085 C 
BRANCH   2   3
HETATM    3  C   UNL     1      41.257 -10.500   3.461  1.00  0.00    -0.078 C 
BRANCH   3   4
HETATM    4  C   UNL     1      41.020  -9.902   2.084  1.00  0.00     0.269 C 
BRANCH   4   5
HETATM    5  O   UNL     1      41.977 -10.407   1.159  1.00  0.00    -0.339 OA
BRANCH   5   6
HETATM    6  C   UNL     1      41.505 -10.668  -0.103  1.00  0.00     0.072 A 
HETATM    7  C   UNL     1      41.024 -11.902  -0.560  1.00  0.00     0.066 A 
HETATM    8  C   UNL     1      40.550 -12.049  -1.868  1.00  0.00     0.037 A 
HETATM    9  C   UNL     1      40.575 -10.943  -2.726  1.00  0.00     0.029 A 
HETATM   10  C   UNL     1      41.056  -9.711  -2.280  1.00  0.00     0.005 A 
HETATM   11  C   UNL     1      41.518  -9.576  -0.972  1.00  0.00     0.037 A 
BRANCH   8  12
HETATM   12  N   UNL     1      40.040 -13.260  -2.387  1.00  0.00    -0.327 N 
HETATM   13  C   UNL     1      38.738 -13.723  -2.323  1.00  0.00     0.218 C 
HETATM   14  C   UNL     1      38.561 -15.059  -3.002  1.00  0.00     0.117 C 
HETATM   15  O   UNL     1      37.776 -13.151  -1.818  1.00  0.00    -0.274 OA
HETATM   16  H   UNL     1      40.707 -13.843  -2.877  1.00  0.00     0.169 HD
ENDBRANCH   8  12
ENDBRANCH   5   6
ENDBRANCH   4   5
ENDBRANCH   3   4
ENDBRANCH   2   3
ENDBRANCH   1   2
BRANCH   1  17
HETATM   17  N   UNL     1      41.999 -13.009   5.863  1.00  0.00    -0.345 N 
HETATM   18  C   UNL     1      43.244 -13.507   6.148  1.00  0.00     0.270 C 
HETATM   19  O   UNL     1      44.151 -12.810   6.590  1.00  0.00    -0.266 OA
HETATM   20  H   UNL     1      41.317 -13.591   5.403  1.00  0.00     0.163 HD
BRANCH  18  21
HETATM   21  C   UNL     1      43.416 -14.910   5.881  1.00  0.00     0.120 A 
HETATM   22  N   UNL     1      43.777 -15.788   6.863  1.00  0.00    -0.272 N 
HETATM   23  H   UNL     1      43.948 -15.569   7.841  1.00  0.00     0.189 HD
HETATM   24  N   UNL     1      43.920 -17.054   6.447  1.00  0.00    -0.174 NA
HETATM   25  C   UNL     1      43.617 -17.020   5.140  1.00  0.00     0.089 A 
HETATM   26  C   UNL     1      43.293 -15.690   4.747  1.00  0.00     0.071 A 
BRANCH  25  27
HETATM   27  C   UNL     1      43.656 -18.226   4.305  1.00  0.00    -0.006 A 
HETATM   28  C   UNL     1      44.061 -19.463   4.829  1.00  0.00     0.014 A 
HETATM   29  C   UNL     1      44.079 -20.608   4.026  1.00  0.00     0.001 A 
HETATM   30  C   UNL     1      43.693 -20.531   2.690  1.00  0.00     0.000 A 
HETATM   31  C   UNL     1      43.294 -19.311   2.152  1.00  0.00     0.001 A 
HETATM   32  C   UNL     1      43.277 -18.166   2.953  1.00  0.00     0.014 A 
ENDBRANCH  25  27
ENDBRANCH  18  21
ENDBRANCH   1  17
TORSDOF 9
ENDMDL
MODEL 10
REMARK VINA RESULT:      -7.5      2.623     11.227
REMARK  9 active torsions:
REMARK  status: ('A' for Active; 'I' for Inactive)
REMARK       I    between atoms: C_2  and  N_3 
REMARK    1  A    between atoms: N_3  and  C_4 
REMARK    2  A    between atoms: C_6  and  O_7 
REMARK    3  A    between atoms: O_7  and  C_8 
REMARK    4  A    between atoms: C_8  and  C_9 
REMARK    5  A    between atoms: C_9  and  C_10 
REMARK    6  A    between atoms: C_10  and  C_11 
REMARK    7  A    between atoms: C_11  and  N_12 
REMARK       I    between atoms: N_12  and  C_13 
REMARK    8  A    between atoms: C_13  and  C_14 
REMARK    9  A    between atoms: C_18  and  C_19 
ROOT
HETATM    1  C   UNL     1      40.956 -10.335   6.748  1.00  0.00     0.217 C 
ENDROOT
BRANCH   1   2
HETATM    2  C   UNL     1      42.252  -9.862   7.385  1.00  0.00    -0.085 C 
BRANCH   2   3
HETATM    3  C   UNL     1      43.364  -9.456   7.931  1.00  0.00    -0.078 C 
BRANCH   3   4
HETATM    4  C   UNL     1      44.660  -8.983   8.568  1.00  0.00     0.269 C 
BRANCH   4   5
HETATM    5  O   UNL     1      44.978  -9.795   9.694  1.00  0.00    -0.339 OA
BRANCH   5   6
HETATM    6  C   UNL     1      44.199  -9.601  10.807  1.00  0.00     0.072 A 
HETATM    7  C   UNL     1      43.896  -8.364  11.390  1.00  0.00     0.066 A 
HETATM    8  C   UNL     1      43.074  -8.284  12.519  1.00  0.00     0.037 A 
HETATM    9  C   UNL     1      42.566  -9.465  13.073  1.00  0.00     0.029 A 
HETATM   10  C   UNL     1      42.869 -10.702  12.502  1.00  0.00     0.005 A 
HETATM   11  C   UNL     1      43.681 -10.768  11.372  1.00  0.00     0.037 A 
BRANCH   8  12
HETATM   12  N   UNL     1      42.717  -7.069  13.146  1.00  0.00    -0.327 N 
HETATM   13  C   UNL     1      41.580  -6.311  12.931  1.00  0.00     0.218 C 
HETATM   14  C   UNL     1      41.532  -5.076  13.797  1.00  0.00     0.117 C 
HETATM   15  O   UNL     1      40.656  -6.569  12.166  1.00  0.00    -0.274 OA
HETATM   16  H   UNL     1      43.365  -6.730  13.846  1.00  0.00     0.169 HD
ENDBRANCH   8  12
ENDBRANCH   5   6
ENDBRANCH   4   5
ENDBRANCH   3   4
ENDBRANCH   2   3
ENDBRANCH   1   2
BRANCH   1  17
HETATM   17  N   UNL     1      41.139 -11.690   6.296  1.00  0.00    -0.345 N 
HETATM   18  C   UNL     1      41.434 -11.973   4.988  1.00  0.00     0.270 C 
HETATM   19  O   UNL     1      41.604 -11.099   4.143  1.00  0.00    -0.266 OA
HETATM   20  H   UNL     1      40.903 -12.436   6.932  1.00  0.00     0.163 HD
BRANCH  18  21
HETATM   21  C   UNL     1      41.523 -13.373   4.672  1.00  0.00     0.120 A 
HETATM   22  N   UNL     1      40.430 -14.191   4.724  1.00  0.00    -0.272 N 
HETATM   23  H   UNL     1      39.481 -13.922   4.970  1.00  0.00     0.189 HD
HETATM   24  N   UNL     1      40.684 -15.472   4.424  1.00  0.00    -0.174 NA
HETATM   25  C   UNL     1      41.995 -15.502   4.137  1.00  0.00     0.089 A 
HETATM   26  C   UNL     1      42.557 -14.201   4.279  1.00  0.00     0.071 A 
BRANCH  25  27
HETATM   27  C   UNL     1      42.676 -16.744   3.755  1.00  0.00    -0.006 A 
HETATM   28  C   UNL     1      42.378 -17.397   2.549  1.00  0.00     0.014 A 
HETATM   29  C   UNL     1      43.044 -18.574   2.189  1.00  0.00     0.001 A 
HETATM   30  C   UNL     1      44.016 -19.112   3.030  1.00  0.00     0.000 A 
HETATM   31  C   UNL     1      44.319 -18.479   4.233  1.00  0.00     0.001 A 
HETATM   32  C   UNL     1      43.653 -17.306   4.593  1.00  0.00     0.014 A 
ENDBRANCH  25  27
ENDBRANCH  18  21
ENDBRANCH   1  17
TORSDOF 9
ENDMDL
