MODEL 1
REMARK VINA RESULT:      -9.4      0.000      0.000
REMARK  7 active torsions:
REMARK  status: ('A' for Active; 'I' for Inactive)
REMARK    1  A    between atoms: C_3  and  C_4 
REMARK    2  A    between atoms: C_4  and  S_5 
REMARK    3  A    between atoms: S_5  and  C_6 
REMARK    4  A    between atoms: C_6  and  C_7 
REMARK    5  A    between atoms: C_16  and  C_17 
REMARK       I    between atoms: C_17  and  N_18 
REMARK    6  A    between atoms: N_18  and  C_19 
REMARK    7  A    between atoms: C_19  and  C_20 
ROOT
HETATM    1  C   UNL     1      41.852 -15.338   4.982  1.00  0.00     0.162 C 
HETATM    2  N   UNL     1      40.882 -16.043   4.103  1.00  0.00    -0.277 NA
HETATM    3  C   UNL     1      40.638 -15.375   2.886  1.00  0.00     0.036 A 
HETATM    4  C   UNL     1      40.787 -13.986   2.757  1.00  0.00     0.057 A 
HETATM    5  N   UNL     1      41.224 -13.232   3.852  1.00  0.00    -0.324 N 
HETATM    6  C   UNL     1      41.635 -13.813   5.027  1.00  0.00     0.240 C 
HETATM    7  O   UNL     1      41.915 -13.116   6.002  1.00  0.00    -0.271 OA
HETATM    8  C   UNL     1      40.104 -16.095   1.817  1.00  0.00     0.027 A 
HETATM    9  C   UNL     1      39.804 -15.459   0.606  1.00  0.00     0.019 A 
HETATM   10  C   UNL     1      39.991 -14.077   0.467  1.00  0.00     0.034 A 
HETATM   11  C   UNL     1      40.469 -13.340   1.562  1.00  0.00     0.048 A 
HETATM   12  H   UNL     1      39.996 -16.195   4.587  1.00  0.00     0.128 HD
HETATM   13  H   UNL     1      41.201 -12.221   3.824  1.00  0.00     0.169 HD
ENDROOT
BRANCH  10  14
HETATM   14  C   UNL     1      39.753 -13.335  -0.810  1.00  0.00     0.252 C 
HETATM   15  N   UNL     1      40.838 -13.076  -1.617  1.00  0.00    -0.353 N 
HETATM   16  H   UNL     1      41.720 -13.542  -1.473  1.00  0.00     0.163 HD
HETATM   17  O   UNL     1      38.618 -12.968  -1.095  1.00  0.00    -0.268 OA
BRANCH  15  18
HETATM   18  C   UNL     1      40.690 -12.322  -2.843  1.00  0.00     0.161 C 
BRANCH  18  19
HETATM   19  C   UNL     1      41.094 -10.880  -2.654  1.00  0.00    -0.040 A 
HETATM   20  C   UNL     1      40.866  -9.938  -3.668  1.00  0.00     0.010 A 
HETATM   21  C   UNL     1      41.207  -8.595  -3.478  1.00  0.00     0.024 A 
HETATM   22  C   UNL     1      41.774  -8.187  -2.272  1.00  0.00     0.034 A 
HETATM   23 CL   UNL     1      42.193  -6.535  -2.041  1.00  0.00    -0.084 Cl
HETATM   24  C   UNL     1      41.997  -9.107  -1.251  1.00  0.00     0.024 A 
HETATM   25  C   UNL     1      41.650 -10.447  -1.439  1.00  0.00     0.010 A 
ENDBRANCH  18  19
ENDBRANCH  15  18
ENDBRANCH  10  14
BRANCH   1  26
HETATM   26  C   UNL     1      41.837 -15.904   6.413  1.00  0.00     0.103 C 
BRANCH  26  27
HETATM   27  S   UNL     1      43.184 -17.084   6.819  1.00  0.00    -0.162 SA
BRANCH  27  28
HETATM   28  C   UNL     1      44.088 -17.072   5.238  1.00  0.00     0.112 C 
BRANCH  28  29
HETATM   29  C   UNL     1      43.959 -18.388   4.504  1.00  0.00    -0.043 A 
HETATM   30  C   UNL     1      43.729 -18.456   3.113  1.00  0.00    -0.055 A 
HETATM   31  C   UNL     1      43.604 -17.219   2.263  1.00  0.00     0.049 C 
HETATM   32  C   UNL     1      43.644 -19.714   2.492  1.00  0.00     0.007 A 
HETATM   33  C   UNL     1      43.762 -20.888   3.235  1.00  0.00     0.001 A 
HETATM   34  C   UNL     1      43.966 -20.824   4.608  1.00  0.00     0.001 A 
HETATM   35  C   UNL     1      44.061 -19.584   5.238  1.00  0.00     0.008 A 
ENDBRANCH  28  29
ENDBRANCH  27  28
ENDBRANCH  26  27
ENDBRANCH   1  26
TORSDOF 7
ENDMDL
MODEL 2
REMARK VINA RESULT:      -9.3      6.639      9.481
REMARK  7 active torsions:
REMARK  status: ('A' for Active; 'I' for Inactive)
REMARK    1  A    between atoms: C_3  and  C_4 
REMARK    2  A    between atoms: C_4  and  S_5 
REMARK    3  A    between atoms: S_5  and  C_6 
REMARK    4  A    between atoms: C_6  and  C_7 
REMARK    5  A    between atoms: C_16  and  C_17 
REMARK       I    between atoms: C_17  and  N_18 
REMARK    6  A    between atoms: N_18  and  C_19 
REMARK    7  A    between atoms: C_19  and  C_20 
ROOT
HETATM    1  C   UNL     1      41.937 -13.777   6.128  1.00  0.00     0.162 C 
HETATM    2  N   UNL     1      43.323 -13.242   6.089  1.00  0.00    -0.277 NA
HETATM    3  C   UNL     1      43.461 -11.993   6.727  1.00  0.00     0.036 A 
HETATM    4  C   UNL     1      42.391 -11.095   6.845  1.00  0.00     0.057 A 
HETATM    5  N   UNL     1      41.130 -11.451   6.350  1.00  0.00    -0.324 N 
HETATM    6  C   UNL     1      40.863 -12.705   5.856  1.00  0.00     0.240 C 
HETATM    7  O   UNL     1      39.775 -12.950   5.336  1.00  0.00    -0.271 OA
HETATM    8  C   UNL     1      44.731 -11.580   7.133  1.00  0.00     0.027 A 
HETATM    9  C   UNL     1      44.919 -10.327   7.728  1.00  0.00     0.019 A 
HETATM   10  C   UNL     1      43.838  -9.447   7.881  1.00  0.00     0.034 A 
HETATM   11  C   UNL     1      42.572  -9.835   7.416  1.00  0.00     0.048 A 
HETATM   12  H   UNL     1      43.657 -13.167   5.127  1.00  0.00     0.128 HD
HETATM   13  H   UNL     1      40.385 -10.769   6.297  1.00  0.00     0.169 HD
ENDROOT
BRANCH  10  14
HETATM   14  C   UNL     1      43.944  -8.119   8.561  1.00  0.00     0.252 C 
HETATM   15  N   UNL     1      42.868  -7.688   9.304  1.00  0.00    -0.353 N 
HETATM   16  H   UNL     1      42.125  -8.316   9.562  1.00  0.00     0.163 HD
HETATM   17  O   UNL     1      44.964  -7.451   8.430  1.00  0.00    -0.268 OA
BRANCH  15  18
HETATM   18  C   UNL     1      42.883  -6.392   9.950  1.00  0.00     0.161 C 
BRANCH  18  19
HETATM   19  C   UNL     1      42.734  -6.523  11.447  1.00  0.00    -0.040 A 
HETATM   20  C   UNL     1      42.208  -5.467  12.205  1.00  0.00     0.010 A 
HETATM   21  C   UNL     1      42.036  -5.603  13.586  1.00  0.00     0.024 A 
HETATM   22  C   UNL     1      42.387  -6.795  14.215  1.00  0.00     0.034 A 
HETATM   23 CL   UNL     1      42.175  -6.960  15.914  1.00  0.00    -0.084 Cl
HETATM   24  C   UNL     1      42.900  -7.858  13.476  1.00  0.00     0.024 A 
HETATM   25  C   UNL     1      43.065  -7.724  12.096  1.00  0.00     0.010 A 
ENDBRANCH  18  19
ENDBRANCH  15  18
ENDBRANCH  10  14
BRANCH   1  26
HETATM   26  C   UNL     1      41.753 -14.950   5.150  1.00  0.00     0.103 C 
BRANCH  26  27
HETATM   27  S   UNL     1      42.111 -16.618   5.829  1.00  0.00    -0.162 SA
BRANCH  27  28
HETATM   28  C   UNL     1      43.715 -16.937   5.028  1.00  0.00     0.112 C 
BRANCH  28  29
HETATM   29  C   UNL     1      43.699 -18.218   4.223  1.00  0.00    -0.043 A 
HETATM   30  C   UNL     1      43.382 -18.240   2.847  1.00  0.00    -0.055 A 
HETATM   31  C   UNL     1      43.044 -16.986   2.086  1.00  0.00     0.049 C 
HETATM   32  C   UNL     1      43.411 -19.463   2.157  1.00  0.00     0.007 A 
HETATM   33  C   UNL     1      43.726 -20.651   2.816  1.00  0.00     0.001 A 
HETATM   34  C   UNL     1      44.016 -20.635   4.175  1.00  0.00     0.001 A 
HETATM   35  C   UNL     1      44.001 -19.428   4.874  1.00  0.00     0.008 A 
ENDBRANCH  28  29
ENDBRANCH  27  28
ENDBRANCH  26  27
ENDBRANCH   1  26
TORSDOF 7
ENDMDL
MODEL 3
REMARK VINA RESULT:      -9.3      6.720     10.358
REMARK  7 active torsions:
REMARK  status: ('A' for Active; 'I' for Inactive)
REMARK    1  A    between atoms: C_3  and  C_4 
REMARK    2  A    between atoms: C_4  and  S_5 
REMARK    3  A    between atoms: S_5  and  C_6 
REMARK    4  A    between atoms: C_6  and  C_7 
REMARK    5  A    between atoms: C_16  and  C_17 
REMARK       I    between atoms: C_17  and  N_18 
REMARK    6  A    between atoms: N_18  and  C_19 
REMARK    7  A    between atoms: C_19  and  C_20 
ROOT
HETATM    1  C   UNL     1      43.556  -9.977   8.375  1.00  0.00     0.162 C 
HETATM    2  N   UNL     1      42.737  -9.696   7.167  1.00  0.00    -0.277 NA
HETATM    3  C   UNL     1      42.522 -10.830   6.358  1.00  0.00     0.036 A 
HETATM    4  C   UNL     1      43.419 -11.908   6.334  1.00  0.00     0.057 A 
HETATM    5  N   UNL     1      44.548 -11.887   7.161  1.00  0.00    -0.324 N 
HETATM    6  C   UNL     1      44.757 -10.902   8.094  1.00  0.00     0.240 C 
HETATM    7  O   UNL     1      45.810 -10.860   8.731  1.00  0.00    -0.271 OA
HETATM    8  C   UNL     1      41.459 -10.821   5.454  1.00  0.00     0.027 A 
HETATM    9  C   UNL     1      41.239 -11.908   4.599  1.00  0.00     0.019 A 
HETATM   10  C   UNL     1      42.115 -13.003   4.606  1.00  0.00     0.034 A 
HETATM   11  C   UNL     1      43.221 -12.985   5.469  1.00  0.00     0.048 A 
HETATM   12  H   UNL     1      43.160  -8.957   6.605  1.00  0.00     0.128 HD
HETATM   13  H   UNL     1      45.277 -12.582   7.056  1.00  0.00     0.169 HD
ENDROOT
BRANCH  10  14
HETATM   14  C   UNL     1      41.915 -14.226   3.769  1.00  0.00     0.252 C 
HETATM   15  N   UNL     1      43.021 -14.785   3.169  1.00  0.00    -0.353 N 
HETATM   16  H   UNL     1      43.953 -14.522   3.443  1.00  0.00     0.163 HD
HETATM   17  O   UNL     1      40.786 -14.685   3.627  1.00  0.00    -0.268 OA
BRANCH  15  18
HETATM   18  C   UNL     1      42.894 -15.942   2.308  1.00  0.00     0.161 C 
BRANCH  18  19
HETATM   19  C   UNL     1      43.338 -17.202   3.011  1.00  0.00    -0.040 A 
HETATM   20  C   UNL     1      43.702 -17.170   4.365  1.00  0.00     0.010 A 
HETATM   21  C   UNL     1      44.077 -18.344   5.026  1.00  0.00     0.024 A 
HETATM   22  C   UNL     1      44.087 -19.555   4.337  1.00  0.00     0.034 A 
HETATM   23 CL   UNL     1      44.549 -20.998   5.151  1.00  0.00    -0.084 Cl
HETATM   24  C   UNL     1      43.718 -19.606   2.995  1.00  0.00     0.024 A 
HETATM   25  C   UNL     1      43.337 -18.434   2.337  1.00  0.00     0.010 A 
ENDBRANCH  18  19
ENDBRANCH  15  18
ENDBRANCH  10  14
BRANCH   1  26
HETATM   26  C   UNL     1      44.047  -8.681   9.043  1.00  0.00     0.103 C 
BRANCH  26  27
HETATM   27  S   UNL     1      42.833  -7.831  10.125  1.00  0.00    -0.162 SA
BRANCH  27  28
HETATM   28  C   UNL     1      42.502  -9.164  11.320  1.00  0.00     0.112 C 
BRANCH  28  29
HETATM   29  C   UNL     1      42.327  -8.633  12.725  1.00  0.00    -0.043 A 
HETATM   30  C   UNL     1      41.301  -9.089  13.582  1.00  0.00    -0.055 A 
HETATM   31  C   UNL     1      40.315 -10.143  13.154  1.00  0.00     0.049 C 
HETATM   32  C   UNL     1      41.213  -8.568  14.884  1.00  0.00     0.007 A 
HETATM   33  C   UNL     1      42.108  -7.597  15.329  1.00  0.00     0.001 A 
HETATM   34  C   UNL     1      43.105  -7.130  14.480  1.00  0.00     0.001 A 
HETATM   35  C   UNL     1      43.212  -7.642  13.188  1.00  0.00     0.008 A 
ENDBRANCH  28  29
ENDBRANCH  27  28
ENDBRANCH  26  27
ENDBRANCH   1  26
TORSDOF 7
ENDMDL
MODEL 4
REMARK VINA RESULT:      -9.1      6.118      9.685
REMARK  7 active torsions:
REMARK  status: ('A' for Active; 'I' for Inactive)
REMARK    1  A    between atoms: C_3  and  C_4 
REMARK    2  A    between atoms: C_4  and  S_5 
REMARK    3  A    between atoms: S_5  and  C_6 
REMARK    4  A    between atoms: C_6  and  C_7 
REMARK    5  A    between atoms: C_16  and  C_17 
REMARK       I    between atoms: C_17  and  N_18 
REMARK    6  A    between atoms: N_18  and  C_19 
REMARK    7  A    between atoms: C_19  and  C_20 
ROOT
HETATM    1  C   UNL     1      43.126 -12.711   4.306  1.00  0.00     0.162 C 
HETATM    2  N   UNL     1      44.317 -11.925   4.722  1.00  0.00    -0.277 NA
HETATM    3  C   UNL     1      44.289 -11.538   6.077  1.00  0.00     0.036 A 
HETATM    4  C   UNL     1      43.086 -11.372   6.779  1.00  0.00     0.057 A 
HETATM    5  N   UNL     1      41.869 -11.628   6.137  1.00  0.00    -0.324 N 
HETATM    6  C   UNL     1      41.803 -12.159   4.872  1.00  0.00     0.240 C 
HETATM    7  O   UNL     1      40.720 -12.274   4.300  1.00  0.00    -0.271 OA
HETATM    8  C   UNL     1      45.485 -11.180   6.701  1.00  0.00     0.027 A 
HETATM    9  C   UNL     1      45.494 -10.745   8.032  1.00  0.00     0.019 A 
HETATM   10  C   UNL     1      44.293 -10.618   8.744  1.00  0.00     0.034 A 
HETATM   11  C   UNL     1      43.084 -10.918   8.098  1.00  0.00     0.048 A 
HETATM   12  H   UNL     1      44.427 -11.095   4.138  1.00  0.00     0.128 HD
HETATM   13  H   UNL     1      40.991 -11.379   6.576  1.00  0.00     0.169 HD
ENDROOT
BRANCH  10  14
HETATM   14  C   UNL     1      44.224 -10.221  10.184  1.00  0.00     0.252 C 
HETATM   15  N   UNL     1      43.289 -10.842  10.980  1.00  0.00    -0.353 N 
HETATM   16  H   UNL     1      42.813 -11.676  10.676  1.00  0.00     0.163 HD
HETATM   17  O   UNL     1      44.980  -9.354  10.611  1.00  0.00    -0.268 OA
BRANCH  15  18
HETATM   18  C   UNL     1      43.134 -10.474  12.372  1.00  0.00     0.161 C 
BRANCH  18  19
HETATM   19  C   UNL     1      41.860  -9.695  12.596  1.00  0.00    -0.040 A 
HETATM   20  C   UNL     1      41.719  -8.871  13.721  1.00  0.00     0.010 A 
HETATM   21  C   UNL     1      40.553  -8.122  13.909  1.00  0.00     0.024 A 
HETATM   22  C   UNL     1      39.526  -8.190  12.971  1.00  0.00     0.034 A 
HETATM   23 CL   UNL     1      38.093  -7.267  13.203  1.00  0.00    -0.084 Cl
HETATM   24  C   UNL     1      39.654  -8.994  11.842  1.00  0.00     0.024 A 
HETATM   25  C   UNL     1      40.821  -9.738  11.651  1.00  0.00     0.010 A 
ENDBRANCH  18  19
ENDBRANCH  15  18
ENDBRANCH  10  14
BRANCH   1  26
HETATM   26  C   UNL     1      43.026 -12.823   2.775  1.00  0.00     0.103 C 
BRANCH  26  27
HETATM   27  S   UNL     1      42.860 -14.525   2.108  1.00  0.00    -0.162 SA
BRANCH  27  28
HETATM   28  C   UNL     1      42.715 -15.453   3.668  1.00  0.00     0.112 C 
BRANCH  28  29
HETATM   29  C   UNL     1      43.158 -16.890   3.513  1.00  0.00    -0.043 A 
HETATM   30  C   UNL     1      43.952 -17.542   4.482  1.00  0.00    -0.055 A 
HETATM   31  C   UNL     1      44.406 -16.850   5.740  1.00  0.00     0.049 C 
HETATM   32  C   UNL     1      44.308 -18.887   4.285  1.00  0.00     0.007 A 
HETATM   33  C   UNL     1      43.905 -19.574   3.140  1.00  0.00     0.001 A 
HETATM   34  C   UNL     1      43.142 -18.928   2.174  1.00  0.00     0.001 A 
HETATM   35  C   UNL     1      42.774 -17.596   2.358  1.00  0.00     0.008 A 
ENDBRANCH  28  29
ENDBRANCH  27  28
ENDBRANCH  26  27
ENDBRANCH   1  26
TORSDOF 7
ENDMDL
MODEL 5
REMARK VINA RESULT:      -8.9      3.047      3.326
REMARK  7 active torsions:
REMARK  status: ('A' for Active; 'I' for Inactive)
REMARK    1  A    between atoms: C_3  and  C_4 
REMARK    2  A    between atoms: C_4  and  S_5 
REMARK    3  A    between atoms: S_5  and  C_6 
REMARK    4  A    between atoms: C_6  and  C_7 
REMARK    5  A    between atoms: C_16  and  C_17 
REMARK       I    between atoms: C_17  and  N_18 
REMARK    6  A    between atoms: N_18  and  C_19 
REMARK    7  A    between atoms: C_19  and  C_20 
ROOT
HETATM    1  C   UNL     1      41.327 -15.449   4.757  1.00  0.00     0.162 C 
HETATM    2  N   UNL     1      40.619 -16.091   3.619  1.00  0.00    -0.277 NA
HETATM    3  C   UNL     1      40.385 -15.217   2.538  1.00  0.00     0.036 A 
HETATM    4  C   UNL     1      40.271 -13.831   2.713  1.00  0.00     0.057 A 
HETATM    5  N   UNL     1      40.426 -13.279   3.991  1.00  0.00    -0.324 N 
HETATM    6  C   UNL     1      40.810 -14.032   5.074  1.00  0.00     0.240 C 
HETATM    7  O   UNL     1      40.837 -13.535   6.199  1.00  0.00    -0.271 OA
HETATM    8  C   UNL     1      40.126 -15.758   1.278  1.00  0.00     0.027 A 
HETATM    9  C   UNL     1      39.843 -14.926   0.188  1.00  0.00     0.019 A 
HETATM   10  C   UNL     1      39.769 -13.536   0.359  1.00  0.00     0.034 A 
HETATM   11  C   UNL     1      39.967 -12.995   1.638  1.00  0.00     0.048 A 
HETATM   12  H   UNL     1      39.732 -16.495   3.923  1.00  0.00     0.128 HD
HETATM   13  H   UNL     1      40.208 -12.306   4.163  1.00  0.00     0.169 HD
ENDROOT
BRANCH  10  14
HETATM   14  C   UNL     1      39.533 -12.577  -0.765  1.00  0.00     0.252 C 
HETATM   15  N   UNL     1      38.326 -12.640  -1.423  1.00  0.00    -0.353 N 
HETATM   16  H   UNL     1      37.548 -13.154  -1.042  1.00  0.00     0.163 HD
HETATM   17  O   UNL     1      40.413 -11.782  -1.078  1.00  0.00    -0.268 OA
BRANCH  15  18
HETATM   18  C   UNL     1      38.047 -11.775  -2.550  1.00  0.00     0.161 C 
BRANCH  18  19
HETATM   19  C   UNL     1      36.762 -11.010  -2.351  1.00  0.00    -0.040 A 
HETATM   20  C   UNL     1      36.585 -10.197  -1.222  1.00  0.00     0.010 A 
HETATM   21  C   UNL     1      35.409  -9.459  -1.057  1.00  0.00     0.024 A 
HETATM   22  C   UNL     1      34.405  -9.528  -2.020  1.00  0.00     0.034 A 
HETATM   23 CL   UNL     1      32.959  -8.620  -1.815  1.00  0.00    -0.084 Cl
HETATM   24  C   UNL     1      34.569 -10.321  -3.153  1.00  0.00     0.024 A 
HETATM   25  C   UNL     1      35.746 -11.053  -3.321  1.00  0.00     0.010 A 
ENDBRANCH  18  19
ENDBRANCH  15  18
ENDBRANCH  10  14
BRANCH   1  26
HETATM   26  C   UNL     1      41.264 -16.317   6.027  1.00  0.00     0.103 C 
BRANCH  26  27
HETATM   27  S   UNL     1      42.879 -16.909   6.668  1.00  0.00    -0.162 SA
BRANCH  27  28
HETATM   28  C   UNL     1      43.835 -16.930   5.119  1.00  0.00     0.112 C 
BRANCH  28  29
HETATM   29  C   UNL     1      43.820 -18.292   4.464  1.00  0.00    -0.043 A 
HETATM   30  C   UNL     1      43.627 -18.459   3.075  1.00  0.00    -0.055 A 
HETATM   31  C   UNL     1      43.431 -17.287   2.150  1.00  0.00     0.049 C 
HETATM   32  C   UNL     1      43.648 -19.754   2.530  1.00  0.00     0.007 A 
HETATM   33  C   UNL     1      43.835 -20.871   3.344  1.00  0.00     0.001 A 
HETATM   34  C   UNL     1      44.003 -20.711   4.714  1.00  0.00     0.001 A 
HETATM   35  C   UNL     1      43.993 -19.432   5.270  1.00  0.00     0.008 A 
ENDBRANCH  28  29
ENDBRANCH  27  28
ENDBRANCH  26  27
ENDBRANCH   1  26
TORSDOF 7
ENDMDL
MODEL 6
REMARK VINA RESULT:      -8.9      6.475     10.081
REMARK  7 active torsions:
REMARK  status: ('A' for Active; 'I' for Inactive)
REMARK    1  A    between atoms: C_3  and  C_4 
REMARK    2  A    between atoms: C_4  and  S_5 
REMARK    3  A    between atoms: S_5  and  C_6 
REMARK    4  A    between atoms: C_6  and  C_7 
REMARK    5  A    between atoms: C_16  and  C_17 
REMARK       I    between atoms: C_17  and  N_18 
REMARK    6  A    between atoms: N_18  and  C_19 
REMARK    7  A    between atoms: C_19  and  C_20 
ROOT
HETATM    1  C   UNL     1      43.676  -9.948   8.134  1.00  0.00     0.162 C 
HETATM    2  N   UNL     1      42.908  -9.684   6.890  1.00  0.00    -0.277 NA
HETATM    3  C   UNL     1      42.653 -10.844   6.131  1.00  0.00     0.036 A 
HETATM    4  C   UNL     1      43.487 -11.970   6.187  1.00  0.00     0.057 A 
HETATM    5  N   UNL     1      44.592 -11.969   7.047  1.00  0.00    -0.324 N 
HETATM    6  C   UNL     1      44.830 -10.950   7.937  1.00  0.00     0.240 C 
HETATM    7  O   UNL     1      45.865 -10.934   8.603  1.00  0.00    -0.271 OA
HETATM    8  C   UNL     1      41.617 -10.823   5.195  1.00  0.00     0.027 A 
HETATM    9  C   UNL     1      41.361 -11.938   4.388  1.00  0.00     0.019 A 
HETATM   10  C   UNL     1      42.173 -13.077   4.476  1.00  0.00     0.034 A 
HETATM   11  C   UNL     1      43.254 -13.076   5.371  1.00  0.00     0.048 A 
HETATM   12  H   UNL     1      43.388  -8.999   6.305  1.00  0.00     0.128 HD
HETATM   13  H   UNL     1      45.284 -12.707   6.999  1.00  0.00     0.169 HD
ENDROOT
BRANCH  10  14
HETATM   14  C   UNL     1      41.928 -14.329   3.694  1.00  0.00     0.252 C 
HETATM   15  N   UNL     1      42.991 -14.887   3.021  1.00  0.00    -0.353 N 
HETATM   16  H   UNL     1      43.938 -14.601   3.208  1.00  0.00     0.163 HD
HETATM   17  O   UNL     1      40.801 -14.811   3.660  1.00  0.00    -0.268 OA
BRANCH  15  18
HETATM   18  C   UNL     1      42.816 -16.071   2.206  1.00  0.00     0.161 C 
BRANCH  18  19
HETATM   19  C   UNL     1      43.232 -17.317   2.951  1.00  0.00    -0.040 A 
HETATM   20  C   UNL     1      43.249 -18.561   2.304  1.00  0.00     0.010 A 
HETATM   21  C   UNL     1      43.669 -19.708   2.984  1.00  0.00     0.024 A 
HETATM   22  C   UNL     1      44.077 -19.616   4.313  1.00  0.00     0.034 A 
HETATM   23 CL   UNL     1      44.594 -21.029   5.148  1.00  0.00    -0.084 Cl
HETATM   24  C   UNL     1      44.078 -18.388   4.967  1.00  0.00     0.024 A 
HETATM   25  C   UNL     1      43.664 -17.241   4.286  1.00  0.00     0.010 A 
ENDBRANCH  18  19
ENDBRANCH  15  18
ENDBRANCH  10  14
BRANCH   1  26
HETATM   26  C   UNL     1      44.220  -8.649   8.753  1.00  0.00     0.103 C 
BRANCH  26  27
HETATM   27  S   UNL     1      43.049  -7.719   9.817  1.00  0.00    -0.162 SA
BRANCH  27  28
HETATM   28  C   UNL     1      43.618  -8.273  11.456  1.00  0.00     0.112 C 
BRANCH  28  29
HETATM   29  C   UNL     1      42.469  -8.728  12.328  1.00  0.00    -0.043 A 
HETATM   30  C   UNL     1      42.284  -8.246  13.642  1.00  0.00    -0.055 A 
HETATM   31  C   UNL     1      43.216  -7.238  14.262  1.00  0.00     0.049 C 
HETATM   32  C   UNL     1      41.180  -8.693  14.388  1.00  0.00     0.007 A 
HETATM   33  C   UNL     1      40.284  -9.618  13.855  1.00  0.00     0.001 A 
HETATM   34  C   UNL     1      40.477 -10.112  12.570  1.00  0.00     0.001 A 
HETATM   35  C   UNL     1      41.562  -9.672  11.813  1.00  0.00     0.008 A 
ENDBRANCH  28  29
ENDBRANCH  27  28
ENDBRANCH  26  27
ENDBRANCH   1  26
TORSDOF 7
ENDMDL
MODEL 7
REMARK VINA RESULT:      -8.8      6.624     10.260
REMARK  7 active torsions:
REMARK  status: ('A' for Active; 'I' for Inactive)
REMARK    1  A    between atoms: C_3  and  C_4 
REMARK    2  A    between atoms: C_4  and  S_5 
REMARK    3  A    between atoms: S_5  and  C_6 
REMARK    4  A    between atoms: C_6  and  C_7 
REMARK    5  A    between atoms: C_16  and  C_17 
REMARK       I    between atoms: C_17  and  N_18 
REMARK    6  A    between atoms: N_18  and  C_19 
REMARK    7  A    between atoms: C_19  and  C_20 
ROOT
HETATM    1  C   UNL     1      41.083  -9.174   7.849  1.00  0.00     0.162 C 
HETATM    2  N   UNL     1      42.335  -9.951   7.655  1.00  0.00    -0.277 NA
HETATM    3  C   UNL     1      42.234 -10.938   6.654  1.00  0.00     0.036 A 
HETATM    4  C   UNL     1      41.008 -11.527   6.310  1.00  0.00     0.057 A 
HETATM    5  N   UNL     1      39.835 -11.107   6.948  1.00  0.00    -0.324 N 
HETATM    6  C   UNL     1      39.813 -10.047   7.821  1.00  0.00     0.240 C 
HETATM    7  O   UNL     1      38.786  -9.772   8.441  1.00  0.00    -0.271 OA
HETATM    8  C   UNL     1      43.403 -11.440   6.081  1.00  0.00     0.027 A 
HETATM    9  C   UNL     1      43.349 -12.453   5.116  1.00  0.00     0.019 A 
HETATM   10  C   UNL     1      42.118 -13.012   4.746  1.00  0.00     0.034 A 
HETATM   11  C   UNL     1      40.946 -12.553   5.366  1.00  0.00     0.048 A 
HETATM   12  H   UNL     1      42.630 -10.389   8.529  1.00  0.00     0.128 HD
HETATM   13  H   UNL     1      38.968 -11.614   6.820  1.00  0.00     0.169 HD
ENDROOT
BRANCH  10  14
HETATM   14  C   UNL     1      41.971 -14.053   3.681  1.00  0.00     0.252 C 
HETATM   15  N   UNL     1      43.084 -14.787   3.339  1.00  0.00    -0.353 N 
HETATM   16  H   UNL     1      43.909 -14.785   3.915  1.00  0.00     0.163 HD
HETATM   17  O   UNL     1      40.883 -14.212   3.136  1.00  0.00    -0.268 OA
BRANCH  15  18
HETATM   18  C   UNL     1      43.026 -15.777   2.284  1.00  0.00     0.161 C 
BRANCH  18  19
HETATM   19  C   UNL     1      43.339 -17.157   2.809  1.00  0.00    -0.040 A 
HETATM   20  C   UNL     1      43.825 -17.329   4.113  1.00  0.00     0.010 A 
HETATM   21  C   UNL     1      44.080 -18.611   4.611  1.00  0.00     0.024 A 
HETATM   22  C   UNL     1      43.847 -19.726   3.809  1.00  0.00     0.034 A 
HETATM   23 CL   UNL     1      44.162 -21.302   4.423  1.00  0.00    -0.084 Cl
HETATM   24  C   UNL     1      43.354 -19.574   2.516  1.00  0.00     0.024 A 
HETATM   25  C   UNL     1      43.094 -18.294   2.021  1.00  0.00     0.010 A 
ENDBRANCH  18  19
ENDBRANCH  15  18
ENDBRANCH  10  14
BRANCH   1  26
HETATM   26  C   UNL     1      41.118  -8.356   9.151  1.00  0.00     0.103 C 
BRANCH  26  27
HETATM   27  S   UNL     1      42.753  -8.244   9.980  1.00  0.00    -0.162 SA
BRANCH  27  28
HETATM   28  C   UNL     1      42.510  -9.470  11.303  1.00  0.00     0.112 C 
BRANCH  28  29
HETATM   29  C   UNL     1      42.346  -8.815  12.657  1.00  0.00    -0.043 A 
HETATM   30  C   UNL     1      41.289  -9.146  13.532  1.00  0.00    -0.055 A 
HETATM   31  C   UNL     1      40.254 -10.181  13.177  1.00  0.00     0.049 C 
HETATM   32  C   UNL     1      41.212  -8.515  14.785  1.00  0.00     0.007 A 
HETATM   33  C   UNL     1      42.151  -7.556  15.162  1.00  0.00     0.001 A 
HETATM   34  C   UNL     1      43.180  -7.212  14.294  1.00  0.00     0.001 A 
HETATM   35  C   UNL     1      43.276  -7.835  13.050  1.00  0.00     0.008 A 
ENDBRANCH  28  29
ENDBRANCH  27  28
ENDBRANCH  26  27
ENDBRANCH   1  26
TORSDOF 7
ENDMDL
MODEL 8
REMARK VINA RESULT:      -8.8      5.568      9.307
REMARK  7 active torsions:
REMARK  status: ('A' for Active; 'I' for Inactive)
REMARK    1  A    between atoms: C_3  and  C_4 
REMARK    2  A    between atoms: C_4  and  S_5 
REMARK    3  A    between atoms: S_5  and  C_6 
REMARK    4  A    between atoms: C_6  and  C_7 
REMARK    5  A    between atoms: C_16  and  C_17 
REMARK       I    between atoms: C_17  and  N_18 
REMARK    6  A    between atoms: N_18  and  C_19 
REMARK    7  A    between atoms: C_19  and  C_20 
ROOT
HETATM    1  C   UNL     1      40.202  -9.552   6.678  1.00  0.00     0.162 C 
HETATM    2  N   UNL     1      41.660  -9.776   6.498  1.00  0.00    -0.277 NA
HETATM    3  C   UNL     1      41.962 -10.801   5.579  1.00  0.00     0.036 A 
HETATM    4  C   UNL     1      41.077 -11.860   5.328  1.00  0.00     0.057 A 
HETATM    5  N   UNL     1      39.836 -11.893   5.976  1.00  0.00    -0.324 N 
HETATM    6  C   UNL     1      39.391 -10.860   6.765  1.00  0.00     0.240 C 
HETATM    7  O   UNL     1      38.343 -10.968   7.400  1.00  0.00    -0.271 OA
HETATM    8  C   UNL     1      43.233 -10.839   5.004  1.00  0.00     0.027 A 
HETATM    9  C   UNL     1      43.588 -11.867   4.123  1.00  0.00     0.019 A 
HETATM   10  C   UNL     1      42.685 -12.903   3.843  1.00  0.00     0.034 A 
HETATM   11  C   UNL     1      41.430 -12.901   4.470  1.00  0.00     0.048 A 
HETATM   12  H   UNL     1      42.109  -9.981   7.391  1.00  0.00     0.128 HD
HETATM   13  H   UNL     1      39.246 -12.714   5.920  1.00  0.00     0.169 HD
ENDROOT
BRANCH  10  14
HETATM   14  C   UNL     1      42.966 -14.002   2.867  1.00  0.00     0.252 C 
HETATM   15  N   UNL     1      42.328 -15.208   3.054  1.00  0.00    -0.353 N 
HETATM   16  H   UNL     1      41.547 -15.294   3.684  1.00  0.00     0.163 HD
HETATM   17  O   UNL     1      43.756 -13.810   1.949  1.00  0.00    -0.268 OA
BRANCH  15  18
HETATM   18  C   UNL     1      42.588 -16.330   2.177  1.00  0.00     0.161 C 
BRANCH  18  19
HETATM   19  C   UNL     1      43.076 -17.530   2.951  1.00  0.00    -0.040 A 
HETATM   20  C   UNL     1      43.223 -18.773   2.318  1.00  0.00     0.010 A 
HETATM   21  C   UNL     1      43.710 -19.876   3.027  1.00  0.00     0.024 A 
HETATM   22  C   UNL     1      44.055 -19.741   4.370  1.00  0.00     0.034 A 
HETATM   23 CL   UNL     1      44.654 -21.099   5.239  1.00  0.00    -0.084 Cl
HETATM   24  C   UNL     1      43.927 -18.512   5.010  1.00  0.00     0.024 A 
HETATM   25  C   UNL     1      43.446 -17.409   4.301  1.00  0.00     0.010 A 
ENDBRANCH  18  19
ENDBRANCH  15  18
ENDBRANCH  10  14
BRANCH   1  26
HETATM   26  C   UNL     1      39.909  -8.680   7.912  1.00  0.00     0.103 C 
BRANCH  26  27
HETATM   27  S   UNL     1      40.481  -9.356   9.520  1.00  0.00    -0.162 SA
BRANCH  27  28
HETATM   28  C   UNL     1      41.689  -8.073   9.979  1.00  0.00     0.112 C 
BRANCH  28  29
HETATM   29  C   UNL     1      43.113  -8.552   9.809  1.00  0.00    -0.043 A 
HETATM   30  C   UNL     1      43.758  -9.358  10.773  1.00  0.00    -0.055 A 
HETATM   31  C   UNL     1      43.065  -9.800  12.035  1.00  0.00     0.049 C 
HETATM   32  C   UNL     1      45.075  -9.787  10.538  1.00  0.00     0.007 A 
HETATM   33  C   UNL     1      45.755  -9.411   9.381  1.00  0.00     0.001 A 
HETATM   34  C   UNL     1      45.131  -8.600   8.441  1.00  0.00     0.001 A 
HETATM   35  C   UNL     1      43.821  -8.171   8.654  1.00  0.00     0.008 A 
ENDBRANCH  28  29
ENDBRANCH  27  28
ENDBRANCH  26  27
ENDBRANCH   1  26
TORSDOF 7
ENDMDL
MODEL 9
REMARK VINA RESULT:      -8.6      5.697      9.133
REMARK  7 active torsions:
REMARK  status: ('A' for Active; 'I' for Inactive)
REMARK    1  A    between atoms: C_3  and  C_4 
REMARK    2  A    between atoms: C_4  and  S_5 
REMARK    3  A    between atoms: S_5  and  C_6 
REMARK    4  A    between atoms: C_6  and  C_7 
REMARK    5  A    between atoms: C_16  and  C_17 
REMARK       I    between atoms: C_17  and  N_18 
REMARK    6  A    between atoms: N_18  and  C_19 
REMARK    7  A    between atoms: C_19  and  C_20 
ROOT
HETATM    1  C   UNL     1      40.116 -12.648   3.886  1.00  0.00     0.162 C 
HETATM    2  N   UNL     1      41.560 -12.992   3.961  1.00  0.00    -0.277 NA
HETATM    3  C   UNL     1      42.208 -12.450   5.090  1.00  0.00     0.036 A 
HETATM    4  C   UNL     1      41.755 -11.282   5.719  1.00  0.00     0.057 A 
HETATM    5  N   UNL     1      40.603 -10.642   5.244  1.00  0.00    -0.324 N 
HETATM    6  C   UNL     1      39.819 -11.181   4.254  1.00  0.00     0.240 C 
HETATM    7  O   UNL     1      38.874 -10.543   3.791  1.00  0.00    -0.271 OA
HETATM    8  C   UNL     1      43.412 -13.015   5.511  1.00  0.00     0.027 A 
HETATM    9  C   UNL     1      44.112 -12.477   6.599  1.00  0.00     0.019 A 
HETATM   10  C   UNL     1      43.634 -11.332   7.251  1.00  0.00     0.034 A 
HETATM   11  C   UNL     1      42.456 -10.726   6.789  1.00  0.00     0.048 A 
HETATM   12  H   UNL     1      42.049 -12.693   3.117  1.00  0.00     0.128 HD
HETATM   13  H   UNL     1      40.341  -9.727   5.589  1.00  0.00     0.169 HD
ENDROOT
BRANCH  10  14
HETATM   14  C   UNL     1      44.288 -10.734   8.456  1.00  0.00     0.252 C 
HETATM   15  N   UNL     1      43.640 -10.850   9.665  1.00  0.00    -0.353 N 
HETATM   16  H   UNL     1      42.870 -11.486   9.787  1.00  0.00     0.163 HD
HETATM   17  O   UNL     1      45.361 -10.152   8.337  1.00  0.00    -0.268 OA
BRANCH  15  18
HETATM   18  C   UNL     1      44.192 -10.254  10.864  1.00  0.00     0.161 C 
BRANCH  18  19
HETATM   19  C   UNL     1      43.179  -9.375  11.556  1.00  0.00    -0.040 A 
HETATM   20  C   UNL     1      43.597  -8.353  12.421  1.00  0.00     0.010 A 
HETATM   21  C   UNL     1      42.660  -7.515  13.034  1.00  0.00     0.024 A 
HETATM   22  C   UNL     1      41.301  -7.692  12.781  1.00  0.00     0.034 A 
HETATM   23 CL   UNL     1      40.150  -6.659  13.535  1.00  0.00    -0.084 Cl
HETATM   24  C   UNL     1      40.870  -8.693  11.916  1.00  0.00     0.024 A 
HETATM   25  C   UNL     1      41.806  -9.527  11.300  1.00  0.00     0.010 A 
ENDBRANCH  18  19
ENDBRANCH  15  18
ENDBRANCH  10  14
BRANCH   1  26
HETATM   26  C   UNL     1      39.529 -12.962   2.499  1.00  0.00     0.103 C 
BRANCH  26  27
HETATM   27  S   UNL     1      40.255 -14.409   1.633  1.00  0.00    -0.162 SA
BRANCH  27  28
HETATM   28  C   UNL     1      39.980 -15.691   2.896  1.00  0.00     0.112 C 
BRANCH  28  29
HETATM   29  C   UNL     1      41.280 -16.291   3.384  1.00  0.00    -0.043 A 
HETATM   30  C   UNL     1      41.581 -16.421   4.757  1.00  0.00    -0.055 A 
HETATM   31  C   UNL     1      40.623 -15.977   5.830  1.00  0.00     0.049 C 
HETATM   32  C   UNL     1      42.798 -17.010   5.140  1.00  0.00     0.007 A 
HETATM   33  C   UNL     1      43.715 -17.445   4.183  1.00  0.00     0.001 A 
HETATM   34  C   UNL     1      43.431 -17.297   2.831  1.00  0.00     0.001 A 
HETATM   35  C   UNL     1      42.224 -16.723   2.434  1.00  0.00     0.008 A 
ENDBRANCH  28  29
ENDBRANCH  27  28
ENDBRANCH  26  27
ENDBRANCH   1  26
TORSDOF 7
ENDMDL
MODEL 10
REMARK VINA RESULT:      -8.2      5.714      8.576
REMARK  7 active torsions:
REMARK  status: ('A' for Active; 'I' for Inactive)
REMARK    1  A    between atoms: C_3  and  C_4 
REMARK    2  A    between atoms: C_4  and  S_5 
REMARK    3  A    between atoms: S_5  and  C_6 
REMARK    4  A    between atoms: C_6  and  C_7 
REMARK    5  A    between atoms: C_16  and  C_17 
REMARK       I    between atoms: C_17  and  N_18 
REMARK    6  A    between atoms: N_18  and  C_19 
REMARK    7  A    between atoms: C_19  and  C_20 
ROOT
HETATM    1  C   UNL     1      44.101 -10.459   7.702  1.00  0.00     0.162 C 
HETATM    2  N   UNL     1      44.097 -11.927   7.937  1.00  0.00    -0.277 NA
HETATM    3  C   UNL     1      43.474 -12.658   6.906  1.00  0.00     0.036 A 
HETATM    4  C   UNL     1      42.478 -12.099   6.093  1.00  0.00     0.057 A 
HETATM    5  N   UNL     1      42.106 -10.761   6.276  1.00  0.00    -0.324 N 
HETATM    6  C   UNL     1      42.765  -9.928   7.145  1.00  0.00     0.240 C 
HETATM    7  O   UNL     1      42.347  -8.790   7.356  1.00  0.00    -0.271 OA
HETATM    8  C   UNL     1      43.758 -14.019   6.778  1.00  0.00     0.027 A 
HETATM    9  C   UNL     1      43.125 -14.792   5.798  1.00  0.00     0.019 A 
HETATM   10  C   UNL     1      42.158 -14.219   4.960  1.00  0.00     0.034 A 
HETATM   11  C   UNL     1      41.825 -12.867   5.129  1.00  0.00     0.048 A 
HETATM   12  H   UNL     1      43.650 -12.151   8.827  1.00  0.00     0.128 HD
HETATM   13  H   UNL     1      41.297 -10.381   5.801  1.00  0.00     0.169 HD
ENDROOT
BRANCH  10  14
HETATM   14  C   UNL     1      41.483 -14.961   3.850  1.00  0.00     0.252 C 
HETATM   15  N   UNL     1      40.722 -14.237   2.960  1.00  0.00    -0.353 N 
HETATM   16  H   UNL     1      40.780 -13.232   2.918  1.00  0.00     0.163 HD
HETATM   17  O   UNL     1      41.609 -16.178   3.770  1.00  0.00    -0.268 OA
BRANCH  15  18
HETATM   18  C   UNL     1      40.002 -14.895   1.890  1.00  0.00     0.161 C 
BRANCH  18  19
HETATM   19  C   UNL     1      40.154 -14.149   0.586  1.00  0.00    -0.040 A 
HETATM   20  C   UNL     1      40.796 -12.903   0.550  1.00  0.00     0.010 A 
HETATM   21  C   UNL     1      40.969 -12.230  -0.663  1.00  0.00     0.024 A 
HETATM   22  C   UNL     1      40.505 -12.801  -1.846  1.00  0.00     0.034 A 
HETATM   23 CL   UNL     1      40.720 -11.972  -3.338  1.00  0.00    -0.084 Cl
HETATM   24  C   UNL     1      39.876 -14.043  -1.830  1.00  0.00     0.024 A 
HETATM   25  C   UNL     1      39.709 -14.718  -0.618  1.00  0.00     0.010 A 
ENDBRANCH  18  19
ENDBRANCH  15  18
ENDBRANCH  10  14
BRANCH   1  26
HETATM   26  C   UNL     1      44.476  -9.681   8.975  1.00  0.00     0.103 C 
BRANCH  26  27
HETATM   27  S   UNL     1      44.028 -10.486  10.564  1.00  0.00    -0.162 SA
BRANCH  27  28
HETATM   28  C   UNL     1      42.400  -9.722  10.847  1.00  0.00     0.112 C 
BRANCH  28  29
HETATM   29  C   UNL     1      42.396  -8.842  12.077  1.00  0.00    -0.043 A 
HETATM   30  C   UNL     1      42.592  -7.445  12.005  1.00  0.00    -0.055 A 
HETATM   31  C   UNL     1      42.812  -6.737  10.695  1.00  0.00     0.049 C 
HETATM   32  C   UNL     1      42.552  -6.686  13.187  1.00  0.00     0.007 A 
HETATM   33  C   UNL     1      42.343  -7.295  14.423  1.00  0.00     0.001 A 
HETATM   34  C   UNL     1      42.172  -8.673  14.499  1.00  0.00     0.001 A 
HETATM   35  C   UNL     1      42.201  -9.440  13.335  1.00  0.00     0.008 A 
ENDBRANCH  28  29
ENDBRANCH  27  28
ENDBRANCH  26  27
ENDBRANCH   1  26
TORSDOF 7
ENDMDL
