MODEL 1
REMARK VINA RESULT:      -7.9      0.000      0.000
REMARK  11 active torsions:
REMARK  status: ('A' for Active; 'I' for Inactive)
REMARK    1  A    between atoms: C_4  and  C_5 
REMARK       I    between atoms: C_5  and  N_6 
REMARK    2  A    between atoms: N_6  and  C_7 
REMARK    3  A    between atoms: C_7  and  C_8 
REMARK    4  A    between atoms: C_8  and  C_9 
REMARK    5  A    between atoms: C_9  and  C_10 
REMARK    6  A    between atoms: C_10  and  C_11 
REMARK    7  A    between atoms: C_11  and  C_12 
REMARK       I    between atoms: C_12  and  N_13 
REMARK    8  A    between atoms: N_13  and  N_14 
REMARK    9  A    between atoms: C_15  and  C_16 
REMARK   10  A    between atoms: C_17  and  O_18 
REMARK   11  A    between atoms: C_20  and  O_21 
ROOT
HETATM    1  C   UNL     1      45.465  -9.403   8.494  1.00  0.00     0.237 C 
HETATM    2  N   UNL     1      44.918 -10.054   9.592  1.00  0.00    -0.247 N 
HETATM    3  O   UNL     1      45.479  -8.184   8.349  1.00  0.00    -0.272 OA
HETATM    4  H   UNL     1      44.930 -11.066   9.660  1.00  0.00     0.192 HD
ENDROOT
BRANCH   1   5
HETATM    5  C   UNL     1      46.059 -10.367   7.484  1.00  0.00     0.105 C 
BRANCH   5   6
HETATM    6  C   UNL     1      45.105 -11.520   7.179  1.00  0.00     0.009 C 
BRANCH   6   7
HETATM    7  C   UNL     1      44.737 -11.588   5.698  1.00  0.00     0.002 C 
BRANCH   7   8
HETATM    8  C   UNL     1      43.219 -11.537   5.514  1.00  0.00     0.020 C 
BRANCH   8   9
HETATM    9  C   UNL     1      42.543 -12.804   6.031  1.00  0.00     0.123 C 
BRANCH   9  10
HETATM   10  N   UNL     1      42.797 -13.926   5.148  1.00  0.00    -0.357 N 
HETATM   11  C   UNL     1      43.371 -15.093   5.612  1.00  0.00     0.251 C 
HETATM   12  O   UNL     1      43.747 -15.233   6.771  1.00  0.00    -0.268 OA
HETATM   13  H   UNL     1      42.340 -13.916   4.249  1.00  0.00     0.162 HD
BRANCH  11  14
HETATM   14  C   UNL     1      43.504 -16.223   4.641  1.00  0.00     0.032 A 
HETATM   15  C   UNL     1      43.041 -16.154   3.320  1.00  0.00     0.017 A 
HETATM   16  C   UNL     1      43.199 -17.245   2.460  1.00  0.00     0.001 A 
HETATM   17  C   UNL     1      43.830 -18.405   2.907  1.00  0.00     0.000 A 
HETATM   18  C   UNL     1      44.308 -18.477   4.214  1.00  0.00     0.001 A 
HETATM   19  C   UNL     1      44.146 -17.391   5.077  1.00  0.00     0.017 A 
ENDBRANCH  11  14
ENDBRANCH   9  10
ENDBRANCH   8   9
ENDBRANCH   7   8
ENDBRANCH   6   7
ENDBRANCH   5   6
ENDBRANCH   1   5
BRANCH   2  20
HETATM   20  N   UNL     1      44.351  -9.311  10.577  1.00  0.00    -0.184 NA
HETATM   21  C   UNL     1      43.592  -9.936  11.417  1.00  0.00     0.153 C 
BRANCH  21  22
HETATM   22  C   UNL     1      42.933  -9.199  12.515  1.00  0.00     0.016 A 
HETATM   23  C   UNL     1      41.770  -9.674  13.137  1.00  0.00     0.080 A 
HETATM   24  C   UNL     1      41.177  -8.953  14.171  1.00  0.00     0.074 A 
HETATM   25  C   UNL     1      41.752  -7.754  14.580  1.00  0.00     0.068 A 
HETATM   26  C   UNL     1      42.906  -7.268  13.970  1.00  0.00     0.037 A 
HETATM   27  C   UNL     1      43.502  -7.991  12.934  1.00  0.00     0.018 A 
BRANCH  23  28
HETATM   28  O   UNL     1      41.151 -10.844  12.788  1.00  0.00    -0.360 OA
HETATM   29  H   UNL     1      41.744 -11.346  12.180  1.00  0.00     0.217 HD
ENDBRANCH  23  28
BRANCH  25  30
HETATM   30  O   UNL     1      41.207  -7.014  15.588  1.00  0.00    -0.361 OA
HETATM   31  H   UNL     1      41.015  -6.124  15.248  1.00  0.00     0.217 HD
ENDBRANCH  25  30
ENDBRANCH  21  22
ENDBRANCH   2  20
TORSDOF 11
ENDMDL
MODEL 2
REMARK VINA RESULT:      -7.9      2.537     10.889
REMARK  11 active torsions:
REMARK  status: ('A' for Active; 'I' for Inactive)
REMARK    1  A    between atoms: C_4  and  C_5 
REMARK       I    between atoms: C_5  and  N_6 
REMARK    2  A    between atoms: N_6  and  C_7 
REMARK    3  A    between atoms: C_7  and  C_8 
REMARK    4  A    between atoms: C_8  and  C_9 
REMARK    5  A    between atoms: C_9  and  C_10 
REMARK    6  A    between atoms: C_10  and  C_11 
REMARK    7  A    between atoms: C_11  and  C_12 
REMARK       I    between atoms: C_12  and  N_13 
REMARK    8  A    between atoms: N_13  and  N_14 
REMARK    9  A    between atoms: C_15  and  C_16 
REMARK   10  A    between atoms: C_17  and  O_18 
REMARK   11  A    between atoms: C_20  and  O_21 
ROOT
HETATM    1  C   UNL     1      41.639 -13.892   5.543  1.00  0.00     0.237 C 
HETATM    2  N   UNL     1      42.557 -14.277   4.574  1.00  0.00    -0.247 N 
HETATM    3  O   UNL     1      40.855 -14.657   6.096  1.00  0.00    -0.272 OA
HETATM    4  H   UNL     1      43.181 -13.602   4.145  1.00  0.00     0.192 HD
ENDROOT
BRANCH   1   5
HETATM    5  C   UNL     1      41.716 -12.409   5.858  1.00  0.00     0.105 C 
BRANCH   5   6
HETATM    6  C   UNL     1      43.020 -11.795   5.353  1.00  0.00     0.009 C 
BRANCH   6   7
HETATM    7  C   UNL     1      43.752 -11.017   6.446  1.00  0.00     0.002 C 
BRANCH   7   8
HETATM    8  C   UNL     1      45.097 -11.671   6.766  1.00  0.00     0.020 C 
BRANCH   8   9
HETATM    9  C   UNL     1      45.955 -10.788   7.669  1.00  0.00     0.123 C 
BRANCH   9  10
HETATM   10  N   UNL     1      45.167 -10.235   8.754  1.00  0.00    -0.357 N 
HETATM   11  C   UNL     1      45.033  -8.871   8.925  1.00  0.00     0.251 C 
HETATM   12  O   UNL     1      45.606  -8.053   8.213  1.00  0.00    -0.268 OA
HETATM   13  H   UNL     1      44.544 -10.863   9.236  1.00  0.00     0.162 HD
BRANCH  11  14
HETATM   14  C   UNL     1      44.123  -8.405  10.017  1.00  0.00     0.032 A 
HETATM   15  C   UNL     1      43.282  -7.290   9.888  1.00  0.00     0.017 A 
HETATM   16  C   UNL     1      42.452  -6.909  10.946  1.00  0.00     0.001 A 
HETATM   17  C   UNL     1      42.444  -7.642  12.131  1.00  0.00     0.000 A 
HETATM   18  C   UNL     1      43.264  -8.761  12.263  1.00  0.00     0.001 A 
HETATM   19  C   UNL     1      44.100  -9.141  11.210  1.00  0.00     0.017 A 
ENDBRANCH  11  14
ENDBRANCH   9  10
ENDBRANCH   8   9
ENDBRANCH   7   8
ENDBRANCH   6   7
ENDBRANCH   5   6
ENDBRANCH   1   5
BRANCH   2  20
HETATM   20  N   UNL     1      42.598 -15.581   4.195  1.00  0.00    -0.184 NA
HETATM   21  C   UNL     1      43.588 -16.286   4.637  1.00  0.00     0.153 C 
BRANCH  21  22
HETATM   22  C   UNL     1      43.708 -17.712   4.267  1.00  0.00     0.016 A 
HETATM   23  C   UNL     1      43.519 -18.157   2.951  1.00  0.00     0.080 A 
HETATM   24  C   UNL     1      43.643 -19.509   2.638  1.00  0.00     0.074 A 
HETATM   25  C   UNL     1      43.955 -20.414   3.648  1.00  0.00     0.068 A 
HETATM   26  C   UNL     1      44.143 -19.987   4.960  1.00  0.00     0.037 A 
HETATM   27  C   UNL     1      44.021 -18.632   5.274  1.00  0.00     0.018 A 
BRANCH  23  28
HETATM   28  O   UNL     1      43.211 -17.324   1.909  1.00  0.00    -0.360 OA
HETATM   29  H   UNL     1      42.309 -17.549   1.582  1.00  0.00     0.217 HD
ENDBRANCH  23  28
BRANCH  25  30
HETATM   30  O   UNL     1      44.086 -21.746   3.389  1.00  0.00    -0.361 OA
HETATM   31  H   UNL     1      43.321 -22.035   2.864  1.00  0.00     0.217 HD
ENDBRANCH  25  30
ENDBRANCH  21  22
ENDBRANCH   2  20
TORSDOF 11
ENDMDL
MODEL 3
REMARK VINA RESULT:      -7.8      1.259      1.909
REMARK  11 active torsions:
REMARK  status: ('A' for Active; 'I' for Inactive)
REMARK    1  A    between atoms: C_4  and  C_5 
REMARK       I    between atoms: C_5  and  N_6 
REMARK    2  A    between atoms: N_6  and  C_7 
REMARK    3  A    between atoms: C_7  and  C_8 
REMARK    4  A    between atoms: C_8  and  C_9 
REMARK    5  A    between atoms: C_9  and  C_10 
REMARK    6  A    between atoms: C_10  and  C_11 
REMARK    7  A    between atoms: C_11  and  C_12 
REMARK       I    between atoms: C_12  and  N_13 
REMARK    8  A    between atoms: N_13  and  N_14 
REMARK    9  A    between atoms: C_15  and  C_16 
REMARK   10  A    between atoms: C_17  and  O_18 
REMARK   11  A    between atoms: C_20  and  O_21 
ROOT
HETATM    1  C   UNL     1      44.770 -10.857   8.232  1.00  0.00     0.237 C 
HETATM    2  N   UNL     1      43.609 -10.907   8.993  1.00  0.00    -0.247 N 
HETATM    3  O   UNL     1      45.811 -10.315   8.593  1.00  0.00    -0.272 OA
HETATM    4  H   UNL     1      42.774 -11.365   8.644  1.00  0.00     0.192 HD
ENDROOT
BRANCH   1   5
HETATM    5  C   UNL     1      44.618 -11.560   6.895  1.00  0.00     0.105 C 
BRANCH   5   6
HETATM    6  C   UNL     1      43.679 -12.760   6.996  1.00  0.00     0.009 C 
BRANCH   6   7
HETATM    7  C   UNL     1      42.528 -12.676   5.994  1.00  0.00     0.002 C 
BRANCH   7   8
HETATM    8  C   UNL     1      41.643 -13.921   6.081  1.00  0.00     0.020 C 
BRANCH   8   9
HETATM    9  C   UNL     1      42.386 -15.103   6.697  1.00  0.00     0.123 C 
BRANCH   9  10
HETATM   10  N   UNL     1      42.508 -16.192   5.747  1.00  0.00    -0.357 N 
HETATM   11  C   UNL     1      43.718 -16.821   5.523  1.00  0.00     0.251 C 
HETATM   12  O   UNL     1      44.760 -16.468   6.065  1.00  0.00    -0.268 OA
HETATM   13  H   UNL     1      41.655 -16.622   5.428  1.00  0.00     0.162 HD
BRANCH  11  14
HETATM   14  C   UNL     1      43.718 -17.992   4.594  1.00  0.00     0.032 A 
HETATM   15  C   UNL     1      43.996 -19.300   5.013  1.00  0.00     0.017 A 
HETATM   16  C   UNL     1      43.976 -20.354   4.093  1.00  0.00     0.001 A 
HETATM   17  C   UNL     1      43.664 -20.112   2.757  1.00  0.00     0.000 A 
HETATM   18  C   UNL     1      43.370 -18.818   2.334  1.00  0.00     0.001 A 
HETATM   19  C   UNL     1      43.396 -17.762   3.248  1.00  0.00     0.017 A 
ENDBRANCH  11  14
ENDBRANCH   9  10
ENDBRANCH   8   9
ENDBRANCH   7   8
ENDBRANCH   6   7
ENDBRANCH   5   6
ENDBRANCH   1   5
BRANCH   2  20
HETATM   20  N   UNL     1      43.604 -10.316  10.216  1.00  0.00    -0.184 NA
HETATM   21  C   UNL     1      42.475  -9.838  10.628  1.00  0.00     0.153 C 
BRANCH  21  22
HETATM   22  C   UNL     1      42.385  -9.175  11.946  1.00  0.00     0.016 A 
HETATM   23  C   UNL     1      41.451  -9.568  12.914  1.00  0.00     0.080 A 
HETATM   24  C   UNL     1      41.397  -8.922  14.147  1.00  0.00     0.074 A 
HETATM   25  C   UNL     1      42.280  -7.879  14.406  1.00  0.00     0.068 A 
HETATM   26  C   UNL     1      43.213  -7.476  13.454  1.00  0.00     0.037 A 
HETATM   27  C   UNL     1      43.268  -8.125  12.218  1.00  0.00     0.018 A 
BRANCH  23  28
HETATM   28  O   UNL     1      40.552 -10.584  12.728  1.00  0.00    -0.360 OA
HETATM   29  H   UNL     1      40.960 -11.261  12.139  1.00  0.00     0.217 HD
ENDBRANCH  23  28
BRANCH  25  30
HETATM   30  O   UNL     1      42.264  -7.217  15.599  1.00  0.00    -0.361 OA
HETATM   31  H   UNL     1      42.980  -7.568  16.156  1.00  0.00     0.217 HD
ENDBRANCH  25  30
ENDBRANCH  21  22
ENDBRANCH   2  20
TORSDOF 11
ENDMDL
MODEL 4
REMARK VINA RESULT:      -7.8      2.081     11.076
REMARK  11 active torsions:
REMARK  status: ('A' for Active; 'I' for Inactive)
REMARK    1  A    between atoms: C_4  and  C_5 
REMARK       I    between atoms: C_5  and  N_6 
REMARK    2  A    between atoms: N_6  and  C_7 
REMARK    3  A    between atoms: C_7  and  C_8 
REMARK    4  A    between atoms: C_8  and  C_9 
REMARK    5  A    between atoms: C_9  and  C_10 
REMARK    6  A    between atoms: C_10  and  C_11 
REMARK    7  A    between atoms: C_11  and  C_12 
REMARK       I    between atoms: C_12  and  N_13 
REMARK    8  A    between atoms: N_13  and  N_14 
REMARK    9  A    between atoms: C_15  and  C_16 
REMARK   10  A    between atoms: C_17  and  O_18 
REMARK   11  A    between atoms: C_20  and  O_21 
ROOT
HETATM    1  C   UNL     1      43.098 -12.995   5.126  1.00  0.00     0.237 C 
HETATM    2  N   UNL     1      42.956 -14.246   5.715  1.00  0.00    -0.247 N 
HETATM    3  O   UNL     1      43.144 -12.802   3.915  1.00  0.00    -0.272 OA
HETATM    4  H   UNL     1      42.929 -14.350   6.723  1.00  0.00     0.192 HD
ENDROOT
BRANCH   1   5
HETATM    5  C   UNL     1      43.181 -11.878   6.151  1.00  0.00     0.105 C 
BRANCH   5   6
HETATM    6  C   UNL     1      44.391 -12.047   7.068  1.00  0.00     0.009 C 
BRANCH   6   7
HETATM    7  C   UNL     1      45.358 -10.869   6.969  1.00  0.00     0.002 C 
BRANCH   7   8
HETATM    8  C   UNL     1      45.008  -9.792   7.998  1.00  0.00     0.020 C 
BRANCH   8   9
HETATM    9  C   UNL     1      45.304 -10.253   9.423  1.00  0.00     0.123 C 
BRANCH   9  10
HETATM   10  N   UNL     1      44.458  -9.563  10.378  1.00  0.00    -0.357 N 
HETATM   11  C   UNL     1      43.844 -10.237  11.416  1.00  0.00     0.251 C 
HETATM   12  O   UNL     1      43.931 -11.452  11.562  1.00  0.00    -0.268 OA
HETATM   13  H   UNL     1      44.513  -8.557  10.398  1.00  0.00     0.162 HD
BRANCH  11  14
HETATM   14  C   UNL     1      43.069  -9.419  12.399  1.00  0.00     0.032 A 
HETATM   15  C   UNL     1      41.922  -9.891  13.052  1.00  0.00     0.017 A 
HETATM   16  C   UNL     1      41.245  -9.076  13.964  1.00  0.00     0.001 A 
HETATM   17  C   UNL     1      41.715  -7.794  14.242  1.00  0.00     0.000 A 
HETATM   18  C   UNL     1      42.864  -7.321  13.611  1.00  0.00     0.001 A 
HETATM   19  C   UNL     1      43.539  -8.130  12.694  1.00  0.00     0.017 A 
ENDBRANCH  11  14
ENDBRANCH   9  10
ENDBRANCH   8   9
ENDBRANCH   7   8
ENDBRANCH   6   7
ENDBRANCH   5   6
ENDBRANCH   1   5
BRANCH   2  20
HETATM   20  N   UNL     1      42.869 -15.338   4.913  1.00  0.00    -0.184 NA
HETATM   21  C   UNL     1      43.734 -16.279   5.112  1.00  0.00     0.153 C 
BRANCH  21  22
HETATM   22  C   UNL     1      43.710 -17.500   4.280  1.00  0.00     0.016 A 
HETATM   23  C   UNL     1      43.300 -17.478   2.939  1.00  0.00     0.080 A 
HETATM   24  C   UNL     1      43.293 -18.648   2.183  1.00  0.00     0.074 A 
HETATM   25  C   UNL     1      43.696 -19.841   2.775  1.00  0.00     0.068 A 
HETATM   26  C   UNL     1      44.103 -19.879   4.106  1.00  0.00     0.037 A 
HETATM   27  C   UNL     1      44.112 -18.706   4.864  1.00  0.00     0.018 A 
BRANCH  23  28
HETATM   28  O   UNL     1      42.892 -16.342   2.293  1.00  0.00    -0.360 OA
HETATM   29  H   UNL     1      42.563 -15.698   2.964  1.00  0.00     0.217 HD
ENDBRANCH  23  28
BRANCH  25  30
HETATM   30  O   UNL     1      43.705 -21.011   2.074  1.00  0.00    -0.361 OA
HETATM   31  H   UNL     1      43.368 -20.837   1.179  1.00  0.00     0.217 HD
ENDBRANCH  25  30
ENDBRANCH  21  22
ENDBRANCH   2  20
TORSDOF 11
ENDMDL
MODEL 5
REMARK VINA RESULT:      -7.7      2.189     11.127
REMARK  11 active torsions:
REMARK  status: ('A' for Active; 'I' for Inactive)
REMARK    1  A    between atoms: C_4  and  C_5 
REMARK       I    between atoms: C_5  and  N_6 
REMARK    2  A    between atoms: N_6  and  C_7 
REMARK    3  A    between atoms: C_7  and  C_8 
REMARK    4  A    between atoms: C_8  and  C_9 
REMARK    5  A    between atoms: C_9  and  C_10 
REMARK    6  A    between atoms: C_10  and  C_11 
REMARK    7  A    between atoms: C_11  and  C_12 
REMARK       I    between atoms: C_12  and  N_13 
REMARK    8  A    between atoms: N_13  and  N_14 
REMARK    9  A    between atoms: C_15  and  C_16 
REMARK   10  A    between atoms: C_17  and  O_18 
REMARK   11  A    between atoms: C_20  and  O_21 
ROOT
HETATM    1  C   UNL     1      41.594 -13.470   4.499  1.00  0.00     0.237 C 
HETATM    2  N   UNL     1      42.661 -14.119   3.891  1.00  0.00    -0.247 N 
HETATM    3  O   UNL     1      40.766 -14.023   5.217  1.00  0.00    -0.272 OA
HETATM    4  H   UNL     1      43.314 -13.614   3.302  1.00  0.00     0.192 HD
ENDROOT
BRANCH   1   5
HETATM    5  C   UNL     1      41.564 -11.985   4.187  1.00  0.00     0.105 C 
BRANCH   5   6
HETATM    6  C   UNL     1      42.705 -11.242   4.881  1.00  0.00     0.009 C 
BRANCH   6   7
HETATM    7  C   UNL     1      42.782 -11.568   6.372  1.00  0.00     0.002 C 
BRANCH   7   8
HETATM    8  C   UNL     1      43.055 -10.304   7.189  1.00  0.00     0.020 C 
BRANCH   8   9
HETATM    9  C   UNL     1      43.926 -10.594   8.408  1.00  0.00     0.123 C 
BRANCH   9  10
HETATM   10  N   UNL     1      43.445  -9.875   9.573  1.00  0.00    -0.357 N 
HETATM   11  C   UNL     1      43.523 -10.419  10.840  1.00  0.00     0.251 C 
HETATM   12  O   UNL     1      43.949 -11.550  11.051  1.00  0.00    -0.268 OA
HETATM   13  H   UNL     1      43.265  -8.889   9.462  1.00  0.00     0.162 HD
BRANCH  11  14
HETATM   14  C   UNL     1      43.087  -9.558  11.982  1.00  0.00     0.032 A 
HETATM   15  C   UNL     1      43.629  -8.290  12.234  1.00  0.00     0.017 A 
HETATM   16  C   UNL     1      43.174  -7.533  13.318  1.00  0.00     0.001 A 
HETATM   17  C   UNL     1      42.169  -8.028  14.147  1.00  0.00     0.000 A 
HETATM   18  C   UNL     1      41.613  -9.281  13.895  1.00  0.00     0.001 A 
HETATM   19  C   UNL     1      42.070 -10.043  12.818  1.00  0.00     0.017 A 
ENDBRANCH  11  14
ENDBRANCH   9  10
ENDBRANCH   8   9
ENDBRANCH   7   8
ENDBRANCH   6   7
ENDBRANCH   5   6
ENDBRANCH   1   5
BRANCH   2  20
HETATM   20  N   UNL     1      42.809 -15.455   4.085  1.00  0.00    -0.184 NA
HETATM   21  C   UNL     1      43.349 -16.129   3.122  1.00  0.00     0.153 C 
BRANCH  21  22
HETATM   22  C   UNL     1      43.541 -17.588   3.253  1.00  0.00     0.016 A 
HETATM   23  C   UNL     1      44.085 -18.166   4.409  1.00  0.00     0.080 A 
HETATM   24  C   UNL     1      44.250 -19.546   4.498  1.00  0.00     0.074 A 
HETATM   25  C   UNL     1      43.870 -20.346   3.424  1.00  0.00     0.068 A 
HETATM   26  C   UNL     1      43.331 -19.787   2.269  1.00  0.00     0.037 A 
HETATM   27  C   UNL     1      43.164 -18.403   2.180  1.00  0.00     0.018 A 
BRANCH  23  28
HETATM   28  O   UNL     1      44.479 -17.441   5.501  1.00  0.00    -0.360 OA
HETATM   29  H   UNL     1      44.466 -18.030   6.292  1.00  0.00     0.217 HD
ENDBRANCH  23  28
BRANCH  25  30
HETATM   30  O   UNL     1      44.013 -21.702   3.466  1.00  0.00    -0.361 OA
HETATM   31  H   UNL     1      44.631 -21.925   4.183  1.00  0.00     0.217 HD
ENDBRANCH  25  30
ENDBRANCH  21  22
ENDBRANCH   2  20
TORSDOF 11
ENDMDL
MODEL 6
REMARK VINA RESULT:      -7.7      5.870     10.095
REMARK  11 active torsions:
REMARK  status: ('A' for Active; 'I' for Inactive)
REMARK    1  A    between atoms: C_4  and  C_5 
REMARK       I    between atoms: C_5  and  N_6 
REMARK    2  A    between atoms: N_6  and  C_7 
REMARK    3  A    between atoms: C_7  and  C_8 
REMARK    4  A    between atoms: C_8  and  C_9 
REMARK    5  A    between atoms: C_9  and  C_10 
REMARK    6  A    between atoms: C_10  and  C_11 
REMARK    7  A    between atoms: C_11  and  C_12 
REMARK       I    between atoms: C_12  and  N_13 
REMARK    8  A    between atoms: N_13  and  N_14 
REMARK    9  A    between atoms: C_15  and  C_16 
REMARK   10  A    between atoms: C_17  and  O_18 
REMARK   11  A    between atoms: C_20  and  O_21 
ROOT
HETATM    1  C   UNL     1      40.555 -14.831   1.240  1.00  0.00     0.237 C 
HETATM    2  N   UNL     1      41.807 -15.432   1.226  1.00  0.00    -0.247 N 
HETATM    3  O   UNL     1      39.631 -15.172   1.973  1.00  0.00    -0.272 OA
HETATM    4  H   UNL     1      42.534 -15.113   0.595  1.00  0.00     0.192 HD
ENDROOT
BRANCH   1   5
HETATM    5  C   UNL     1      40.450 -13.686   0.249  1.00  0.00     0.105 C 
BRANCH   5   6
HETATM    6  C   UNL     1      41.320 -12.501   0.665  1.00  0.00     0.009 C 
BRANCH   6   7
HETATM    7  C   UNL     1      40.770 -11.789   1.901  1.00  0.00     0.002 C 
BRANCH   7   8
HETATM    8  C   UNL     1      41.609 -10.553   2.231  1.00  0.00     0.020 C 
BRANCH   8   9
HETATM    9  C   UNL     1      42.502 -10.782   3.447  1.00  0.00     0.123 C 
BRANCH   9  10
HETATM   10  N   UNL     1      42.198 -12.049   4.083  1.00  0.00    -0.357 N 
HETATM   11  C   UNL     1      42.993 -12.559   5.091  1.00  0.00     0.251 C 
HETATM   12  O   UNL     1      44.021 -12.006   5.470  1.00  0.00    -0.268 OA
HETATM   13  H   UNL     1      41.279 -12.431   3.930  1.00  0.00     0.162 HD
BRANCH  11  14
HETATM   14  C   UNL     1      42.541 -13.825   5.745  1.00  0.00     0.032 A 
HETATM   15  C   UNL     1      43.107 -14.320   6.928  1.00  0.00     0.017 A 
HETATM   16  C   UNL     1      42.634 -15.509   7.491  1.00  0.00     0.001 A 
HETATM   17  C   UNL     1      41.588 -16.204   6.887  1.00  0.00     0.000 A 
HETATM   18  C   UNL     1      41.008 -15.712   5.720  1.00  0.00     0.001 A 
HETATM   19  C   UNL     1      41.481 -14.528   5.151  1.00  0.00     0.017 A 
ENDBRANCH  11  14
ENDBRANCH   9  10
ENDBRANCH   8   9
ENDBRANCH   7   8
ENDBRANCH   6   7
ENDBRANCH   5   6
ENDBRANCH   1   5
BRANCH   2  20
HETATM   20  N   UNL     1      42.040 -16.474   2.065  1.00  0.00    -0.184 NA
HETATM   21  C   UNL     1      43.158 -17.107   1.913  1.00  0.00     0.153 C 
BRANCH  21  22
HETATM   22  C   UNL     1      43.486 -18.255   2.783  1.00  0.00     0.016 A 
HETATM   23  C   UNL     1      43.952 -18.085   4.095  1.00  0.00     0.080 A 
HETATM   24  C   UNL     1      44.249 -19.191   4.888  1.00  0.00     0.074 A 
HETATM   25  C   UNL     1      44.080 -20.468   4.362  1.00  0.00     0.068 A 
HETATM   26  C   UNL     1      43.621 -20.653   3.061  1.00  0.00     0.037 A 
HETATM   27  C   UNL     1      43.321 -19.545   2.266  1.00  0.00     0.018 A 
BRANCH  23  28
HETATM   28  O   UNL     1      44.141 -16.860   4.676  1.00  0.00    -0.360 OA
HETATM   29  H   UNL     1      44.994 -16.874   5.171  1.00  0.00     0.217 HD
ENDBRANCH  23  28
BRANCH  25  30
HETATM   30  O   UNL     1      44.359 -21.580   5.101  1.00  0.00    -0.361 OA
HETATM   31  H   UNL     1      43.574 -22.155   5.102  1.00  0.00     0.217 HD
ENDBRANCH  25  30
ENDBRANCH  21  22
ENDBRANCH   2  20
TORSDOF 11
ENDMDL
MODEL 7
REMARK VINA RESULT:      -7.7      6.806     10.215
REMARK  11 active torsions:
REMARK  status: ('A' for Active; 'I' for Inactive)
REMARK    1  A    between atoms: C_4  and  C_5 
REMARK       I    between atoms: C_5  and  N_6 
REMARK    2  A    between atoms: N_6  and  C_7 
REMARK    3  A    between atoms: C_7  and  C_8 
REMARK    4  A    between atoms: C_8  and  C_9 
REMARK    5  A    between atoms: C_9  and  C_10 
REMARK    6  A    between atoms: C_10  and  C_11 
REMARK    7  A    between atoms: C_11  and  C_12 
REMARK       I    between atoms: C_12  and  N_13 
REMARK    8  A    between atoms: N_13  and  N_14 
REMARK    9  A    between atoms: C_15  and  C_16 
REMARK   10  A    between atoms: C_17  and  O_18 
REMARK   11  A    between atoms: C_20  and  O_21 
ROOT
HETATM    1  C   UNL     1      42.886 -13.229   3.633  1.00  0.00     0.237 C 
HETATM    2  N   UNL     1      42.632 -14.293   2.778  1.00  0.00    -0.247 N 
HETATM    3  O   UNL     1      43.255 -13.349   4.798  1.00  0.00    -0.272 OA
HETATM    4  H   UNL     1      42.325 -14.137   1.824  1.00  0.00     0.192 HD
ENDROOT
BRANCH   1   5
HETATM    5  C   UNL     1      42.668 -11.883   2.965  1.00  0.00     0.105 C 
BRANCH   5   6
HETATM    6  C   UNL     1      41.864 -10.938   3.856  1.00  0.00     0.009 C 
BRANCH   6   7
HETATM    7  C   UNL     1      40.387 -10.897   3.468  1.00  0.00     0.002 C 
BRANCH   7   8
HETATM    8  C   UNL     1      39.650 -12.124   4.009  1.00  0.00     0.020 C 
BRANCH   8   9
HETATM    9  C   UNL     1      38.698 -12.715   2.974  1.00  0.00     0.123 C 
BRANCH   9  10
HETATM   10  N   UNL     1      39.206 -12.519   1.629  1.00  0.00    -0.357 N 
HETATM   11  C   UNL     1      39.807 -13.546   0.928  1.00  0.00     0.251 C 
HETATM   12  O   UNL     1      39.994 -14.658   1.411  1.00  0.00    -0.268 OA
HETATM   13  H   UNL     1      38.908 -11.689   1.142  1.00  0.00     0.162 HD
BRANCH  11  14
HETATM   14  C   UNL     1      40.211 -13.266  -0.484  1.00  0.00     0.032 A 
HETATM   15  C   UNL     1      39.929 -14.136  -1.547  1.00  0.00     0.017 A 
HETATM   16  C   UNL     1      40.331 -13.813  -2.846  1.00  0.00     0.001 A 
HETATM   17  C   UNL     1      41.003 -12.617  -3.096  1.00  0.00     0.000 A 
HETATM   18  C   UNL     1      41.273 -11.739  -2.049  1.00  0.00     0.001 A 
HETATM   19  C   UNL     1      40.879 -12.061  -0.749  1.00  0.00     0.017 A 
ENDBRANCH  11  14
ENDBRANCH   9  10
ENDBRANCH   8   9
ENDBRANCH   7   8
ENDBRANCH   6   7
ENDBRANCH   5   6
ENDBRANCH   1   5
BRANCH   2  20
HETATM   20  N   UNL     1      42.789 -15.558   3.246  1.00  0.00    -0.184 NA
HETATM   21  C   UNL     1      43.332 -16.415   2.444  1.00  0.00     0.153 C 
BRANCH  21  22
HETATM   22  C   UNL     1      43.534 -17.814   2.875  1.00  0.00     0.016 A 
HETATM   23  C   UNL     1      44.079 -18.135   4.126  1.00  0.00     0.080 A 
HETATM   24  C   UNL     1      44.253 -19.466   4.500  1.00  0.00     0.074 A 
HETATM   25  C   UNL     1      43.879 -20.474   3.617  1.00  0.00     0.068 A 
HETATM   26  C   UNL     1      43.338 -20.170   2.371  1.00  0.00     0.037 A 
HETATM   27  C   UNL     1      43.162 -18.836   1.996  1.00  0.00     0.018 A 
BRANCH  23  28
HETATM   28  O   UNL     1      44.468 -17.197   5.044  1.00  0.00    -0.360 OA
HETATM   29  H   UNL     1      44.173 -16.309   4.732  1.00  0.00     0.217 HD
ENDBRANCH  23  28
BRANCH  25  30
HETATM   30  O   UNL     1      44.030 -21.790   3.940  1.00  0.00    -0.361 OA
HETATM   31  H   UNL     1      43.194 -22.112   4.319  1.00  0.00     0.217 HD
ENDBRANCH  25  30
ENDBRANCH  21  22
ENDBRANCH   2  20
TORSDOF 11
ENDMDL
MODEL 8
REMARK VINA RESULT:      -7.6      4.564     10.353
REMARK  11 active torsions:
REMARK  status: ('A' for Active; 'I' for Inactive)
REMARK    1  A    between atoms: C_4  and  C_5 
REMARK       I    between atoms: C_5  and  N_6 
REMARK    2  A    between atoms: N_6  and  C_7 
REMARK    3  A    between atoms: C_7  and  C_8 
REMARK    4  A    between atoms: C_8  and  C_9 
REMARK    5  A    between atoms: C_9  and  C_10 
REMARK    6  A    between atoms: C_10  and  C_11 
REMARK    7  A    between atoms: C_11  and  C_12 
REMARK       I    between atoms: C_12  and  N_13 
REMARK    8  A    between atoms: N_13  and  N_14 
REMARK    9  A    between atoms: C_15  and  C_16 
REMARK   10  A    between atoms: C_17  and  O_18 
REMARK   11  A    between atoms: C_20  and  O_21 
ROOT
HETATM    1  C   UNL     1      40.947 -14.041   2.301  1.00  0.00     0.237 C 
HETATM    2  N   UNL     1      42.135 -14.413   2.917  1.00  0.00    -0.247 N 
HETATM    3  O   UNL     1      40.020 -14.809   2.063  1.00  0.00    -0.272 OA
HETATM    4  H   UNL     1      42.872 -13.737   3.086  1.00  0.00     0.192 HD
ENDROOT
BRANCH   1   5
HETATM    5  C   UNL     1      40.911 -12.562   1.957  1.00  0.00     0.105 C 
BRANCH   5   6
HETATM    6  C   UNL     1      40.232 -11.747   3.055  1.00  0.00     0.009 C 
BRANCH   6   7
HETATM    7  C   UNL     1      39.375 -12.617   3.973  1.00  0.00     0.002 C 
BRANCH   7   8
HETATM    8  C   UNL     1      39.684 -12.323   5.442  1.00  0.00     0.020 C 
BRANCH   8   9
HETATM    9  C   UNL     1      40.789 -13.228   5.980  1.00  0.00     0.123 C 
BRANCH   9  10
HETATM   10  N   UNL     1      41.808 -12.453   6.662  1.00  0.00    -0.357 N 
HETATM   11  C   UNL     1      43.016 -12.159   6.058  1.00  0.00     0.251 C 
HETATM   12  O   UNL     1      43.319 -12.574   4.945  1.00  0.00    -0.268 OA
HETATM   13  H   UNL     1      41.526 -11.948   7.488  1.00  0.00     0.162 HD
BRANCH  11  14
HETATM   14  C   UNL     1      43.959 -11.275   6.810  1.00  0.00     0.032 A 
HETATM   15  C   UNL     1      43.532 -10.205   7.609  1.00  0.00     0.017 A 
HETATM   16  C   UNL     1      44.466  -9.418   8.290  1.00  0.00     0.001 A 
HETATM   17  C   UNL     1      45.827  -9.700   8.190  1.00  0.00     0.000 A 
HETATM   18  C   UNL     1      46.260 -10.771   7.411  1.00  0.00     0.001 A 
HETATM   19  C   UNL     1      45.331 -11.555   6.724  1.00  0.00     0.017 A 
ENDBRANCH  11  14
ENDBRANCH   9  10
ENDBRANCH   8   9
ENDBRANCH   7   8
ENDBRANCH   6   7
ENDBRANCH   5   6
ENDBRANCH   1   5
BRANCH   2  20
HETATM   20  N   UNL     1      42.303 -15.711   3.280  1.00  0.00    -0.184 NA
HETATM   21  C   UNL     1      43.228 -16.374   2.666  1.00  0.00     0.153 C 
BRANCH  21  22
HETATM   22  C   UNL     1      43.472 -17.793   2.999  1.00  0.00     0.016 A 
HETATM   23  C   UNL     1      44.038 -18.184   4.221  1.00  0.00     0.080 A 
HETATM   24  C   UNL     1      44.251 -19.531   4.502  1.00  0.00     0.074 A 
HETATM   25  C   UNL     1      43.897 -20.486   3.555  1.00  0.00     0.068 A 
HETATM   26  C   UNL     1      43.336 -20.114   2.336  1.00  0.00     0.037 A 
HETATM   27  C   UNL     1      43.121 -18.763   2.054  1.00  0.00     0.018 A 
BRANCH  23  28
HETATM   28  O   UNL     1      44.410 -17.299   5.198  1.00  0.00    -0.360 OA
HETATM   29  H   UNL     1      44.049 -16.410   4.972  1.00  0.00     0.217 HD
ENDBRANCH  23  28
BRANCH  25  30
HETATM   30  O   UNL     1      44.087 -21.817   3.786  1.00  0.00    -0.361 OA
HETATM   31  H   UNL     1      43.518 -22.085   4.527  1.00  0.00     0.217 HD
ENDBRANCH  25  30
ENDBRANCH  21  22
ENDBRANCH   2  20
TORSDOF 11
ENDMDL
MODEL 9
REMARK VINA RESULT:      -7.6      6.132     10.090
REMARK  11 active torsions:
REMARK  status: ('A' for Active; 'I' for Inactive)
REMARK    1  A    between atoms: C_4  and  C_5 
REMARK       I    between atoms: C_5  and  N_6 
REMARK    2  A    between atoms: N_6  and  C_7 
REMARK    3  A    between atoms: C_7  and  C_8 
REMARK    4  A    between atoms: C_8  and  C_9 
REMARK    5  A    between atoms: C_9  and  C_10 
REMARK    6  A    between atoms: C_10  and  C_11 
REMARK    7  A    between atoms: C_11  and  C_12 
REMARK       I    between atoms: C_12  and  N_13 
REMARK    8  A    between atoms: N_13  and  N_14 
REMARK    9  A    between atoms: C_15  and  C_16 
REMARK   10  A    between atoms: C_17  and  O_18 
REMARK   11  A    between atoms: C_20  and  O_21 
ROOT
HETATM    1  C   UNL     1      42.084 -13.204   3.383  1.00  0.00     0.237 C 
HETATM    2  N   UNL     1      42.202 -13.703   2.092  1.00  0.00    -0.247 N 
HETATM    3  O   UNL     1      41.221 -12.408   3.740  1.00  0.00    -0.272 OA
HETATM    4  H   UNL     1      42.939 -14.357   1.848  1.00  0.00     0.192 HD
ENDROOT
BRANCH   1   5
HETATM    5  C   UNL     1      43.142 -13.760   4.319  1.00  0.00     0.105 C 
BRANCH   5   6
HETATM    6  C   UNL     1      43.376 -12.838   5.513  1.00  0.00     0.009 C 
BRANCH   6   7
HETATM    7  C   UNL     1      43.285 -13.583   6.844  1.00  0.00     0.002 C 
BRANCH   7   8
HETATM    8  C   UNL     1      42.183 -14.643   6.797  1.00  0.00     0.020 C 
BRANCH   8   9
HETATM    9  C   UNL     1      42.680 -15.999   7.289  1.00  0.00     0.123 C 
BRANCH   9  10
HETATM   10  N   UNL     1      42.681 -16.973   6.214  1.00  0.00    -0.357 N 
HETATM   11  C   UNL     1      43.838 -17.288   5.527  1.00  0.00     0.251 C 
HETATM   12  O   UNL     1      44.910 -16.733   5.744  1.00  0.00    -0.268 OA
HETATM   13  H   UNL     1      41.874 -17.572   6.136  1.00  0.00     0.162 HD
BRANCH  11  14
HETATM   14  C   UNL     1      43.750 -18.372   4.501  1.00  0.00     0.032 A 
HETATM   15  C   UNL     1      43.427 -18.130   3.159  1.00  0.00     0.017 A 
HETATM   16  C   UNL     1      43.365 -19.189   2.248  1.00  0.00     0.001 A 
HETATM   17  C   UNL     1      43.639 -20.490   2.665  1.00  0.00     0.000 A 
HETATM   18  C   UNL     1      43.978 -20.739   3.993  1.00  0.00     0.001 A 
HETATM   19  C   UNL     1      44.034 -19.685   4.908  1.00  0.00     0.017 A 
ENDBRANCH  11  14
ENDBRANCH   9  10
ENDBRANCH   8   9
ENDBRANCH   7   8
ENDBRANCH   6   7
ENDBRANCH   5   6
ENDBRANCH   1   5
BRANCH   2  20
HETATM   20  N   UNL     1      41.319 -13.289   1.148  1.00  0.00    -0.184 NA
HETATM   21  C   UNL     1      40.606 -14.203   0.574  1.00  0.00     0.153 C 
BRANCH  21  22
HETATM   22  C   UNL     1      39.624 -13.835  -0.467  1.00  0.00     0.016 A 
HETATM   23  C   UNL     1      38.895 -12.638  -0.413  1.00  0.00     0.080 A 
HETATM   24  C   UNL     1      37.979 -12.323  -1.414  1.00  0.00     0.074 A 
HETATM   25  C   UNL     1      37.794 -13.211  -2.469  1.00  0.00     0.068 A 
HETATM   26  C   UNL     1      38.509 -14.404  -2.536  1.00  0.00     0.037 A 
HETATM   27  C   UNL     1      39.428 -14.720  -1.533  1.00  0.00     0.018 A 
BRANCH  23  28
HETATM   28  O   UNL     1      39.026 -11.719   0.593  1.00  0.00    -0.360 OA
HETATM   29  H   UNL     1      39.855 -11.206   0.446  1.00  0.00     0.217 HD
ENDBRANCH  23  28
BRANCH  25  30
HETATM   30  O   UNL     1      36.908 -12.945  -3.472  1.00  0.00    -0.361 OA
HETATM   31  H   UNL     1      36.372 -12.176  -3.213  1.00  0.00     0.217 HD
ENDBRANCH  25  30
ENDBRANCH  21  22
ENDBRANCH   2  20
TORSDOF 11
ENDMDL
MODEL 10
REMARK VINA RESULT:      -7.6      6.354     10.316
REMARK  11 active torsions:
REMARK  status: ('A' for Active; 'I' for Inactive)
REMARK    1  A    between atoms: C_4  and  C_5 
REMARK       I    between atoms: C_5  and  N_6 
REMARK    2  A    between atoms: N_6  and  C_7 
REMARK    3  A    between atoms: C_7  and  C_8 
REMARK    4  A    between atoms: C_8  and  C_9 
REMARK    5  A    between atoms: C_9  and  C_10 
REMARK    6  A    between atoms: C_10  and  C_11 
REMARK    7  A    between atoms: C_11  and  C_12 
REMARK       I    between atoms: C_12  and  N_13 
REMARK    8  A    between atoms: N_13  and  N_14 
REMARK    9  A    between atoms: C_15  and  C_16 
REMARK   10  A    between atoms: C_17  and  O_18 
REMARK   11  A    between atoms: C_20  and  O_21 
ROOT
HETATM    1  C   UNL     1      40.506 -11.234   3.517  1.00  0.00     0.237 C 
HETATM    2  N   UNL     1      41.130 -12.085   2.615  1.00  0.00    -0.247 N 
HETATM    3  O   UNL     1      39.330 -10.889   3.444  1.00  0.00    -0.272 OA
HETATM    4  H   UNL     1      42.108 -12.334   2.719  1.00  0.00     0.192 HD
ENDROOT
BRANCH   1   5
HETATM    5  C   UNL     1      41.440 -10.775   4.623  1.00  0.00     0.105 C 
BRANCH   5   6
HETATM    6  C   UNL     1      42.266 -11.935   5.176  1.00  0.00     0.009 C 
BRANCH   6   7
HETATM    7  C   UNL     1      41.427 -12.886   6.028  1.00  0.00     0.002 C 
BRANCH   7   8
HETATM    8  C   UNL     1      41.439 -14.297   5.436  1.00  0.00     0.020 C 
BRANCH   8   9
HETATM    9  C   UNL     1      42.782 -14.629   4.792  1.00  0.00     0.123 C 
BRANCH   9  10
HETATM   10  N   UNL     1      42.968 -16.064   4.690  1.00  0.00    -0.357 N 
HETATM   11  C   UNL     1      43.218 -16.675   3.477  1.00  0.00     0.251 C 
HETATM   12  O   UNL     1      43.245 -16.059   2.416  1.00  0.00    -0.268 OA
HETATM   13  H   UNL     1      43.135 -16.567   5.547  1.00  0.00     0.162 HD
BRANCH  11  14
HETATM   14  C   UNL     1      43.488 -18.146   3.494  1.00  0.00     0.032 A 
HETATM   15  C   UNL     1      43.977 -18.820   4.622  1.00  0.00     0.017 A 
HETATM   16  C   UNL     1      44.205 -20.199   4.574  1.00  0.00     0.001 A 
HETATM   17  C   UNL     1      43.934 -20.915   3.410  1.00  0.00     0.000 A 
HETATM   18  C   UNL     1      43.431 -20.257   2.289  1.00  0.00     0.001 A 
HETATM   19  C   UNL     1      43.209 -18.878   2.331  1.00  0.00     0.017 A 
ENDBRANCH  11  14
ENDBRANCH   9  10
ENDBRANCH   8   9
ENDBRANCH   7   8
ENDBRANCH   6   7
ENDBRANCH   5   6
ENDBRANCH   1   5
BRANCH   2  20
HETATM   20  N   UNL     1      40.410 -12.572   1.571  1.00  0.00    -0.184 NA
HETATM   21  C   UNL     1      41.013 -12.644   0.429  1.00  0.00     0.153 C 
BRANCH  21  22
HETATM   22  C   UNL     1      40.298 -13.159  -0.757  1.00  0.00     0.016 A 
HETATM   23  C   UNL     1      39.667 -14.411  -0.761  1.00  0.00     0.080 A 
HETATM   24  C   UNL     1      39.000 -14.863  -1.897  1.00  0.00     0.074 A 
HETATM   25  C   UNL     1      38.968 -14.057  -3.031  1.00  0.00     0.068 A 
HETATM   26  C   UNL     1      39.591 -12.812  -3.043  1.00  0.00     0.037 A 
HETATM   27  C   UNL     1      40.259 -12.358  -1.904  1.00  0.00     0.018 A 
BRANCH  23  28
HETATM   28  O   UNL     1      39.659 -15.255   0.317  1.00  0.00    -0.360 OA
HETATM   29  H   UNL     1      40.483 -15.109   0.839  1.00  0.00     0.217 HD
ENDBRANCH  23  28
BRANCH  25  30
HETATM   30  O   UNL     1      38.327 -14.458  -4.166  1.00  0.00    -0.361 OA
HETATM   31  H   UNL     1      38.526 -13.821  -4.873  1.00  0.00     0.217 HD
ENDBRANCH  25  30
ENDBRANCH  21  22
ENDBRANCH   2  20
TORSDOF 11
ENDMDL
