MODEL 1
REMARK VINA RESULT:      -8.5      0.000      0.000
REMARK  6 active torsions:
REMARK  status: ('A' for Active; 'I' for Inactive)
REMARK    1  A    between atoms: C_4  and  C_5 
REMARK    2  A    between atoms: C_9  and  N_10 
REMARK       I    between atoms: N_10  and  C_11 
REMARK    3  A    between atoms: C_11  and  C_12 
REMARK    4  A    between atoms: C_12  and  C_13 
REMARK    5  A    between atoms: C_13  and  C_14 
REMARK    6  A    between atoms: C_13  and  C_20 
ROOT
HETATM    1  N   UNL     1      43.206 -14.465   5.078  1.00  0.00    -0.312 N 
HETATM    2  C   UNL     1      42.107 -15.295   5.107  1.00  0.00     0.224 C 
HETATM    3  O   UNL     1      41.267 -15.271   6.013  1.00  0.00    -0.273 OA
HETATM    4  H   UNL     1      43.907 -14.549   4.356  1.00  0.00     0.170 HD
ENDROOT
BRANCH   1   5
HETATM    5  C   UNL     1      43.469 -13.551   6.083  1.00  0.00     0.132 A 
HETATM    6  N   UNL     1      43.315 -13.814   7.419  1.00  0.00    -0.261 N 
HETATM    7  N   UNL     1      43.631 -12.780   8.215  1.00  0.00    -0.170 NA
HETATM    8  H   UNL     1      43.003 -14.691   7.827  1.00  0.00     0.191 HD
HETATM    9  C   UNL     1      44.004 -11.820   7.357  1.00  0.00     0.120 A 
HETATM   10  C   UNL     1      43.924 -12.250   5.998  1.00  0.00     0.017 A 
HETATM   11  C   UNL     1      44.262 -11.467   4.785  1.00  0.00     0.055 C 
BRANCH   9  12
HETATM   12  C   UNL     1      44.445 -10.469   7.823  1.00  0.00     0.106 A 
HETATM   13  O   UNL     1      43.604  -9.457   8.202  1.00  0.00    -0.313 OA
HETATM   14  C   UNL     1      44.374  -8.393   8.558  1.00  0.00     0.050 A 
HETATM   15  C   UNL     1      43.660  -7.185   9.013  1.00  0.00     0.076 C 
HETATM   16  C   UNL     1      45.709  -8.704   8.413  1.00  0.00     0.035 A 
HETATM   17  C   UNL     1      45.753 -10.038   7.941  1.00  0.00     0.042 A 
ENDBRANCH   9  12
ENDBRANCH   1   5
BRANCH   2  18
HETATM   18  C   UNL     1      41.916 -16.265   3.945  1.00  0.00     0.116 C 
BRANCH  18  19
HETATM   19  C   UNL     1      43.149 -16.739   3.149  1.00  0.00     0.049 C 
BRANCH  19  20
HETATM   20  C   UNL     1      43.435 -18.235   3.240  1.00  0.00    -0.050 A 
HETATM   21  C   UNL     1      43.202 -19.117   2.173  1.00  0.00     0.008 A 
HETATM   22  C   UNL     1      43.447 -20.485   2.314  1.00  0.00     0.001 A 
HETATM   23  C   UNL     1      43.938 -20.990   3.516  1.00  0.00     0.000 A 
HETATM   24  C   UNL     1      44.196 -20.127   4.576  1.00  0.00     0.001 A 
HETATM   25  C   UNL     1      43.952 -18.759   4.440  1.00  0.00     0.008 A 
ENDBRANCH  19  20
BRANCH  19  26
HETATM   26  C   UNL     1      43.058 -16.216   1.722  1.00  0.00    -0.027 C 
HETATM   27  C   UNL     1      42.476 -15.090   1.288  1.00  0.00     0.007 C 
ENDBRANCH  19  26
ENDBRANCH  18  19
ENDBRANCH   2  18
TORSDOF 6
ENDMDL
MODEL 2
REMARK VINA RESULT:      -8.3      1.367      1.843
REMARK  6 active torsions:
REMARK  status: ('A' for Active; 'I' for Inactive)
REMARK    1  A    between atoms: C_4  and  C_5 
REMARK    2  A    between atoms: C_9  and  N_10 
REMARK       I    between atoms: N_10  and  C_11 
REMARK    3  A    between atoms: C_11  and  C_12 
REMARK    4  A    between atoms: C_12  and  C_13 
REMARK    5  A    between atoms: C_13  and  C_14 
REMARK    6  A    between atoms: C_13  and  C_20 
ROOT
HETATM    1  N   UNL     1      42.934 -13.403   5.077  1.00  0.00    -0.312 N 
HETATM    2  C   UNL     1      42.971 -14.777   5.179  1.00  0.00     0.224 C 
HETATM    3  O   UNL     1      43.443 -15.368   6.156  1.00  0.00    -0.273 OA
HETATM    4  H   UNL     1      42.596 -12.949   4.241  1.00  0.00     0.170 HD
ENDROOT
BRANCH   1   5
HETATM    5  C   UNL     1      43.452 -12.575   6.057  1.00  0.00     0.132 A 
HETATM    6  N   UNL     1      44.703 -12.714   6.596  1.00  0.00    -0.261 N 
HETATM    7  N   UNL     1      44.995 -11.796   7.532  1.00  0.00    -0.170 NA
HETATM    8  H   UNL     1      45.392 -13.420   6.347  1.00  0.00     0.191 HD
HETATM    9  C   UNL     1      43.890 -11.040   7.591  1.00  0.00     0.120 A 
HETATM   10  C   UNL     1      42.884 -11.483   6.681  1.00  0.00     0.017 A 
HETATM   11  C   UNL     1      41.542 -10.889   6.466  1.00  0.00     0.055 C 
BRANCH   9  12
HETATM   12  C   UNL     1      43.777  -9.874   8.523  1.00  0.00     0.106 A 
HETATM   13  O   UNL     1      43.672  -9.967   9.885  1.00  0.00    -0.313 OA
HETATM   14  C   UNL     1      43.590  -8.701  10.378  1.00  0.00     0.050 A 
HETATM   15  C   UNL     1      43.477  -8.570  11.843  1.00  0.00     0.076 C 
HETATM   16  C   UNL     1      43.642  -7.787   9.349  1.00  0.00     0.035 A 
HETATM   17  C   UNL     1      43.762  -8.541   8.157  1.00  0.00     0.042 A 
ENDBRANCH   9  12
ENDBRANCH   1   5
BRANCH   2  18
HETATM   18  C   UNL     1      42.370 -15.592   4.037  1.00  0.00     0.116 C 
BRANCH  18  19
HETATM   19  C   UNL     1      43.310 -16.281   3.028  1.00  0.00     0.049 C 
BRANCH  19  20
HETATM   20  C   UNL     1      43.485 -17.783   3.237  1.00  0.00    -0.050 A 
HETATM   21  C   UNL     1      44.016 -18.326   4.417  1.00  0.00     0.008 A 
HETATM   22  C   UNL     1      44.188 -19.706   4.551  1.00  0.00     0.001 A 
HETATM   23  C   UNL     1      43.822 -20.563   3.516  1.00  0.00     0.000 A 
HETATM   24  C   UNL     1      43.273 -20.043   2.348  1.00  0.00     0.001 A 
HETATM   25  C   UNL     1      43.100 -18.665   2.210  1.00  0.00     0.008 A 
ENDBRANCH  19  20
BRANCH  19  26
HETATM   26  C   UNL     1      42.895 -15.901   1.614  1.00  0.00    -0.027 C 
HETATM   27  C   UNL     1      41.845 -15.164   1.229  1.00  0.00     0.007 C 
ENDBRANCH  19  26
ENDBRANCH  18  19
ENDBRANCH   2  18
TORSDOF 6
ENDMDL
MODEL 3
REMARK VINA RESULT:      -7.9      3.521      6.812
REMARK  6 active torsions:
REMARK  status: ('A' for Active; 'I' for Inactive)
REMARK    1  A    between atoms: C_4  and  C_5 
REMARK    2  A    between atoms: C_9  and  N_10 
REMARK       I    between atoms: N_10  and  C_11 
REMARK    3  A    between atoms: C_11  and  C_12 
REMARK    4  A    between atoms: C_12  and  C_13 
REMARK    5  A    between atoms: C_13  and  C_14 
REMARK    6  A    between atoms: C_13  and  C_20 
ROOT
HETATM    1  N   UNL     1      41.338 -14.632   4.688  1.00  0.00    -0.312 N 
HETATM    2  C   UNL     1      41.005 -15.788   5.360  1.00  0.00     0.224 C 
HETATM    3  O   UNL     1      40.168 -16.595   4.940  1.00  0.00    -0.273 OA
HETATM    4  H   UNL     1      41.982 -13.963   5.085  1.00  0.00     0.170 HD
ENDROOT
BRANCH   1   5
HETATM    5  C   UNL     1      40.738 -14.271   3.495  1.00  0.00     0.132 A 
HETATM    6  N   UNL     1      39.511 -13.667   3.406  1.00  0.00    -0.261 N 
HETATM    7  N   UNL     1      39.127 -13.405   2.146  1.00  0.00    -0.170 NA
HETATM    8  H   UNL     1      38.908 -13.411   4.184  1.00  0.00     0.191 HD
HETATM    9  C   UNL     1      40.146 -13.855   1.402  1.00  0.00     0.120 A 
HETATM   10  C   UNL     1      41.192 -14.410   2.199  1.00  0.00     0.017 A 
HETATM   11  C   UNL     1      42.471 -14.993   1.725  1.00  0.00     0.055 C 
BRANCH   9  12
HETATM   12  C   UNL     1      40.139 -13.762  -0.091  1.00  0.00     0.106 A 
HETATM   13  O   UNL     1      40.754 -12.778  -0.818  1.00  0.00    -0.313 OA
HETATM   14  C   UNL     1      40.523 -13.034  -2.135  1.00  0.00     0.050 A 
HETATM   15  C   UNL     1      41.111 -12.089  -3.103  1.00  0.00     0.076 C 
HETATM   16  C   UNL     1      39.765 -14.177  -2.270  1.00  0.00     0.035 A 
HETATM   17  C   UNL     1      39.518 -14.643  -0.957  1.00  0.00     0.042 A 
ENDBRANCH   9  12
ENDBRANCH   1   5
BRANCH   2  18
HETATM   18  C   UNL     1      41.732 -16.087   6.668  1.00  0.00     0.116 C 
BRANCH  18  19
HETATM   19  C   UNL     1      43.206 -16.536   6.624  1.00  0.00     0.049 C 
BRANCH  19  20
HETATM   20  C   UNL     1      43.518 -17.611   5.586  1.00  0.00    -0.050 A 
HETATM   21  C   UNL     1      43.719 -17.316   4.229  1.00  0.00     0.008 A 
HETATM   22  C   UNL     1      43.969 -18.337   3.308  1.00  0.00     0.001 A 
HETATM   23  C   UNL     1      44.033 -19.663   3.731  1.00  0.00     0.000 A 
HETATM   24  C   UNL     1      43.859 -19.970   5.077  1.00  0.00     0.001 A 
HETATM   25  C   UNL     1      43.608 -18.953   5.999  1.00  0.00     0.008 A 
ENDBRANCH  19  20
BRANCH  19  26
HETATM   26  C   UNL     1      44.103 -15.310   6.528  1.00  0.00    -0.027 C 
HETATM   27  C   UNL     1      43.808 -14.042   6.843  1.00  0.00     0.007 C 
ENDBRANCH  19  26
ENDBRANCH  18  19
ENDBRANCH   2  18
TORSDOF 6
ENDMDL
MODEL 4
REMARK VINA RESULT:      -7.8      1.919      2.314
REMARK  6 active torsions:
REMARK  status: ('A' for Active; 'I' for Inactive)
REMARK    1  A    between atoms: C_4  and  C_5 
REMARK    2  A    between atoms: C_9  and  N_10 
REMARK       I    between atoms: N_10  and  C_11 
REMARK    3  A    between atoms: C_11  and  C_12 
REMARK    4  A    between atoms: C_12  and  C_13 
REMARK    5  A    between atoms: C_13  and  C_14 
REMARK    6  A    between atoms: C_13  and  C_20 
ROOT
HETATM    1  N   UNL     1      43.158 -13.412   4.454  1.00  0.00    -0.312 N 
HETATM    2  C   UNL     1      42.896 -13.332   3.103  1.00  0.00     0.224 C 
HETATM    3  O   UNL     1      42.363 -12.349   2.577  1.00  0.00    -0.273 OA
HETATM    4  H   UNL     1      43.541 -14.252   4.863  1.00  0.00     0.170 HD
ENDROOT
BRANCH   1   5
HETATM    5  C   UNL     1      42.819 -12.401   5.334  1.00  0.00     0.132 A 
HETATM    6  N   UNL     1      41.553 -11.894   5.469  1.00  0.00    -0.261 N 
HETATM    7  N   UNL     1      41.455 -10.917   6.385  1.00  0.00    -0.170 NA
HETATM    8  H   UNL     1      40.727 -12.194   4.957  1.00  0.00     0.191 HD
HETATM    9  C   UNL     1      42.704 -10.797   6.857  1.00  0.00     0.120 A 
HETATM   10  C   UNL     1      43.607 -11.709   6.232  1.00  0.00     0.017 A 
HETATM   11  C   UNL     1      45.056 -11.866   6.502  1.00  0.00     0.055 C 
BRANCH   9  12
HETATM   12  C   UNL     1      43.057  -9.804   7.918  1.00  0.00     0.106 A 
HETATM   13  O   UNL     1      43.388 -10.120   9.209  1.00  0.00    -0.313 OA
HETATM   14  C   UNL     1      43.642  -8.955   9.866  1.00  0.00     0.050 A 
HETATM   15  C   UNL     1      44.030  -9.069  11.285  1.00  0.00     0.076 C 
HETATM   16  C   UNL     1      43.480  -7.885   9.013  1.00  0.00     0.035 A 
HETATM   17  C   UNL     1      43.104  -8.431   7.763  1.00  0.00     0.042 A 
ENDBRANCH   9  12
ENDBRANCH   1   5
BRANCH   2  18
HETATM   18  C   UNL     1      43.314 -14.508   2.225  1.00  0.00     0.116 C 
BRANCH  18  19
HETATM   19  C   UNL     1      42.441 -15.779   2.202  1.00  0.00     0.049 C 
BRANCH  19  20
HETATM   20  C   UNL     1      43.073 -17.002   2.860  1.00  0.00    -0.050 A 
HETATM   21  C   UNL     1      43.169 -18.244   2.214  1.00  0.00     0.008 A 
HETATM   22  C   UNL     1      43.727 -19.346   2.869  1.00  0.00     0.001 A 
HETATM   23  C   UNL     1      44.205 -19.220   4.171  1.00  0.00     0.000 A 
HETATM   24  C   UNL     1      44.138 -17.990   4.818  1.00  0.00     0.001 A 
HETATM   25  C   UNL     1      43.582 -16.887   4.167  1.00  0.00     0.008 A 
ENDBRANCH  19  20
BRANCH  19  26
HETATM   26  C   UNL     1      41.053 -15.445   2.729  1.00  0.00    -0.027 C 
HETATM   27  C   UNL     1      39.875 -15.583   2.106  1.00  0.00     0.007 C 
ENDBRANCH  19  26
ENDBRANCH  18  19
ENDBRANCH   2  18
TORSDOF 6
ENDMDL
MODEL 5
REMARK VINA RESULT:      -7.7      4.452      7.606
REMARK  6 active torsions:
REMARK  status: ('A' for Active; 'I' for Inactive)
REMARK    1  A    between atoms: C_4  and  C_5 
REMARK    2  A    between atoms: C_9  and  N_10 
REMARK       I    between atoms: N_10  and  C_11 
REMARK    3  A    between atoms: C_11  and  C_12 
REMARK    4  A    between atoms: C_12  and  C_13 
REMARK    5  A    between atoms: C_13  and  C_14 
REMARK    6  A    between atoms: C_13  and  C_20 
ROOT
HETATM    1  N   UNL     1      41.909 -14.496   3.207  1.00  0.00    -0.312 N 
HETATM    2  C   UNL     1      43.060 -15.240   3.055  1.00  0.00     0.224 C 
HETATM    3  O   UNL     1      43.632 -15.382   1.969  1.00  0.00    -0.273 OA
HETATM    4  H   UNL     1      41.431 -14.447   4.095  1.00  0.00     0.170 HD
ENDROOT
BRANCH   1   5
HETATM    5  C   UNL     1      41.289 -13.869   2.142  1.00  0.00     0.132 A 
HETATM    6  N   UNL     1      41.473 -12.551   1.814  1.00  0.00    -0.261 N 
HETATM    7  N   UNL     1      40.770 -12.157   0.740  1.00  0.00    -0.170 NA
HETATM    8  H   UNL     1      42.076 -11.890   2.296  1.00  0.00     0.191 HD
HETATM    9  C   UNL     1      40.114 -13.264   0.364  1.00  0.00     0.120 A 
HETATM   10  C   UNL     1      40.405 -14.376   1.210  1.00  0.00     0.017 A 
HETATM   11  C   UNL     1      39.872 -15.755   1.096  1.00  0.00     0.055 C 
BRANCH   9  12
HETATM   12  C   UNL     1      39.195 -13.278  -0.817  1.00  0.00     0.106 A 
HETATM   13  O   UNL     1      39.203 -14.227  -1.804  1.00  0.00    -0.313 OA
HETATM   14  C   UNL     1      38.228 -13.898  -2.696  1.00  0.00     0.050 A 
HETATM   15  C   UNL     1      38.057 -14.805  -3.848  1.00  0.00     0.076 C 
HETATM   16  C   UNL     1      37.588 -12.746  -2.297  1.00  0.00     0.035 A 
HETATM   17  C   UNL     1      38.210 -12.348  -1.090  1.00  0.00     0.042 A 
ENDBRANCH   9  12
ENDBRANCH   1   5
BRANCH   2  18
HETATM   18  C   UNL     1      43.658 -15.888   4.300  1.00  0.00     0.116 C 
BRANCH  18  19
HETATM   19  C   UNL     1      42.910 -17.055   4.975  1.00  0.00     0.049 C 
BRANCH  19  20
HETATM   20  C   UNL     1      43.342 -18.445   4.513  1.00  0.00    -0.050 A 
HETATM   21  C   UNL     1      43.781 -19.436   5.404  1.00  0.00     0.008 A 
HETATM   22  C   UNL     1      44.198 -20.683   4.932  1.00  0.00     0.001 A 
HETATM   23  C   UNL     1      44.172 -20.961   3.568  1.00  0.00     0.000 A 
HETATM   24  C   UNL     1      43.718 -19.998   2.673  1.00  0.00     0.001 A 
HETATM   25  C   UNL     1      43.302 -18.750   3.140  1.00  0.00     0.008 A 
ENDBRANCH  19  20
BRANCH  19  26
HETATM   26  C   UNL     1      42.947 -16.870   6.485  1.00  0.00    -0.027 C 
HETATM   27  C   UNL     1      43.592 -15.930   7.188  1.00  0.00     0.007 C 
ENDBRANCH  19  26
ENDBRANCH  18  19
ENDBRANCH   2  18
TORSDOF 6
ENDMDL
MODEL 6
REMARK VINA RESULT:      -7.6      1.971      9.120
REMARK  6 active torsions:
REMARK  status: ('A' for Active; 'I' for Inactive)
REMARK    1  A    between atoms: C_4  and  C_5 
REMARK    2  A    between atoms: C_9  and  N_10 
REMARK       I    between atoms: N_10  and  C_11 
REMARK    3  A    between atoms: C_11  and  C_12 
REMARK    4  A    between atoms: C_12  and  C_13 
REMARK    5  A    between atoms: C_13  and  C_14 
REMARK    6  A    between atoms: C_13  and  C_20 
ROOT
HETATM    1  N   UNL     1      42.324 -12.629   6.360  1.00  0.00    -0.312 N 
HETATM    2  C   UNL     1      42.803 -11.378   6.037  1.00  0.00     0.224 C 
HETATM    3  O   UNL     1      43.289 -11.106   4.934  1.00  0.00    -0.273 OA
HETATM    4  H   UNL     1      41.987 -12.836   7.289  1.00  0.00     0.170 HD
ENDROOT
BRANCH   1   5
HETATM    5  C   UNL     1      42.375 -13.691   5.475  1.00  0.00     0.132 A 
HETATM    6  N   UNL     1      41.741 -13.709   4.261  1.00  0.00    -0.261 N 
HETATM    7  N   UNL     1      41.930 -14.843   3.567  1.00  0.00    -0.170 NA
HETATM    8  H   UNL     1      41.174 -12.962   3.866  1.00  0.00     0.191 HD
HETATM    9  C   UNL     1      42.717 -15.577   4.366  1.00  0.00     0.120 A 
HETATM   10  C   UNL     1      43.032 -14.900   5.583  1.00  0.00     0.017 A 
HETATM   11  C   UNL     1      43.878 -15.397   6.694  1.00  0.00     0.055 C 
BRANCH   9  12
HETATM   12  C   UNL     1      43.185 -16.944   3.978  1.00  0.00     0.106 A 
HETATM   13  O   UNL     1      43.541 -17.930   4.859  1.00  0.00    -0.313 OA
HETATM   14  C   UNL     1      43.908 -19.020   4.130  1.00  0.00     0.050 A 
HETATM   15  C   UNL     1      44.324 -20.212   4.892  1.00  0.00     0.076 C 
HETATM   16  C   UNL     1      43.791 -18.751   2.784  1.00  0.00     0.035 A 
HETATM   17  C   UNL     1      43.327 -17.418   2.687  1.00  0.00     0.042 A 
ENDBRANCH   9  12
ENDBRANCH   1   5
BRANCH   2  18
HETATM   18  C   UNL     1      42.696 -10.280   7.091  1.00  0.00     0.116 C 
BRANCH  18  19
HETATM   19  C   UNL     1      43.954  -9.871   7.884  1.00  0.00     0.049 C 
BRANCH  19  20
HETATM   20  C   UNL     1      43.695  -9.474   9.335  1.00  0.00    -0.050 A 
HETATM   21  C   UNL     1      43.382  -8.159   9.715  1.00  0.00     0.008 A 
HETATM   22  C   UNL     1      43.186  -7.835  11.060  1.00  0.00     0.001 A 
HETATM   23  C   UNL     1      43.288  -8.819  12.041  1.00  0.00     0.000 A 
HETATM   24  C   UNL     1      43.574 -10.131  11.679  1.00  0.00     0.001 A 
HETATM   25  C   UNL     1      43.772 -10.459  10.337  1.00  0.00     0.008 A 
ENDBRANCH  19  20
BRANCH  19  26
HETATM   26  C   UNL     1      45.021 -10.944   7.721  1.00  0.00    -0.027 C 
HETATM   27  C   UNL     1      46.229 -10.830   7.153  1.00  0.00     0.007 C 
ENDBRANCH  19  26
ENDBRANCH  18  19
ENDBRANCH   2  18
TORSDOF 6
ENDMDL
MODEL 7
REMARK VINA RESULT:      -7.6      3.030      3.514
REMARK  6 active torsions:
REMARK  status: ('A' for Active; 'I' for Inactive)
REMARK    1  A    between atoms: C_4  and  C_5 
REMARK    2  A    between atoms: C_9  and  N_10 
REMARK       I    between atoms: N_10  and  C_11 
REMARK    3  A    between atoms: C_11  and  C_12 
REMARK    4  A    between atoms: C_12  and  C_13 
REMARK    5  A    between atoms: C_13  and  C_14 
REMARK    6  A    between atoms: C_13  and  C_20 
ROOT
HETATM    1  N   UNL     1      41.667 -13.465   3.877  1.00  0.00    -0.312 N 
HETATM    2  C   UNL     1      42.320 -14.620   4.250  1.00  0.00     0.224 C 
HETATM    3  O   UNL     1      42.230 -15.111   5.380  1.00  0.00    -0.273 OA
HETATM    4  H   UNL     1      41.807 -13.056   2.965  1.00  0.00     0.170 HD
ENDROOT
BRANCH   1   5
HETATM    5  C   UNL     1      40.874 -12.749   4.755  1.00  0.00     0.132 A 
HETATM    6  N   UNL     1      39.685 -13.204   5.262  1.00  0.00    -0.261 N 
HETATM    7  N   UNL     1      39.086 -12.341   6.098  1.00  0.00    -0.170 NA
HETATM    8  H   UNL     1      39.251 -14.103   5.065  1.00  0.00     0.191 HD
HETATM    9  C   UNL     1      39.924 -11.296   6.131  1.00  0.00     0.120 A 
HETATM   10  C   UNL     1      41.070 -11.498   5.304  1.00  0.00     0.017 A 
HETATM   11  C   UNL     1      42.206 -10.566   5.100  1.00  0.00     0.055 C 
BRANCH   9  12
HETATM   12  C   UNL     1      39.643 -10.080   6.956  1.00  0.00     0.106 A 
HETATM   13  O   UNL     1      39.540 -10.067   8.322  1.00  0.00    -0.313 OA
HETATM   14  C   UNL     1      39.279  -8.786   8.702  1.00  0.00     0.050 A 
HETATM   15  C   UNL     1      39.138  -8.544  10.151  1.00  0.00     0.076 C 
HETATM   16  C   UNL     1      39.212  -7.967   7.596  1.00  0.00     0.035 A 
HETATM   17  C   UNL     1      39.445  -8.799   6.475  1.00  0.00     0.042 A 
ENDBRANCH   9  12
ENDBRANCH   1   5
BRANCH   2  18
HETATM   18  C   UNL     1      43.169 -15.329   3.198  1.00  0.00     0.116 C 
BRANCH  18  19
HETATM   19  C   UNL     1      42.584 -16.546   2.453  1.00  0.00     0.049 C 
BRANCH  19  20
HETATM   20  C   UNL     1      43.097 -17.900   2.937  1.00  0.00    -0.050 A 
HETATM   21  C   UNL     1      43.689 -18.079   4.197  1.00  0.00     0.008 A 
HETATM   22  C   UNL     1      44.175 -19.330   4.584  1.00  0.00     0.001 A 
HETATM   23  C   UNL     1      44.066 -20.421   3.725  1.00  0.00     0.000 A 
HETATM   24  C   UNL     1      43.461 -20.266   2.481  1.00  0.00     0.001 A 
HETATM   25  C   UNL     1      42.975 -19.018   2.091  1.00  0.00     0.008 A 
ENDBRANCH  19  20
BRANCH  19  26
HETATM   26  C   UNL     1      41.066 -16.437   2.427  1.00  0.00    -0.027 C 
HETATM   27  C   UNL     1      40.292 -15.876   1.488  1.00  0.00     0.007 C 
ENDBRANCH  19  26
ENDBRANCH  18  19
ENDBRANCH   2  18
TORSDOF 6
ENDMDL
MODEL 8
REMARK VINA RESULT:      -7.6      5.176      7.969
REMARK  6 active torsions:
REMARK  status: ('A' for Active; 'I' for Inactive)
REMARK    1  A    between atoms: C_4  and  C_5 
REMARK    2  A    between atoms: C_9  and  N_10 
REMARK       I    between atoms: N_10  and  C_11 
REMARK    3  A    between atoms: C_11  and  C_12 
REMARK    4  A    between atoms: C_12  and  C_13 
REMARK    5  A    between atoms: C_13  and  C_14 
REMARK    6  A    between atoms: C_13  and  C_20 
ROOT
HETATM    1  N   UNL     1      41.618 -14.315   0.438  1.00  0.00    -0.312 N 
HETATM    2  C   UNL     1      41.538 -15.346   1.349  1.00  0.00     0.224 C 
HETATM    3  O   UNL     1      40.480 -15.925   1.620  1.00  0.00    -0.273 OA
HETATM    4  H   UNL     1      42.486 -13.822   0.281  1.00  0.00     0.170 HD
ENDROOT
BRANCH   1   5
HETATM    5  C   UNL     1      40.508 -13.828  -0.228  1.00  0.00     0.132 A 
HETATM    6  N   UNL     1      39.673 -14.599  -0.993  1.00  0.00    -0.261 N 
HETATM    7  N   UNL     1      38.658 -13.916  -1.545  1.00  0.00    -0.170 NA
HETATM    8  H   UNL     1      39.761 -15.599  -1.159  1.00  0.00     0.191 HD
HETATM    9  C   UNL     1      38.847 -12.661  -1.113  1.00  0.00     0.120 A 
HETATM   10  C   UNL     1      39.998 -12.546  -0.276  1.00  0.00     0.017 A 
HETATM   11  C   UNL     1      40.510 -11.322   0.385  1.00  0.00     0.055 C 
BRANCH   9  12
HETATM   12  C   UNL     1      37.926 -11.545  -1.493  1.00  0.00     0.106 A 
HETATM   13  O   UNL     1      37.744 -11.079  -2.768  1.00  0.00    -0.313 OA
HETATM   14  C   UNL     1      36.837 -10.066  -2.710  1.00  0.00     0.050 A 
HETATM   15  C   UNL     1      36.485  -9.422  -3.990  1.00  0.00     0.076 C 
HETATM   16  C   UNL     1      36.426  -9.871  -1.410  1.00  0.00     0.035 A 
HETATM   17  C   UNL     1      37.127 -10.821  -0.628  1.00  0.00     0.042 A 
ENDBRANCH   9  12
ENDBRANCH   1   5
BRANCH   2  18
HETATM   18  C   UNL     1      42.828 -15.802   2.024  1.00  0.00     0.116 C 
BRANCH  18  19
HETATM   19  C   UNL     1      42.751 -16.528   3.383  1.00  0.00     0.049 C 
BRANCH  19  20
HETATM   20  C   UNL     1      43.162 -17.997   3.349  1.00  0.00    -0.050 A 
HETATM   21  C   UNL     1      43.776 -18.637   4.437  1.00  0.00     0.008 A 
HETATM   22  C   UNL     1      44.165 -19.976   4.348  1.00  0.00     0.001 A 
HETATM   23  C   UNL     1      43.937 -20.696   3.178  1.00  0.00     0.000 A 
HETATM   24  C   UNL     1      43.308 -20.084   2.099  1.00  0.00     0.001 A 
HETATM   25  C   UNL     1      42.919 -18.747   2.183  1.00  0.00     0.008 A 
ENDBRANCH  19  20
BRANCH  19  26
HETATM   26  C   UNL     1      43.486 -15.708   4.433  1.00  0.00    -0.027 C 
HETATM   27  C   UNL     1      42.966 -15.000   5.445  1.00  0.00     0.007 C 
ENDBRANCH  19  26
ENDBRANCH  18  19
ENDBRANCH   2  18
TORSDOF 6
ENDMDL
MODEL 9
REMARK VINA RESULT:      -7.5      2.507      4.318
REMARK  6 active torsions:
REMARK  status: ('A' for Active; 'I' for Inactive)
REMARK    1  A    between atoms: C_4  and  C_5 
REMARK    2  A    between atoms: C_9  and  N_10 
REMARK       I    between atoms: N_10  and  C_11 
REMARK    3  A    between atoms: C_11  and  C_12 
REMARK    4  A    between atoms: C_12  and  C_13 
REMARK    5  A    between atoms: C_13  and  C_14 
REMARK    6  A    between atoms: C_13  and  C_20 
ROOT
HETATM    1  N   UNL     1      41.433 -14.331   4.657  1.00  0.00    -0.312 N 
HETATM    2  C   UNL     1      41.272 -15.672   4.384  1.00  0.00     0.224 C 
HETATM    3  O   UNL     1      41.863 -16.562   5.004  1.00  0.00    -0.273 OA
HETATM    4  H   UNL     1      40.981 -13.624   4.095  1.00  0.00     0.170 HD
ENDROOT
BRANCH   1   5
HETATM    5  C   UNL     1      42.296 -13.875   5.637  1.00  0.00     0.132 A 
HETATM    6  N   UNL     1      42.674 -14.611   6.729  1.00  0.00    -0.261 N 
HETATM    7  N   UNL     1      43.521 -13.968   7.549  1.00  0.00    -0.170 NA
HETATM    8  H   UNL     1      42.381 -15.560   6.947  1.00  0.00     0.191 HD
HETATM    9  C   UNL     1      43.694 -12.777   6.958  1.00  0.00     0.120 A 
HETATM   10  C   UNL     1      42.947 -12.663   5.747  1.00  0.00     0.017 A 
HETATM   11  C   UNL     1      42.899 -11.500   4.828  1.00  0.00     0.055 C 
BRANCH   9  12
HETATM   12  C   UNL     1      44.580 -11.723   7.544  1.00  0.00     0.106 A 
HETATM   13  O   UNL     1      44.398 -11.138   8.768  1.00  0.00    -0.313 OA
HETATM   14  C   UNL     1      45.401 -10.234   8.944  1.00  0.00     0.050 A 
HETATM   15  C   UNL     1      45.400  -9.488  10.217  1.00  0.00     0.076 C 
HETATM   16  C   UNL     1      46.234 -10.229   7.847  1.00  0.00     0.035 A 
HETATM   17  C   UNL     1      45.705 -11.186   6.947  1.00  0.00     0.042 A 
ENDBRANCH   9  12
ENDBRANCH   1   5
BRANCH   2  18
HETATM   18  C   UNL     1      40.292 -16.061   3.281  1.00  0.00     0.116 C 
BRANCH  18  19
HETATM   19  C   UNL     1      40.734 -15.950   1.807  1.00  0.00     0.049 C 
BRANCH  19  20
HETATM   20  C   UNL     1      40.182 -14.737   1.063  1.00  0.00    -0.050 A 
HETATM   21  C   UNL     1      39.910 -13.517   1.701  1.00  0.00     0.008 A 
HETATM   22  C   UNL     1      39.374 -12.444   0.986  1.00  0.00     0.001 A 
HETATM   23  C   UNL     1      39.113 -12.569  -0.377  1.00  0.00     0.000 A 
HETATM   24  C   UNL     1      39.398 -13.764  -1.030  1.00  0.00     0.001 A 
HETATM   25  C   UNL     1      39.933 -14.839  -0.318  1.00  0.00     0.008 A 
ENDBRANCH  19  20
BRANCH  19  26
HETATM   26  C   UNL     1      42.248 -16.086   1.725  1.00  0.00    -0.027 C 
HETATM   27  C   UNL     1      43.157 -15.119   1.543  1.00  0.00     0.007 C 
ENDBRANCH  19  26
ENDBRANCH  18  19
ENDBRANCH   2  18
TORSDOF 6
ENDMDL
MODEL 10
REMARK VINA RESULT:      -7.5      4.032      4.662
REMARK  6 active torsions:
REMARK  status: ('A' for Active; 'I' for Inactive)
REMARK    1  A    between atoms: C_4  and  C_5 
REMARK    2  A    between atoms: C_9  and  N_10 
REMARK       I    between atoms: N_10  and  C_11 
REMARK    3  A    between atoms: C_11  and  C_12 
REMARK    4  A    between atoms: C_12  and  C_13 
REMARK    5  A    between atoms: C_13  and  C_14 
REMARK    6  A    between atoms: C_13  and  C_20 
ROOT
HETATM    1  N   UNL     1      40.560 -14.657   5.119  1.00  0.00    -0.312 N 
HETATM    2  C   UNL     1      41.903 -14.963   5.094  1.00  0.00     0.224 C 
HETATM    3  O   UNL     1      42.791 -14.115   5.235  1.00  0.00    -0.273 OA
HETATM    4  H   UNL     1      39.859 -15.362   4.942  1.00  0.00     0.170 HD
ENDROOT
BRANCH   1   5
HETATM    5  C   UNL     1      40.100 -13.362   5.280  1.00  0.00     0.132 A 
HETATM    6  N   UNL     1      40.125 -12.681   6.468  1.00  0.00    -0.261 N 
HETATM    7  N   UNL     1      39.628 -11.436   6.390  1.00  0.00    -0.170 NA
HETATM    8  H   UNL     1      40.479 -13.031   7.355  1.00  0.00     0.191 HD
HETATM    9  C   UNL     1      39.276 -11.314   5.103  1.00  0.00     0.120 A 
HETATM   10  C   UNL     1      39.552 -12.497   4.354  1.00  0.00     0.017 A 
HETATM   11  C   UNL     1      39.305 -12.725   2.909  1.00  0.00     0.055 C 
BRANCH   9  12
HETATM   12  C   UNL     1      38.666 -10.058   4.564  1.00  0.00     0.106 A 
HETATM   13  O   UNL     1      38.354  -9.841   3.249  1.00  0.00    -0.313 OA
HETATM   14  C   UNL     1      37.823  -8.591   3.154  1.00  0.00     0.050 A 
HETATM   15  C   UNL     1      37.404  -8.153   1.808  1.00  0.00     0.076 C 
HETATM   16  C   UNL     1      37.786  -7.995   4.395  1.00  0.00     0.035 A 
HETATM   17  C   UNL     1      38.329  -8.938   5.301  1.00  0.00     0.042 A 
ENDBRANCH   9  12
ENDBRANCH   1   5
BRANCH   2  18
HETATM   18  C   UNL     1      42.297 -16.426   4.911  1.00  0.00     0.116 C 
BRANCH  18  19
HETATM   19  C   UNL     1      43.246 -16.812   3.759  1.00  0.00     0.049 C 
BRANCH  19  20
HETATM   20  C   UNL     1      43.509 -18.309   3.620  1.00  0.00    -0.050 A 
HETATM   21  C   UNL     1      43.323 -19.001   2.413  1.00  0.00     0.008 A 
HETATM   22  C   UNL     1      43.545 -20.379   2.341  1.00  0.00     0.001 A 
HETATM   23  C   UNL     1      43.965 -21.081   3.468  1.00  0.00     0.000 A 
HETATM   24  C   UNL     1      44.176 -20.407   4.667  1.00  0.00     0.001 A 
HETATM   25  C   UNL     1      43.955 -19.031   4.742  1.00  0.00     0.008 A 
ENDBRANCH  19  20
BRANCH  19  26
HETATM   26  C   UNL     1      42.773 -16.149   2.473  1.00  0.00    -0.027 C 
HETATM   27  C   UNL     1      43.413 -15.237   1.728  1.00  0.00     0.007 C 
ENDBRANCH  19  26
ENDBRANCH  18  19
ENDBRANCH   2  18
TORSDOF 6
ENDMDL
