MODEL 1
REMARK VINA RESULT:      -8.9      0.000      0.000
REMARK  3 active torsions:
REMARK  status: ('A' for Active; 'I' for Inactive)
REMARK    1  A    between atoms: C_4  and  C_5 
REMARK    2  A    between atoms: C_14  and  C_15 
REMARK       I    between atoms: C_15  and  N_16 
REMARK    3  A    between atoms: N_16  and  C_17 
ROOT
HETATM    1  C   UNL     1      42.750 -13.748   4.418  1.00  0.00     0.222 A 
HETATM    2  N   UNL     1      42.893 -12.416   5.001  1.00  0.00    -0.090 N 
HETATM    3  C   UNL     1      43.100 -12.168   6.328  1.00  0.00     0.735 A 
HETATM    4  N   UNL     1      43.264 -10.877   6.484  1.00  0.00     0.030 NA
HETATM    5  N   UNL     1      43.200 -10.335   5.215  1.00  0.00     0.033 NA
HETATM    6  N   UNL     1      43.007 -11.277   4.297  1.00  0.00     0.012 NA
HETATM    7  N   UNL     1      43.135 -13.202   7.189  1.00  0.00    -0.191 N 
HETATM    8  C   UNL     1      43.001 -14.529   6.795  1.00  0.00     0.037 A 
HETATM    9  C   UNL     1      43.098 -15.549   7.906  1.00  0.00     0.070 C 
HETATM   10  C   UNL     1      42.822 -14.837   5.484  1.00  0.00     0.064 A 
HETATM   11  H   UNL     1      43.280 -13.017   8.178  1.00  0.00     0.184 HD
ENDROOT
BRANCH  10  12
HETATM   12  C   UNL     1      42.574 -16.251   5.063  1.00  0.00     0.256 C 
HETATM   13  N   UNL     1      43.665 -16.879   4.500  1.00  0.00    -0.323 N 
HETATM   14  H   UNL     1      44.514 -16.350   4.358  1.00  0.00     0.169 HD
HETATM   15  O   UNL     1      41.459 -16.735   5.220  1.00  0.00    -0.267 OA
BRANCH  13  16
HETATM   16  C   UNL     1      43.736 -18.215   4.041  1.00  0.00     0.035 A 
HETATM   17  C   UNL     1      43.508 -18.604   2.721  1.00  0.00     0.029 A 
HETATM   18  C   UNL     1      43.580 -19.953   2.355  1.00  0.00     0.002 A 
HETATM   19  C   UNL     1      43.885 -20.923   3.306  1.00  0.00     0.000 A 
HETATM   20  C   UNL     1      44.115 -20.547   4.626  1.00  0.00     0.002 A 
HETATM   21  C   UNL     1      44.038 -19.200   4.992  1.00  0.00     0.029 A 
ENDBRANCH  13  16
ENDBRANCH  10  12
BRANCH   1  22
HETATM   22  C   UNL     1      41.518 -13.793   3.571  1.00  0.00     0.083 A 
HETATM   23  O   UNL     1      41.670 -14.346   2.330  1.00  0.00    -0.317 OA
HETATM   24  C   UNL     1      40.451 -14.316   1.726  1.00  0.00     0.049 A 
HETATM   25  C   UNL     1      40.380 -14.853   0.352  1.00  0.00     0.076 C 
HETATM   26  C   UNL     1      39.516 -13.759   2.571  1.00  0.00     0.035 A 
HETATM   27  C   UNL     1      40.201 -13.426   3.763  1.00  0.00     0.038 A 
ENDBRANCH   1  22
TORSDOF 3
ENDMDL
MODEL 2
REMARK VINA RESULT:      -8.0      2.498      4.474
REMARK  3 active torsions:
REMARK  status: ('A' for Active; 'I' for Inactive)
REMARK    1  A    between atoms: C_4  and  C_5 
REMARK    2  A    between atoms: C_14  and  C_15 
REMARK       I    between atoms: C_15  and  N_16 
REMARK    3  A    between atoms: N_16  and  C_17 
ROOT
HETATM    1  C   UNL     1      40.891 -13.076   3.544  1.00  0.00     0.222 A 
HETATM    2  N   UNL     1      39.880 -12.036   3.368  1.00  0.00    -0.090 N 
HETATM    3  C   UNL     1      39.081 -11.910   2.269  1.00  0.00     0.735 A 
HETATM    4  N   UNL     1      38.241 -10.927   2.482  1.00  0.00     0.030 NA
HETATM    5  N   UNL     1      38.508 -10.477   3.760  1.00  0.00     0.033 NA
HETATM    6  N   UNL     1      39.489 -11.175   4.323  1.00  0.00     0.012 NA
HETATM    7  N   UNL     1      39.243 -12.763   1.240  1.00  0.00    -0.191 N 
HETATM    8  C   UNL     1      40.172 -13.800   1.247  1.00  0.00     0.037 A 
HETATM    9  C   UNL     1      40.182 -14.668   0.011  1.00  0.00     0.070 C 
HETATM   10  C   UNL     1      40.973 -13.990   2.326  1.00  0.00     0.064 A 
HETATM   11  H   UNL     1      38.654 -12.664   0.418  1.00  0.00     0.184 HD
ENDROOT
BRANCH  10  12
HETATM   12  C   UNL     1      42.043 -15.036   2.302  1.00  0.00     0.256 C 
HETATM   13  N   UNL     1      41.771 -16.150   3.067  1.00  0.00    -0.323 N 
HETATM   14  H   UNL     1      40.927 -16.168   3.621  1.00  0.00     0.169 HD
HETATM   15  O   UNL     1      43.060 -14.836   1.647  1.00  0.00    -0.267 OA
BRANCH  13  16
HETATM   16  C   UNL     1      42.578 -17.303   3.209  1.00  0.00     0.035 A 
HETATM   17  C   UNL     1      42.696 -18.302   2.242  1.00  0.00     0.029 A 
HETATM   18  C   UNL     1      43.504 -19.421   2.471  1.00  0.00     0.002 A 
HETATM   19  C   UNL     1      44.204 -19.548   3.668  1.00  0.00     0.000 A 
HETATM   20  C   UNL     1      44.095 -18.558   4.640  1.00  0.00     0.002 A 
HETATM   21  C   UNL     1      43.284 -17.442   4.412  1.00  0.00     0.029 A 
ENDBRANCH  13  16
ENDBRANCH  10  12
BRANCH   1  22
HETATM   22  C   UNL     1      42.192 -12.449   3.935  1.00  0.00     0.083 A 
HETATM   23  O   UNL     1      42.631 -12.728   5.199  1.00  0.00    -0.317 OA
HETATM   24  C   UNL     1      43.823 -12.092   5.359  1.00  0.00     0.049 A 
HETATM   25  C   UNL     1      44.481 -12.241   6.673  1.00  0.00     0.076 C 
HETATM   26  C   UNL     1      44.159 -11.416   4.206  1.00  0.00     0.035 A 
HETATM   27  C   UNL     1      43.111 -11.649   3.285  1.00  0.00     0.038 A 
ENDBRANCH   1  22
TORSDOF 3
ENDMDL
MODEL 3
REMARK VINA RESULT:      -7.9      1.811      4.077
REMARK  3 active torsions:
REMARK  status: ('A' for Active; 'I' for Inactive)
REMARK    1  A    between atoms: C_4  and  C_5 
REMARK    2  A    between atoms: C_14  and  C_15 
REMARK       I    between atoms: C_15  and  N_16 
REMARK    3  A    between atoms: N_16  and  C_17 
ROOT
HETATM    1  C   UNL     1      40.898 -13.030   4.518  1.00  0.00     0.222 A 
HETATM    2  N   UNL     1      40.803 -11.594   4.267  1.00  0.00    -0.090 N 
HETATM    3  C   UNL     1      40.731 -11.027   3.027  1.00  0.00     0.735 A 
HETATM    4  N   UNL     1      40.573  -9.735   3.174  1.00  0.00     0.030 NA
HETATM    5  N   UNL     1      40.500  -9.519   4.537  1.00  0.00     0.033 NA
HETATM    6  N   UNL     1      40.606 -10.659   5.212  1.00  0.00     0.012 NA
HETATM    7  N   UNL     1      40.796 -11.819   1.940  1.00  0.00    -0.191 N 
HETATM    8  C   UNL     1      40.901 -13.204   2.010  1.00  0.00     0.037 A 
HETATM    9  C   UNL     1      40.929 -13.920   0.680  1.00  0.00     0.070 C 
HETATM   10  C   UNL     1      40.946 -13.825   3.217  1.00  0.00     0.064 A 
HETATM   11  H   UNL     1      40.751 -11.396   1.017  1.00  0.00     0.184 HD
ENDROOT
BRANCH  10  12
HETATM   12  C   UNL     1      41.163 -15.303   3.303  1.00  0.00     0.256 C 
HETATM   13  N   UNL     1      42.487 -15.685   3.355  1.00  0.00    -0.323 N 
HETATM   14  H   UNL     1      43.203 -14.976   3.277  1.00  0.00     0.169 HD
HETATM   15  O   UNL     1      40.192 -16.051   3.302  1.00  0.00    -0.267 OA
BRANCH  13  16
HETATM   16  C   UNL     1      42.990 -17.002   3.470  1.00  0.00     0.035 A 
HETATM   17  C   UNL     1      43.571 -17.521   4.627  1.00  0.00     0.029 A 
HETATM   18  C   UNL     1      44.061 -18.831   4.650  1.00  0.00     0.002 A 
HETATM   19  C   UNL     1      43.968 -19.635   3.516  1.00  0.00     0.000 A 
HETATM   20  C   UNL     1      43.388 -19.129   2.357  1.00  0.00     0.002 A 
HETATM   21  C   UNL     1      42.905 -17.818   2.333  1.00  0.00     0.029 A 
ENDBRANCH  13  16
ENDBRANCH  10  12
BRANCH   1  22
HETATM   22  C   UNL     1      42.036 -13.301   5.450  1.00  0.00     0.083 A 
HETATM   23  O   UNL     1      41.881 -14.374   6.283  1.00  0.00    -0.317 OA
HETATM   24  C   UNL     1      43.014 -14.469   7.030  1.00  0.00     0.049 A 
HETATM   25  C   UNL     1      43.062 -15.560   8.023  1.00  0.00     0.076 C 
HETATM   26  C   UNL     1      43.899 -13.472   6.679  1.00  0.00     0.035 A 
HETATM   27  C   UNL     1      43.272 -12.722   5.657  1.00  0.00     0.038 A 
ENDBRANCH   1  22
TORSDOF 3
ENDMDL
MODEL 4
REMARK VINA RESULT:      -7.6      2.625      5.521
REMARK  3 active torsions:
REMARK  status: ('A' for Active; 'I' for Inactive)
REMARK    1  A    between atoms: C_4  and  C_5 
REMARK    2  A    between atoms: C_14  and  C_15 
REMARK       I    between atoms: C_15  and  N_16 
REMARK    3  A    between atoms: N_16  and  C_17 
ROOT
HETATM    1  C   UNL     1      42.951 -14.834   4.997  1.00  0.00     0.222 A 
HETATM    2  N   UNL     1      43.125 -15.683   6.173  1.00  0.00    -0.090 N 
HETATM    3  C   UNL     1      43.316 -17.034   6.132  1.00  0.00     0.735 A 
HETATM    4  N   UNL     1      43.516 -17.458   7.356  1.00  0.00     0.030 NA
HETATM    5  N   UNL     1      43.491 -16.329   8.153  1.00  0.00     0.033 NA
HETATM    6  N   UNL     1      43.286 -15.233   7.430  1.00  0.00     0.012 NA
HETATM    7  N   UNL     1      43.304 -17.661   4.942  1.00  0.00    -0.191 N 
HETATM    8  C   UNL     1      43.137 -16.997   3.730  1.00  0.00     0.037 A 
HETATM    9  C   UNL     1      43.183 -17.872   2.500  1.00  0.00     0.070 C 
HETATM   10  C   UNL     1      42.972 -15.649   3.709  1.00  0.00     0.064 A 
HETATM   11  H   UNL     1      43.438 -18.668   4.912  1.00  0.00     0.184 HD
ENDROOT
BRANCH  10  12
HETATM   12  C   UNL     1      42.688 -14.940   2.422  1.00  0.00     0.256 C 
HETATM   13  N   UNL     1      41.349 -14.732   2.167  1.00  0.00    -0.323 N 
HETATM   14  H   UNL     1      40.666 -15.107   2.810  1.00  0.00     0.169 HD
HETATM   15  O   UNL     1      43.623 -14.619   1.697  1.00  0.00    -0.267 OA
BRANCH  13  16
HETATM   16  C   UNL     1      40.788 -14.065   1.053  1.00  0.00     0.035 A 
HETATM   17  C   UNL     1      40.820 -12.683   0.868  1.00  0.00     0.029 A 
HETATM   18  C   UNL     1      40.223 -12.103  -0.257  1.00  0.00     0.002 A 
HETATM   19  C   UNL     1      39.593 -12.901  -1.207  1.00  0.00     0.000 A 
HETATM   20  C   UNL     1      39.555 -14.281  -1.034  1.00  0.00     0.002 A 
HETATM   21  C   UNL     1      40.147 -14.860   0.092  1.00  0.00     0.029 A 
ENDBRANCH  13  16
ENDBRANCH  10  12
BRANCH   1  22
HETATM   22  C   UNL     1      41.734 -13.982   5.170  1.00  0.00     0.083 A 
HETATM   23  O   UNL     1      41.797 -12.734   4.615  1.00  0.00    -0.317 OA
HETATM   24  C   UNL     1      40.603 -12.127   4.857  1.00  0.00     0.049 A 
HETATM   25  C   UNL     1      40.450 -10.747   4.356  1.00  0.00     0.076 C 
HETATM   26  C   UNL     1      39.771 -12.976   5.554  1.00  0.00     0.035 A 
HETATM   27  C   UNL     1      40.497 -14.175   5.752  1.00  0.00     0.038 A 
ENDBRANCH   1  22
TORSDOF 3
ENDMDL
MODEL 5
REMARK VINA RESULT:      -7.4      2.421      3.330
REMARK  3 active torsions:
REMARK  status: ('A' for Active; 'I' for Inactive)
REMARK    1  A    between atoms: C_4  and  C_5 
REMARK    2  A    between atoms: C_14  and  C_15 
REMARK       I    between atoms: C_15  and  N_16 
REMARK    3  A    between atoms: N_16  and  C_17 
ROOT
HETATM    1  C   UNL     1      40.938 -12.551   2.150  1.00  0.00     0.222 A 
HETATM    2  N   UNL     1      39.898 -11.599   2.533  1.00  0.00    -0.090 N 
HETATM    3  C   UNL     1      39.421 -11.441   3.802  1.00  0.00     0.735 A 
HETATM    4  N   UNL     1      38.561 -10.452   3.798  1.00  0.00     0.030 NA
HETATM    5  N   UNL     1      38.552  -9.969   2.503  1.00  0.00     0.033 NA
HETATM    6  N   UNL     1      39.395 -10.646   1.730  1.00  0.00     0.012 NA
HETATM    7  N   UNL     1      39.892 -12.234   4.782  1.00  0.00    -0.191 N 
HETATM    8  C   UNL     1      40.874 -13.199   4.578  1.00  0.00     0.037 A 
HETATM    9  C   UNL     1      41.293 -13.968   5.810  1.00  0.00     0.070 C 
HETATM   10  C   UNL     1      41.406 -13.380   3.342  1.00  0.00     0.064 A 
HETATM   11  H   UNL     1      39.531 -12.122   5.726  1.00  0.00     0.184 HD
ENDROOT
BRANCH  10  12
HETATM   12  C   UNL     1      42.385 -14.483   3.091  1.00  0.00     0.256 C 
HETATM   13  N   UNL     1      41.935 -15.738   3.442  1.00  0.00    -0.323 N 
HETATM   14  H   UNL     1      41.031 -15.827   3.883  1.00  0.00     0.169 HD
HETATM   15  O   UNL     1      43.487 -14.210   2.628  1.00  0.00    -0.267 OA
BRANCH  13  16
HETATM   16  C   UNL     1      42.626 -16.963   3.291  1.00  0.00     0.035 A 
HETATM   17  C   UNL     1      42.474 -17.820   2.201  1.00  0.00     0.029 A 
HETATM   18  C   UNL     1      43.184 -19.024   2.139  1.00  0.00     0.002 A 
HETATM   19  C   UNL     1      44.054 -19.379   3.167  1.00  0.00     0.000 A 
HETATM   20  C   UNL     1      44.215 -18.532   4.259  1.00  0.00     0.002 A 
HETATM   21  C   UNL     1      43.502 -17.332   4.322  1.00  0.00     0.029 A 
ENDBRANCH  13  16
ENDBRANCH  10  12
BRANCH   1  22
HETATM   22  C   UNL     1      40.472 -13.358   0.980  1.00  0.00     0.083 A 
HETATM   23  O   UNL     1      40.767 -12.845  -0.252  1.00  0.00    -0.317 OA
HETATM   24  C   UNL     1      40.286 -13.720  -1.176  1.00  0.00     0.049 A 
HETATM   25  C   UNL     1      40.478 -13.357  -2.594  1.00  0.00     0.076 C 
HETATM   26  C   UNL     1      39.693 -14.795  -0.549  1.00  0.00     0.035 A 
HETATM   27  C   UNL     1      39.817 -14.566   0.841  1.00  0.00     0.038 A 
ENDBRANCH   1  22
TORSDOF 3
ENDMDL
MODEL 6
REMARK VINA RESULT:      -7.4      3.944      5.571
REMARK  3 active torsions:
REMARK  status: ('A' for Active; 'I' for Inactive)
REMARK    1  A    between atoms: C_4  and  C_5 
REMARK    2  A    between atoms: C_14  and  C_15 
REMARK       I    between atoms: C_15  and  N_16 
REMARK    3  A    between atoms: N_16  and  C_17 
ROOT
HETATM    1  C   UNL     1      41.192 -11.676  -0.685  1.00  0.00     0.222 A 
HETATM    2  N   UNL     1      41.213 -10.299  -1.173  1.00  0.00    -0.090 N 
HETATM    3  C   UNL     1      41.480  -9.207  -0.399  1.00  0.00     0.735 A 
HETATM    4  N   UNL     1      41.496  -8.149  -1.173  1.00  0.00     0.030 NA
HETATM    5  N   UNL     1      41.279  -8.619  -2.454  1.00  0.00     0.033 NA
HETATM    6  N   UNL     1      41.140  -9.940  -2.466  1.00  0.00     0.012 NA
HETATM    7  N   UNL     1      41.698  -9.376   0.918  1.00  0.00    -0.191 N 
HETATM    8  C   UNL     1      41.699 -10.620   1.539  1.00  0.00     0.037 A 
HETATM    9  C   UNL     1      41.995 -10.606   3.021  1.00  0.00     0.070 C 
HETATM   10  C   UNL     1      41.469 -11.745   0.813  1.00  0.00     0.064 A 
HETATM   11  H   UNL     1      41.888  -8.561   1.496  1.00  0.00     0.184 HD
ENDROOT
BRANCH  10  12
HETATM   12  C   UNL     1      41.366 -13.076   1.488  1.00  0.00     0.256 C 
HETATM   13  N   UNL     1      42.562 -13.753   1.603  1.00  0.00    -0.323 N 
HETATM   14  H   UNL     1      43.392 -13.351   1.190  1.00  0.00     0.169 HD
HETATM   15  O   UNL     1      40.268 -13.474   1.862  1.00  0.00    -0.267 OA
BRANCH  13  16
HETATM   16  C   UNL     1      42.774 -15.009   2.218  1.00  0.00     0.035 A 
HETATM   17  C   UNL     1      43.016 -16.193   1.521  1.00  0.00     0.029 A 
HETATM   18  C   UNL     1      43.197 -17.398   2.208  1.00  0.00     0.002 A 
HETATM   19  C   UNL     1      43.142 -17.427   3.599  1.00  0.00     0.000 A 
HETATM   20  C   UNL     1      42.904 -16.253   4.306  1.00  0.00     0.002 A 
HETATM   21  C   UNL     1      42.717 -15.050   3.618  1.00  0.00     0.029 A 
ENDBRANCH  13  16
ENDBRANCH  10  12
BRANCH   1  22
HETATM   22  C   UNL     1      39.919 -12.338  -1.109  1.00  0.00     0.083 A 
HETATM   23  O   UNL     1      40.054 -13.567  -1.694  1.00  0.00    -0.317 OA
HETATM   24  C   UNL     1      38.801 -14.010  -1.987  1.00  0.00     0.049 A 
HETATM   25  C   UNL     1      38.703 -15.327  -2.649  1.00  0.00     0.076 C 
HETATM   26  C   UNL     1      37.863 -13.082  -1.589  1.00  0.00     0.035 A 
HETATM   27  C   UNL     1      38.582 -12.006  -1.017  1.00  0.00     0.038 A 
ENDBRANCH   1  22
TORSDOF 3
ENDMDL
MODEL 7
REMARK VINA RESULT:      -7.3     15.000     16.534
REMARK  3 active torsions:
REMARK  status: ('A' for Active; 'I' for Inactive)
REMARK    1  A    between atoms: C_4  and  C_5 
REMARK    2  A    between atoms: C_14  and  C_15 
REMARK       I    between atoms: C_15  and  N_16 
REMARK    3  A    between atoms: N_16  and  C_17 
ROOT
HETATM    1  C   UNL     1      47.724 -29.033   1.293  1.00  0.00     0.222 A 
HETATM    2  N   UNL     1      48.656 -29.483   2.324  1.00  0.00    -0.090 N 
HETATM    3  C   UNL     1      49.899 -29.991   2.076  1.00  0.00     0.735 A 
HETATM    4  N   UNL     1      50.489 -30.213   3.225  1.00  0.00     0.030 NA
HETATM    5  N   UNL     1      49.599 -29.785   4.192  1.00  0.00     0.033 NA
HETATM    6  N   UNL     1      48.487 -29.304   3.645  1.00  0.00     0.012 NA
HETATM    7  N   UNL     1      50.302 -30.142   0.801  1.00  0.00    -0.191 N 
HETATM    8  C   UNL     1      49.527 -29.774  -0.294  1.00  0.00     0.037 A 
HETATM    9  C   UNL     1      50.168 -29.993  -1.645  1.00  0.00     0.070 C 
HETATM   10  C   UNL     1      48.294 -29.236  -0.107  1.00  0.00     0.064 A 
HETATM   11  H   UNL     1      51.224 -30.529   0.617  1.00  0.00     0.184 HD
ENDROOT
BRANCH  10  12
HETATM   12  C   UNL     1      47.413 -28.933  -1.277  1.00  0.00     0.256 C 
HETATM   13  N   UNL     1      46.671 -30.005  -1.726  1.00  0.00    -0.323 N 
HETATM   14  H   UNL     1      46.805 -30.908  -1.292  1.00  0.00     0.169 HD
HETATM   15  O   UNL     1      47.420 -27.804  -1.756  1.00  0.00    -0.267 OA
BRANCH  13  16
HETATM   16  C   UNL     1      45.735 -30.009  -2.786  1.00  0.00     0.035 A 
HETATM   17  C   UNL     1      44.487 -29.387  -2.733  1.00  0.00     0.029 A 
HETATM   18  C   UNL     1      43.613 -29.455  -3.824  1.00  0.00     0.002 A 
HETATM   19  C   UNL     1      43.981 -30.142  -4.977  1.00  0.00     0.000 A 
HETATM   20  C   UNL     1      45.224 -30.765  -5.042  1.00  0.00     0.002 A 
HETATM   21  C   UNL     1      46.095 -30.701  -3.951  1.00  0.00     0.029 A 
ENDBRANCH  13  16
ENDBRANCH  10  12
BRANCH   1  22
HETATM   22  C   UNL     1      46.388 -29.669   1.514  1.00  0.00     0.083 A 
HETATM   23  O   UNL     1      45.317 -28.999   0.994  1.00  0.00    -0.317 OA
HETATM   24  C   UNL     1      44.207 -29.735   1.276  1.00  0.00     0.049 A 
HETATM   25  C   UNL     1      42.915 -29.186   0.819  1.00  0.00     0.076 C 
HETATM   26  C   UNL     1      44.558 -30.876   1.965  1.00  0.00     0.035 A 
HETATM   27  C   UNL     1      45.964 -30.838   2.114  1.00  0.00     0.038 A 
ENDBRANCH   1  22
TORSDOF 3
ENDMDL
MODEL 8
REMARK VINA RESULT:      -7.2     14.971     16.145
REMARK  3 active torsions:
REMARK  status: ('A' for Active; 'I' for Inactive)
REMARK    1  A    between atoms: C_4  and  C_5 
REMARK    2  A    between atoms: C_14  and  C_15 
REMARK       I    between atoms: C_15  and  N_16 
REMARK    3  A    between atoms: N_16  and  C_17 
ROOT
HETATM    1  C   UNL     1      44.554 -29.139   0.713  1.00  0.00     0.222 A 
HETATM    2  N   UNL     1      43.346 -29.502   1.450  1.00  0.00    -0.090 N 
HETATM    3  C   UNL     1      43.335 -30.026   2.711  1.00  0.00     0.735 A 
HETATM    4  N   UNL     1      42.088 -30.152   3.093  1.00  0.00     0.030 NA
HETATM    5  N   UNL     1      41.326 -29.650   2.055  1.00  0.00     0.033 NA
HETATM    6  N   UNL     1      42.092 -29.217   1.059  1.00  0.00     0.012 NA
HETATM    7  N   UNL     1      44.506 -30.277   3.325  1.00  0.00    -0.191 N 
HETATM    8  C   UNL     1      45.744 -30.001   2.753  1.00  0.00     0.037 A 
HETATM    9  C   UNL     1      46.943 -30.327   3.613  1.00  0.00     0.070 C 
HETATM   10  C   UNL     1      45.814 -29.452   1.513  1.00  0.00     0.064 A 
HETATM   11  H   UNL     1      44.498 -30.676   4.261  1.00  0.00     0.184 HD
ENDROOT
BRANCH  10  12
HETATM   12  C   UNL     1      47.139 -29.247   0.848  1.00  0.00     0.256 C 
HETATM   13  N   UNL     1      47.744 -30.407   0.409  1.00  0.00    -0.323 N 
HETATM   14  H   UNL     1      47.301 -31.293   0.607  1.00  0.00     0.169 HD
HETATM   15  O   UNL     1      47.593 -28.113   0.756  1.00  0.00    -0.267 OA
BRANCH  13  16
HETATM   16  C   UNL     1      48.975 -30.517  -0.277  1.00  0.00     0.035 A 
HETATM   17  C   UNL     1      49.174 -30.123  -1.600  1.00  0.00     0.029 A 
HETATM   18  C   UNL     1      50.423 -30.285  -2.210  1.00  0.00     0.002 A 
HETATM   19  C   UNL     1      51.485 -30.839  -1.499  1.00  0.00     0.000 A 
HETATM   20  C   UNL     1      51.299 -31.234  -0.178  1.00  0.00     0.002 A 
HETATM   21  C   UNL     1      50.050 -31.077   0.429  1.00  0.00     0.029 A 
ENDBRANCH  13  16
ENDBRANCH  10  12
BRANCH   1  22
HETATM   22  C   UNL     1      44.515 -29.759  -0.648  1.00  0.00     0.083 A 
HETATM   23  O   UNL     1      44.692 -28.901  -1.697  1.00  0.00    -0.317 OA
HETATM   24  C   UNL     1      44.645 -29.645  -2.836  1.00  0.00     0.049 A 
HETATM   25  C   UNL     1      44.798 -28.915  -4.110  1.00  0.00     0.076 C 
HETATM   26  C   UNL     1      44.450 -30.974  -2.527  1.00  0.00     0.035 A 
HETATM   27  C   UNL     1      44.371 -31.050  -1.116  1.00  0.00     0.038 A 
ENDBRANCH   1  22
TORSDOF 3
ENDMDL
MODEL 9
REMARK VINA RESULT:      -7.2      2.315      6.071
REMARK  3 active torsions:
REMARK  status: ('A' for Active; 'I' for Inactive)
REMARK    1  A    between atoms: C_4  and  C_5 
REMARK    2  A    between atoms: C_14  and  C_15 
REMARK       I    between atoms: C_15  and  N_16 
REMARK    3  A    between atoms: N_16  and  C_17 
ROOT
HETATM    1  C   UNL     1      41.895 -16.554   4.107  1.00  0.00     0.222 A 
HETATM    2  N   UNL     1      43.039 -17.452   3.964  1.00  0.00    -0.090 N 
HETATM    3  C   UNL     1      43.946 -17.713   4.949  1.00  0.00     0.735 A 
HETATM    4  N   UNL     1      44.784 -18.619   4.507  1.00  0.00     0.030 NA
HETATM    5  N   UNL     1      44.344 -18.947   3.238  1.00  0.00     0.033 NA
HETATM    6  N   UNL     1      43.254 -18.261   2.913  1.00  0.00     0.012 NA
HETATM    7  N   UNL     1      43.830 -17.080   6.131  1.00  0.00    -0.191 N 
HETATM    8  C   UNL     1      42.806 -16.185   6.421  1.00  0.00     0.037 A 
HETATM    9  C   UNL     1      42.830 -15.600   7.814  1.00  0.00     0.070 C 
HETATM   10  C   UNL     1      41.857 -15.909   5.489  1.00  0.00     0.064 A 
HETATM   11  H   UNL     1      44.512 -17.268   6.862  1.00  0.00     0.184 HD
ENDROOT
BRANCH  10  12
HETATM   12  C   UNL     1      40.812 -14.872   5.753  1.00  0.00     0.256 C 
HETATM   13  N   UNL     1      41.099 -13.626   5.237  1.00  0.00    -0.323 N 
HETATM   14  H   UNL     1      41.988 -13.480   4.780  1.00  0.00     0.169 HD
HETATM   15  O   UNL     1      39.817 -15.176   6.402  1.00  0.00    -0.267 OA
BRANCH  13  16
HETATM   16  C   UNL     1      40.288 -12.469   5.303  1.00  0.00     0.035 A 
HETATM   17  C   UNL     1      39.919 -11.837   6.491  1.00  0.00     0.029 A 
HETATM   18  C   UNL     1      39.097 -10.705   6.468  1.00  0.00     0.002 A 
HETATM   19  C   UNL     1      38.641 -10.193   5.256  1.00  0.00     0.000 A 
HETATM   20  C   UNL     1      39.004 -10.813   4.064  1.00  0.00     0.002 A 
HETATM   21  C   UNL     1      39.821 -11.948   4.088  1.00  0.00     0.029 A 
ENDBRANCH  13  16
ENDBRANCH  10  12
BRANCH   1  22
HETATM   22  C   UNL     1      41.877 -15.581   2.971  1.00  0.00     0.083 A 
HETATM   23  O   UNL     1      40.798 -15.663   2.135  1.00  0.00    -0.317 OA
HETATM   24  C   UNL     1      40.950 -14.697   1.188  1.00  0.00     0.049 A 
HETATM   25  C   UNL     1      39.898 -14.610   0.156  1.00  0.00     0.076 C 
HETATM   26  C   UNL     1      42.111 -13.990   1.414  1.00  0.00     0.035 A 
HETATM   27  C   UNL     1      42.707 -14.555   2.566  1.00  0.00     0.038 A 
ENDBRANCH   1  22
TORSDOF 3
ENDMDL
MODEL 10
REMARK VINA RESULT:      -7.2     15.130     16.679
REMARK  3 active torsions:
REMARK  status: ('A' for Active; 'I' for Inactive)
REMARK    1  A    between atoms: C_4  and  C_5 
REMARK    2  A    between atoms: C_14  and  C_15 
REMARK       I    between atoms: C_15  and  N_16 
REMARK    3  A    between atoms: N_16  and  C_17 
ROOT
HETATM    1  C   UNL     1      46.670 -28.744  -1.047  1.00  0.00     0.222 A 
HETATM    2  N   UNL     1      45.633 -28.937  -2.058  1.00  0.00    -0.090 N 
HETATM    3  C   UNL     1      44.330 -29.239  -1.785  1.00  0.00     0.735 A 
HETATM    4  N   UNL     1      43.667 -29.259  -2.915  1.00  0.00     0.030 NA
HETATM    5  N   UNL     1      44.582 -28.914  -3.892  1.00  0.00     0.033 NA
HETATM    6  N   UNL     1      45.781 -28.682  -3.370  1.00  0.00     0.012 NA
HETATM    7  N   UNL     1      43.955 -29.421  -0.506  1.00  0.00    -0.191 N 
HETATM    8  C   UNL     1      44.824 -29.287   0.572  1.00  0.00     0.037 A 
HETATM    9  C   UNL     1      44.207 -29.501   1.934  1.00  0.00     0.070 C 
HETATM   10  C   UNL     1      46.126 -28.959   0.362  1.00  0.00     0.064 A 
HETATM   11  H   UNL     1      42.986 -29.655  -0.303  1.00  0.00     0.184 HD
ENDROOT
BRANCH  10  12
HETATM   12  C   UNL     1      47.091 -28.913   1.504  1.00  0.00     0.256 C 
HETATM   13  N   UNL     1      47.759 -30.097   1.735  1.00  0.00    -0.323 N 
HETATM   14  H   UNL     1      47.524 -30.907   1.179  1.00  0.00     0.169 HD
HETATM   15  O   UNL     1      47.208 -27.876   2.147  1.00  0.00    -0.267 OA
BRANCH  13  16
HETATM   16  C   UNL     1      48.746 -30.340   2.719  1.00  0.00     0.035 A 
HETATM   17  C   UNL     1      48.471 -30.796   4.009  1.00  0.00     0.029 A 
HETATM   18  C   UNL     1      49.508 -30.992   4.928  1.00  0.00     0.002 A 
HETATM   19  C   UNL     1      50.827 -30.739   4.563  1.00  0.00     0.000 A 
HETATM   20  C   UNL     1      51.113 -30.286   3.279  1.00  0.00     0.002 A 
HETATM   21  C   UNL     1      50.077 -30.084   2.363  1.00  0.00     0.029 A 
ENDBRANCH  13  16
ENDBRANCH  10  12
BRANCH   1  22
HETATM   22  C   UNL     1      47.861 -29.584  -1.384  1.00  0.00     0.083 A 
HETATM   23  O   UNL     1      47.667 -30.936  -1.340  1.00  0.00    -0.317 OA
HETATM   24  C   UNL     1      48.844 -31.522  -1.692  1.00  0.00     0.049 A 
HETATM   25  C   UNL     1      48.873 -32.998  -1.696  1.00  0.00     0.076 C 
HETATM   26  C   UNL     1      49.789 -30.558  -1.971  1.00  0.00     0.035 A 
HETATM   27  C   UNL     1      49.155 -29.308  -1.778  1.00  0.00     0.038 A 
ENDBRANCH   1  22
TORSDOF 3
ENDMDL
