MODEL 1
REMARK VINA RESULT:      -8.4      0.000      0.000
REMARK  6 active torsions:
REMARK  status: ('A' for Active; 'I' for Inactive)
REMARK    1  A    between atoms: O_2  and  C_3 
REMARK    2  A    between atoms: C_3  and  C_4 
REMARK    3  A    between atoms: C_4  and  N_5 
REMARK       I    between atoms: N_5  and  C_6 
REMARK    4  A    between atoms: C_6  and  C_7 
REMARK    5  A    between atoms: C_12  and  C_13 
REMARK    6  A    between atoms: C_20  and  C_21 
ROOT
HETATM    1  C   UNL     1      42.065 -12.614   4.486  1.00  0.00     0.165 A 
HETATM    2  N   UNL     1      41.552 -12.984   3.284  1.00  0.00    -0.163 NA
HETATM    3  N   UNL     1      41.864 -14.287   3.181  1.00  0.00    -0.238 N 
HETATM    4  C   UNL     1      42.664 -14.742   4.196  1.00  0.00     0.141 A 
HETATM    5  N   UNL     1      43.165 -16.003   4.181  1.00  0.00    -0.365 N 
HETATM    6  C   UNL     1      43.186 -16.742   2.921  1.00  0.00     0.118 C 
HETATM    7  C   UNL     1      41.838 -16.557   2.214  1.00  0.00     0.066 C 
HETATM    8  C   UNL     1      41.545 -15.059   1.991  1.00  0.00     0.221 C 
HETATM    9  C   UNL     1      42.767 -13.695   5.075  1.00  0.00     0.092 A 
HETATM   10 BR   UNL     1      43.698 -13.698   6.700  1.00  0.00    -0.044 Br
HETATM   11  H   UNL     1      43.918 -16.243   4.827  1.00  0.00     0.162 HD
ENDROOT
BRANCH   1  12
HETATM   12  C   UNL     1      41.870 -11.245   4.995  1.00  0.00     0.273 C 
HETATM   13  N   UNL     1      41.048 -11.189   6.100  1.00  0.00    -0.353 N 
HETATM   14  H   UNL     1      40.803 -12.087   6.514  1.00  0.00     0.162 HD
HETATM   15  O   UNL     1      42.386 -10.250   4.496  1.00  0.00    -0.266 OA
BRANCH  13  16
HETATM   16  C   UNL     1      40.884  -9.992   6.897  1.00  0.00     0.149 C 
BRANCH  16  17
HETATM   17  C   UNL     1      39.412  -9.611   7.039  1.00  0.00     0.186 C 
BRANCH  17  18
HETATM   18  O   UNL     1      38.805 -10.440   8.037  1.00  0.00    -0.394 OA
HETATM   19  C   UNL     1      39.051  -9.943   9.347  1.00  0.00     0.201 C 
ENDBRANCH  17  18
ENDBRANCH  16  17
ENDBRANCH  13  16
ENDBRANCH   1  12
BRANCH   8  20
HETATM   20  C   UNL     1      40.102 -14.882   1.570  1.00  0.00     0.409 C 
HETATM   21  F   UNL     1      39.281 -14.653   2.619  1.00  0.00    -0.169 F 
HETATM   22  F   UNL     1      39.926 -13.892   0.670  1.00  0.00    -0.169 F 
HETATM   23  F   UNL     1      39.659 -16.020   0.970  1.00  0.00    -0.169 F 
ENDBRANCH   8  20
BRANCH   6  24
HETATM   24  C   UNL     1      43.476 -18.210   3.168  1.00  0.00    -0.035 A 
HETATM   25  C   UNL     1      43.960 -18.667   4.405  1.00  0.00     0.009 A 
HETATM   26  C   UNL     1      44.200 -20.025   4.620  1.00  0.00     0.001 A 
HETATM   27  C   UNL     1      43.949 -20.947   3.606  1.00  0.00     0.000 A 
HETATM   28  C   UNL     1      43.458 -20.512   2.377  1.00  0.00     0.001 A 
HETATM   29  C   UNL     1      43.223 -19.152   2.159  1.00  0.00     0.009 A 
ENDBRANCH   6  24
TORSDOF 6
ENDMDL
MODEL 2
REMARK VINA RESULT:      -8.3      1.078      1.534
REMARK  6 active torsions:
REMARK  status: ('A' for Active; 'I' for Inactive)
REMARK    1  A    between atoms: O_2  and  C_3 
REMARK    2  A    between atoms: C_3  and  C_4 
REMARK    3  A    between atoms: C_4  and  N_5 
REMARK       I    between atoms: N_5  and  C_6 
REMARK    4  A    between atoms: C_6  and  C_7 
REMARK    5  A    between atoms: C_12  and  C_13 
REMARK    6  A    between atoms: C_20  and  C_21 
ROOT
HETATM    1  C   UNL     1      42.057 -12.557   4.105  1.00  0.00     0.165 A 
HETATM    2  N   UNL     1      41.549 -13.025   2.936  1.00  0.00    -0.163 NA
HETATM    3  N   UNL     1      41.873 -14.329   2.934  1.00  0.00    -0.238 N 
HETATM    4  C   UNL     1      42.677 -14.696   3.982  1.00  0.00     0.141 A 
HETATM    5  N   UNL     1      43.190 -15.949   4.064  1.00  0.00    -0.365 N 
HETATM    6  C   UNL     1      43.219 -16.784   2.866  1.00  0.00     0.118 C 
HETATM    7  C   UNL     1      41.870 -16.666   2.147  1.00  0.00     0.066 C 
HETATM    8  C   UNL     1      41.562 -15.194   1.808  1.00  0.00     0.221 C 
HETATM    9  C   UNL     1      42.769 -13.583   4.777  1.00  0.00     0.092 A 
HETATM   10 BR   UNL     1      43.700 -13.450   6.397  1.00  0.00    -0.044 Br
HETATM   11  H   UNL     1      43.944 -16.131   4.727  1.00  0.00     0.162 HD
ENDROOT
BRANCH   1  12
HETATM   12  C   UNL     1      41.849 -11.155   4.507  1.00  0.00     0.273 C 
HETATM   13  N   UNL     1      40.915 -11.010   5.509  1.00  0.00    -0.353 N 
HETATM   14  H   UNL     1      40.599 -11.875   5.947  1.00  0.00     0.162 HD
HETATM   15  O   UNL     1      42.446 -10.206   4.008  1.00  0.00    -0.266 OA
BRANCH  13  16
HETATM   16  C   UNL     1      40.701  -9.762   6.210  1.00  0.00     0.149 C 
BRANCH  16  17
HETATM   17  C   UNL     1      41.435  -9.738   7.549  1.00  0.00     0.186 C 
BRANCH  17  18
HETATM   18  O   UNL     1      42.677  -9.041   7.393  1.00  0.00    -0.394 OA
HETATM   19  C   UNL     1      43.780  -9.851   7.778  1.00  0.00     0.201 C 
ENDBRANCH  17  18
ENDBRANCH  16  17
ENDBRANCH  13  16
ENDBRANCH   1  12
BRANCH   8  20
HETATM   20  C   UNL     1      40.118 -15.063   1.375  1.00  0.00     0.409 C 
HETATM   21  F   UNL     1      39.928 -14.043   0.510  1.00  0.00    -0.169 F 
HETATM   22  F   UNL     1      39.624 -16.189   0.819  1.00  0.00    -0.169 F 
HETATM   23  F   UNL     1      39.338 -14.805   2.459  1.00  0.00    -0.169 F 
ENDBRANCH   8  20
BRANCH   6  24
HETATM   24  C   UNL     1      43.522 -18.225   3.226  1.00  0.00    -0.035 A 
HETATM   25  C   UNL     1      43.972 -18.585   4.508  1.00  0.00     0.009 A 
HETATM   26  C   UNL     1      44.225 -19.920   4.827  1.00  0.00     0.001 A 
HETATM   27  C   UNL     1      44.022 -20.915   3.874  1.00  0.00     0.000 A 
HETATM   28  C   UNL     1      43.566 -20.577   2.602  1.00  0.00     0.001 A 
HETATM   29  C   UNL     1      43.317 -19.241   2.280  1.00  0.00     0.009 A 
ENDBRANCH   6  24
TORSDOF 6
ENDMDL
MODEL 3
REMARK VINA RESULT:      -8.2      0.516      1.196
REMARK  6 active torsions:
REMARK  status: ('A' for Active; 'I' for Inactive)
REMARK    1  A    between atoms: O_2  and  C_3 
REMARK    2  A    between atoms: C_3  and  C_4 
REMARK    3  A    between atoms: C_4  and  N_5 
REMARK       I    between atoms: N_5  and  C_6 
REMARK    4  A    between atoms: C_6  and  C_7 
REMARK    5  A    between atoms: C_12  and  C_13 
REMARK    6  A    between atoms: C_20  and  C_21 
ROOT
HETATM    1  C   UNL     1      41.990 -12.668   4.551  1.00  0.00     0.165 A 
HETATM    2  N   UNL     1      41.527 -13.011   3.321  1.00  0.00    -0.163 NA
HETATM    3  N   UNL     1      41.840 -14.312   3.204  1.00  0.00    -0.238 N 
HETATM    4  C   UNL     1      42.595 -14.791   4.242  1.00  0.00     0.141 A 
HETATM    5  N   UNL     1      43.093 -16.053   4.221  1.00  0.00    -0.365 N 
HETATM    6  C   UNL     1      43.166 -16.766   2.949  1.00  0.00     0.118 C 
HETATM    7  C   UNL     1      41.849 -16.561   2.190  1.00  0.00     0.066 C 
HETATM    8  C   UNL     1      41.569 -15.058   1.986  1.00  0.00     0.221 C 
HETATM    9  C   UNL     1      42.663 -13.763   5.147  1.00  0.00     0.092 A 
HETATM   10 BR   UNL     1      43.525 -13.803   6.809  1.00  0.00    -0.044 Br
HETATM   11  H   UNL     1      43.817 -16.309   4.894  1.00  0.00     0.162 HD
ENDROOT
BRANCH   1  12
HETATM   12  C   UNL     1      41.777 -11.309   5.080  1.00  0.00     0.273 C 
HETATM   13  N   UNL     1      41.008 -11.285   6.223  1.00  0.00    -0.353 N 
HETATM   14  H   UNL     1      40.812 -12.194   6.641  1.00  0.00     0.162 HD
HETATM   15  O   UNL     1      42.237 -10.295   4.565  1.00  0.00    -0.266 OA
BRANCH  13  16
HETATM   16  C   UNL     1      40.846 -10.100   7.037  1.00  0.00     0.149 C 
BRANCH  16  17
HETATM   17  C   UNL     1      39.450 -10.032   7.655  1.00  0.00     0.186 C 
BRANCH  17  18
HETATM   18  O   UNL     1      38.701  -8.993   7.014  1.00  0.00    -0.394 OA
HETATM   19  C   UNL     1      39.512  -7.857   6.742  1.00  0.00     0.201 C 
ENDBRANCH  17  18
ENDBRANCH  16  17
ENDBRANCH  13  16
ENDBRANCH   1  12
BRANCH   8  20
HETATM   20  C   UNL     1      40.146 -14.867   1.508  1.00  0.00     0.409 C 
HETATM   21  F   UNL     1      39.273 -14.717   2.529  1.00  0.00    -0.169 F 
HETATM   22  F   UNL     1      40.001 -13.821   0.668  1.00  0.00    -0.169 F 
HETATM   23  F   UNL     1      39.747 -15.966   0.813  1.00  0.00    -0.169 F 
ENDBRANCH   8  20
BRANCH   6  24
HETATM   24  C   UNL     1      43.441 -18.239   3.177  1.00  0.00    -0.035 A 
HETATM   25  C   UNL     1      43.239 -19.192   2.163  1.00  0.00     0.009 A 
HETATM   26  C   UNL     1      43.519 -20.542   2.386  1.00  0.00     0.001 A 
HETATM   27  C   UNL     1      44.015 -20.956   3.620  1.00  0.00     0.000 A 
HETATM   28  C   UNL     1      44.232 -20.023   4.631  1.00  0.00     0.001 A 
HETATM   29  C   UNL     1      43.947 -18.673   4.412  1.00  0.00     0.009 A 
ENDBRANCH   6  24
TORSDOF 6
ENDMDL
MODEL 4
REMARK VINA RESULT:      -7.4      3.256      5.455
REMARK  6 active torsions:
REMARK  status: ('A' for Active; 'I' for Inactive)
REMARK    1  A    between atoms: O_2  and  C_3 
REMARK    2  A    between atoms: C_3  and  C_4 
REMARK    3  A    between atoms: C_4  and  N_5 
REMARK       I    between atoms: N_5  and  C_6 
REMARK    4  A    between atoms: C_6  and  C_7 
REMARK    5  A    between atoms: C_12  and  C_13 
REMARK    6  A    between atoms: C_20  and  C_21 
ROOT
HETATM    1  C   UNL     1      43.001 -13.409   5.206  1.00  0.00     0.165 A 
HETATM    2  N   UNL     1      42.715 -14.705   4.921  1.00  0.00    -0.163 NA
HETATM    3  N   UNL     1      42.067 -14.648   3.745  1.00  0.00    -0.238 N 
HETATM    4  C   UNL     1      41.808 -13.370   3.323  1.00  0.00     0.141 A 
HETATM    5  N   UNL     1      41.060 -13.137   2.215  1.00  0.00    -0.365 N 
HETATM    6  C   UNL     1      40.209 -14.206   1.696  1.00  0.00     0.118 C 
HETATM    7  C   UNL     1      41.005 -15.516   1.695  1.00  0.00     0.066 C 
HETATM    8  C   UNL     1      41.523 -15.838   3.112  1.00  0.00     0.221 C 
HETATM    9  C   UNL     1      42.443 -12.554   4.223  1.00  0.00     0.092 A 
HETATM   10 BR   UNL     1      42.504 -10.683   4.173  1.00  0.00    -0.044 Br
HETATM   11  H   UNL     1      40.708 -12.194   2.047  1.00  0.00     0.162 HD
ENDROOT
BRANCH   1  12
HETATM   12  C   UNL     1      43.777 -13.059   6.409  1.00  0.00     0.273 C 
HETATM   13  N   UNL     1      44.682 -12.043   6.195  1.00  0.00    -0.353 N 
HETATM   14  H   UNL     1      44.604 -11.564   5.299  1.00  0.00     0.162 HD
HETATM   15  O   UNL     1      43.636 -13.608   7.497  1.00  0.00    -0.266 OA
BRANCH  13  16
HETATM   16  C   UNL     1      45.398 -11.388   7.269  1.00  0.00     0.149 C 
BRANCH  16  17
HETATM   17  C   UNL     1      44.488 -10.444   8.053  1.00  0.00     0.186 C 
BRANCH  17  18
HETATM   18  O   UNL     1      44.386 -10.903   9.406  1.00  0.00    -0.394 OA
HETATM   19  C   UNL     1      45.064 -10.033  10.304  1.00  0.00     0.201 C 
ENDBRANCH  17  18
ENDBRANCH  16  17
ENDBRANCH  13  16
ENDBRANCH   1  12
BRANCH   8  20
HETATM   20  C   UNL     1      42.539 -16.957   3.039  1.00  0.00     0.409 C 
HETATM   21  F   UNL     1      43.724 -16.547   2.535  1.00  0.00    -0.169 F 
HETATM   22  F   UNL     1      42.766 -17.550   4.229  1.00  0.00    -0.169 F 
HETATM   23  F   UNL     1      42.081 -17.935   2.212  1.00  0.00    -0.169 F 
ENDBRANCH   8  20
BRANCH   6  24
HETATM   24  C   UNL     1      39.714 -13.865   0.304  1.00  0.00    -0.035 A 
HETATM   25  C   UNL     1      39.665 -14.831  -0.716  1.00  0.00     0.009 A 
HETATM   26  C   UNL     1      39.186 -14.503  -1.986  1.00  0.00     0.001 A 
HETATM   27  C   UNL     1      38.738 -13.211  -2.250  1.00  0.00     0.000 A 
HETATM   28  C   UNL     1      38.770 -12.245  -1.247  1.00  0.00     0.001 A 
HETATM   29  C   UNL     1      39.254 -12.570   0.022  1.00  0.00     0.009 A 
ENDBRANCH   6  24
TORSDOF 6
ENDMDL
MODEL 5
REMARK VINA RESULT:      -7.3      3.566      6.935
REMARK  6 active torsions:
REMARK  status: ('A' for Active; 'I' for Inactive)
REMARK    1  A    between atoms: O_2  and  C_3 
REMARK    2  A    between atoms: C_3  and  C_4 
REMARK    3  A    between atoms: C_4  and  N_5 
REMARK       I    between atoms: N_5  and  C_6 
REMARK    4  A    between atoms: C_6  and  C_7 
REMARK    5  A    between atoms: C_12  and  C_13 
REMARK    6  A    between atoms: C_20  and  C_21 
ROOT
HETATM    1  C   UNL     1      42.829 -15.577   4.376  1.00  0.00     0.165 A 
HETATM    2  N   UNL     1      42.348 -14.318   4.536  1.00  0.00    -0.163 NA
HETATM    3  N   UNL     1      41.764 -14.037   3.358  1.00  0.00    -0.238 N 
HETATM    4  C   UNL     1      41.959 -15.003   2.406  1.00  0.00     0.141 A 
HETATM    5  N   UNL     1      41.536 -14.822   1.129  1.00  0.00    -0.365 N 
HETATM    6  C   UNL     1      41.231 -13.470   0.668  1.00  0.00     0.118 C 
HETATM    7  C   UNL     1      40.411 -12.751   1.746  1.00  0.00     0.066 C 
HETATM    8  C   UNL     1      41.172 -12.737   3.087  1.00  0.00     0.221 C 
HETATM    9  C   UNL     1      42.601 -16.028   3.052  1.00  0.00     0.092 A 
HETATM   10 BR   UNL     1      43.111 -17.666   2.302  1.00  0.00    -0.044 Br
HETATM   11  H   UNL     1      41.877 -15.452   0.402  1.00  0.00     0.162 HD
ENDROOT
BRANCH   1  12
HETATM   12  C   UNL     1      43.495 -16.273   5.492  1.00  0.00     0.273 C 
HETATM   13  N   UNL     1      42.854 -17.433   5.868  1.00  0.00    -0.353 N 
HETATM   14  H   UNL     1      42.106 -17.744   5.250  1.00  0.00     0.162 HD
HETATM   15  O   UNL     1      44.519 -15.870   6.035  1.00  0.00    -0.266 OA
BRANCH  13  16
HETATM   16  C   UNL     1      43.434 -18.389   6.787  1.00  0.00     0.149 C 
BRANCH  16  17
HETATM   17  C   UNL     1      43.434 -19.800   6.202  1.00  0.00     0.186 C 
BRANCH  17  18
HETATM   18  O   UNL     1      44.335 -19.849   5.090  1.00  0.00    -0.394 OA
HETATM   19  C   UNL     1      43.972 -20.870   4.170  1.00  0.00     0.201 C 
ENDBRANCH  17  18
ENDBRANCH  16  17
ENDBRANCH  13  16
ENDBRANCH   1  12
BRANCH   8  20
HETATM   20  C   UNL     1      40.240 -12.297   4.195  1.00  0.00     0.409 C 
HETATM   21  F   UNL     1      39.525 -13.322   4.708  1.00  0.00    -0.169 F 
HETATM   22  F   UNL     1      40.875 -11.673   5.209  1.00  0.00    -0.169 F 
HETATM   23  F   UNL     1      39.341 -11.401   3.706  1.00  0.00    -0.169 F 
ENDBRANCH   8  20
BRANCH   6  24
HETATM   24  C   UNL     1      40.483 -13.511  -0.650  1.00  0.00    -0.035 A 
HETATM   25  C   UNL     1      40.674 -12.528  -1.637  1.00  0.00     0.009 A 
HETATM   26  C   UNL     1      39.993 -12.595  -2.853  1.00  0.00     0.001 A 
HETATM   27  C   UNL     1      39.120 -13.652  -3.106  1.00  0.00     0.000 A 
HETATM   28  C   UNL     1      38.928 -14.640  -2.143  1.00  0.00     0.001 A 
HETATM   29  C   UNL     1      39.606 -14.571  -0.924  1.00  0.00     0.009 A 
ENDBRANCH   6  24
TORSDOF 6
ENDMDL
MODEL 6
REMARK VINA RESULT:      -7.2      4.373      7.501
REMARK  6 active torsions:
REMARK  status: ('A' for Active; 'I' for Inactive)
REMARK    1  A    between atoms: O_2  and  C_3 
REMARK    2  A    between atoms: C_3  and  C_4 
REMARK    3  A    between atoms: C_4  and  N_5 
REMARK       I    between atoms: N_5  and  C_6 
REMARK    4  A    between atoms: C_6  and  C_7 
REMARK    5  A    between atoms: C_12  and  C_13 
REMARK    6  A    between atoms: C_20  and  C_21 
ROOT
HETATM    1  C   UNL     1      41.295 -14.062   3.306  1.00  0.00     0.165 A 
HETATM    2  N   UNL     1      41.773 -14.935   4.230  1.00  0.00    -0.163 NA
HETATM    3  N   UNL     1      42.436 -14.159   5.104  1.00  0.00    -0.238 N 
HETATM    4  C   UNL     1      42.519 -12.846   4.719  1.00  0.00     0.141 A 
HETATM    5  N   UNL     1      43.254 -11.953   5.429  1.00  0.00    -0.365 N 
HETATM    6  C   UNL     1      44.262 -12.448   6.362  1.00  0.00     0.118 C 
HETATM    7  C   UNL     1      43.664 -13.606   7.171  1.00  0.00     0.066 C 
HETATM    8  C   UNL     1      43.162 -14.721   6.231  1.00  0.00     0.221 C 
HETATM    9  C   UNL     1      41.750 -12.749   3.588  1.00  0.00     0.092 A 
HETATM   10 BR   UNL     1      41.422 -11.193   2.598  1.00  0.00    -0.044 Br
HETATM   11  H   UNL     1      43.470 -11.048   5.010  1.00  0.00     0.162 HD
ENDROOT
BRANCH   1  12
HETATM   12  C   UNL     1      40.446 -14.533   2.197  1.00  0.00     0.273 C 
HETATM   13  N   UNL     1      40.865 -14.084   0.964  1.00  0.00    -0.353 N 
HETATM   14  H   UNL     1      41.772 -13.619   0.948  1.00  0.00     0.162 HD
HETATM   15  O   UNL     1      39.467 -15.257   2.347  1.00  0.00    -0.266 OA
BRANCH  13  16
HETATM   16  C   UNL     1      40.323 -14.585  -0.281  1.00  0.00     0.149 C 
BRANCH  16  17
HETATM   17  C   UNL     1      39.416 -13.555  -0.952  1.00  0.00     0.186 C 
BRANCH  17  18
HETATM   18  O   UNL     1      40.217 -12.480  -1.457  1.00  0.00    -0.394 OA
HETATM   19  C   UNL     1      40.661 -12.740  -2.783  1.00  0.00     0.201 C 
ENDBRANCH  17  18
ENDBRANCH  16  17
ENDBRANCH  13  16
ENDBRANCH   1  12
BRANCH   8  20
HETATM   20  C   UNL     1      42.319 -15.704   7.014  1.00  0.00     0.409 C 
HETATM   21  F   UNL     1      41.021 -15.334   7.082  1.00  0.00    -0.169 F 
HETATM   22  F   UNL     1      42.378 -16.962   6.530  1.00  0.00    -0.169 F 
HETATM   23  F   UNL     1      42.771 -15.772   8.296  1.00  0.00    -0.169 F 
ENDBRANCH   8  20
BRANCH   6  24
HETATM   24  C   UNL     1      44.739 -11.335   7.274  1.00  0.00    -0.035 A 
HETATM   25  C   UNL     1      43.937 -10.844   8.319  1.00  0.00     0.009 A 
HETATM   26  C   UNL     1      44.403  -9.833   9.162  1.00  0.00     0.001 A 
HETATM   27  C   UNL     1      45.679  -9.306   8.979  1.00  0.00     0.000 A 
HETATM   28  C   UNL     1      46.490  -9.788   7.954  1.00  0.00     0.001 A 
HETATM   29  C   UNL     1      46.024 -10.796   7.107  1.00  0.00     0.009 A 
ENDBRANCH   6  24
TORSDOF 6
ENDMDL
MODEL 7
REMARK VINA RESULT:      -7.2      2.897      3.963
REMARK  6 active torsions:
REMARK  status: ('A' for Active; 'I' for Inactive)
REMARK    1  A    between atoms: O_2  and  C_3 
REMARK    2  A    between atoms: C_3  and  C_4 
REMARK    3  A    between atoms: C_4  and  N_5 
REMARK       I    between atoms: N_5  and  C_6 
REMARK    4  A    between atoms: C_6  and  C_7 
REMARK    5  A    between atoms: C_12  and  C_13 
REMARK    6  A    between atoms: C_20  and  C_21 
ROOT
HETATM    1  C   UNL     1      41.945 -11.921   2.364  1.00  0.00     0.165 A 
HETATM    2  N   UNL     1      41.402 -12.802   1.486  1.00  0.00    -0.163 NA
HETATM    3  N   UNL     1      41.732 -14.007   1.981  1.00  0.00    -0.238 N 
HETATM    4  C   UNL     1      42.571 -13.944   3.063  1.00  0.00     0.141 A 
HETATM    5  N   UNL     1      43.093 -15.071   3.610  1.00  0.00    -0.365 N 
HETATM    6  C   UNL     1      43.087 -16.306   2.831  1.00  0.00     0.118 C 
HETATM    7  C   UNL     1      41.714 -16.466   2.166  1.00  0.00     0.066 C 
HETATM    8  C   UNL     1      41.389 -15.239   1.291  1.00  0.00     0.221 C 
HETATM    9  C   UNL     1      42.684 -12.610   3.359  1.00  0.00     0.092 A 
HETATM   10 BR   UNL     1      43.666 -11.865   4.769  1.00  0.00    -0.044 Br
HETATM   11  H   UNL     1      43.869 -14.986   4.267  1.00  0.00     0.162 HD
ENDROOT
BRANCH   1  12
HETATM   12  C   UNL     1      41.744 -10.471   2.195  1.00  0.00     0.273 C 
HETATM   13  N   UNL     1      41.820 -10.062   0.881  1.00  0.00    -0.353 N 
HETATM   14  H   UNL     1      41.854 -10.808   0.188  1.00  0.00     0.162 HD
HETATM   15  O   UNL     1      41.524  -9.699   3.122  1.00  0.00    -0.266 OA
BRANCH  13  16
HETATM   16  C   UNL     1      41.445  -8.732   0.449  1.00  0.00     0.149 C 
BRANCH  16  17
HETATM   17  C   UNL     1      41.441  -8.620  -1.074  1.00  0.00     0.186 C 
BRANCH  17  18
HETATM   18  O   UNL     1      40.514  -7.601  -1.469  1.00  0.00    -0.394 OA
HETATM   19  C   UNL     1      39.538  -7.367  -0.462  1.00  0.00     0.201 C 
ENDBRANCH  17  18
ENDBRANCH  16  17
ENDBRANCH  13  16
ENDBRANCH   1  12
BRANCH   8  20
HETATM   20  C   UNL     1      39.931 -15.276   0.887  1.00  0.00     0.409 C 
HETATM   21  F   UNL     1      39.126 -14.691   1.802  1.00  0.00    -0.169 F 
HETATM   22  F   UNL     1      39.694 -14.705  -0.312  1.00  0.00    -0.169 F 
HETATM   23  F   UNL     1      39.520 -16.568   0.777  1.00  0.00    -0.169 F 
ENDBRANCH   8  20
BRANCH   6  24
HETATM   24  C   UNL     1      43.409 -17.496   3.713  1.00  0.00    -0.035 A 
HETATM   25  C   UNL     1      43.848 -18.716   3.173  1.00  0.00     0.009 A 
HETATM   26  C   UNL     1      44.161 -19.794   4.004  1.00  0.00     0.001 A 
HETATM   27  C   UNL     1      44.050 -19.663   5.386  1.00  0.00     0.000 A 
HETATM   28  C   UNL     1      43.626 -18.456   5.939  1.00  0.00     0.001 A 
HETATM   29  C   UNL     1      43.308 -17.379   5.108  1.00  0.00     0.009 A 
ENDBRANCH   6  24
TORSDOF 6
ENDMDL
MODEL 8
REMARK VINA RESULT:      -7.0      2.092      2.721
REMARK  6 active torsions:
REMARK  status: ('A' for Active; 'I' for Inactive)
REMARK    1  A    between atoms: O_2  and  C_3 
REMARK    2  A    between atoms: C_3  and  C_4 
REMARK    3  A    between atoms: C_4  and  N_5 
REMARK       I    between atoms: N_5  and  C_6 
REMARK    4  A    between atoms: C_6  and  C_7 
REMARK    5  A    between atoms: C_12  and  C_13 
REMARK    6  A    between atoms: C_20  and  C_21 
ROOT
HETATM    1  C   UNL     1      41.970 -11.010   5.698  1.00  0.00     0.165 A 
HETATM    2  N   UNL     1      41.200 -11.269   4.610  1.00  0.00    -0.163 NA
HETATM    3  N   UNL     1      41.521 -12.530   4.273  1.00  0.00    -0.238 N 
HETATM    4  C   UNL     1      42.553 -13.049   5.010  1.00  0.00     0.141 A 
HETATM    5  N   UNL     1      43.078 -14.266   4.720  1.00  0.00    -0.365 N 
HETATM    6  C   UNL     1      42.825 -14.852   3.406  1.00  0.00     0.118 C 
HETATM    7  C   UNL     1      41.343 -14.670   3.059  1.00  0.00     0.066 C 
HETATM    8  C   UNL     1      40.956 -13.178   3.101  1.00  0.00     0.221 C 
HETATM    9  C   UNL     1      42.827 -12.106   5.967  1.00  0.00     0.092 A 
HETATM   10 BR   UNL     1      44.116 -12.239   7.320  1.00  0.00    -0.044 Br
HETATM   11  H   UNL     1      43.970 -14.532   5.140  1.00  0.00     0.162 HD
ENDROOT
BRANCH   1  12
HETATM   12  C   UNL     1      41.856  -9.723   6.408  1.00  0.00     0.273 C 
HETATM   13  N   UNL     1      41.737  -9.865   7.773  1.00  0.00    -0.353 N 
HETATM   14  H   UNL     1      41.892 -10.806   8.134  1.00  0.00     0.162 HD
HETATM   15  O   UNL     1      41.869  -8.631   5.849  1.00  0.00    -0.266 OA
BRANCH  13  16
HETATM   16  C   UNL     1      41.827  -8.749   8.690  1.00  0.00     0.149 C 
BRANCH  16  17
HETATM   17  C   UNL     1      43.279  -8.349   8.945  1.00  0.00     0.186 C 
BRANCH  17  18
HETATM   18  O   UNL     1      43.517  -7.055   8.379  1.00  0.00    -0.394 OA
HETATM   19  C   UNL     1      42.340  -6.258   8.387  1.00  0.00     0.201 C 
ENDBRANCH  17  18
ENDBRANCH  16  17
ENDBRANCH  13  16
ENDBRANCH   1  12
BRANCH   8  20
HETATM   20  C   UNL     1      39.449 -13.042   3.050  1.00  0.00     0.409 C 
HETATM   21  F   UNL     1      39.051 -11.931   2.391  1.00  0.00    -0.169 F 
HETATM   22  F   UNL     1      38.836 -14.108   2.494  1.00  0.00    -0.169 F 
HETATM   23  F   UNL     1      38.957 -12.942   4.314  1.00  0.00    -0.169 F 
ENDBRANCH   8  20
BRANCH   6  24
HETATM   24  C   UNL     1      43.213 -16.318   3.391  1.00  0.00    -0.035 A 
HETATM   25  C   UNL     1      43.871 -16.917   4.480  1.00  0.00     0.009 A 
HETATM   26  C   UNL     1      44.200 -18.273   4.456  1.00  0.00     0.001 A 
HETATM   27  C   UNL     1      43.868 -19.052   3.350  1.00  0.00     0.000 A 
HETATM   28  C   UNL     1      43.206 -18.476   2.268  1.00  0.00     0.001 A 
HETATM   29  C   UNL     1      42.880 -17.119   2.288  1.00  0.00     0.009 A 
ENDBRANCH   6  24
TORSDOF 6
ENDMDL
MODEL 9
REMARK VINA RESULT:      -7.0      3.704      5.032
REMARK  6 active torsions:
REMARK  status: ('A' for Active; 'I' for Inactive)
REMARK    1  A    between atoms: O_2  and  C_3 
REMARK    2  A    between atoms: C_3  and  C_4 
REMARK    3  A    between atoms: C_4  and  N_5 
REMARK       I    between atoms: N_5  and  C_6 
REMARK    4  A    between atoms: C_6  and  C_7 
REMARK    5  A    between atoms: C_12  and  C_13 
REMARK    6  A    between atoms: C_20  and  C_21 
ROOT
HETATM    1  C   UNL     1      40.816 -11.358   3.181  1.00  0.00     0.165 A 
HETATM    2  N   UNL     1      41.396 -11.549   4.393  1.00  0.00    -0.163 NA
HETATM    3  N   UNL     1      41.882 -12.801   4.331  1.00  0.00    -0.238 N 
HETATM    4  C   UNL     1      41.531 -13.470   3.188  1.00  0.00     0.141 A 
HETATM    5  N   UNL     1      41.842 -14.780   3.021  1.00  0.00    -0.365 N 
HETATM    6  C   UNL     1      42.193 -15.581   4.191  1.00  0.00     0.118 C 
HETATM    7  C   UNL     1      43.161 -14.777   5.068  1.00  0.00     0.066 C 
HETATM    8  C   UNL     1      42.535 -13.426   5.470  1.00  0.00     0.221 C 
HETATM    9  C   UNL     1      40.885 -12.545   2.409  1.00  0.00     0.092 A 
HETATM   10 BR   UNL     1      40.193 -12.830   0.692  1.00  0.00    -0.044 Br
HETATM   11  H   UNL     1      41.390 -15.302   2.269  1.00  0.00     0.162 HD
ENDROOT
BRANCH   1  12
HETATM   12  C   UNL     1      40.214 -10.059   2.834  1.00  0.00     0.273 C 
HETATM   13  N   UNL     1      41.074  -9.227   2.151  1.00  0.00    -0.353 N 
HETATM   14  H   UNL     1      41.947  -9.652   1.841  1.00  0.00     0.162 HD
HETATM   15  O   UNL     1      39.062  -9.742   3.116  1.00  0.00    -0.266 OA
BRANCH  13  16
HETATM   16  C   UNL     1      40.644  -7.996   1.522  1.00  0.00     0.149 C 
BRANCH  16  17
HETATM   17  C   UNL     1      40.654  -8.111  -0.001  1.00  0.00     0.186 C 
BRANCH  17  18
HETATM   18  O   UNL     1      41.966  -8.484  -0.437  1.00  0.00    -0.394 OA
HETATM   19  C   UNL     1      41.925  -9.599  -1.318  1.00  0.00     0.201 C 
ENDBRANCH  17  18
ENDBRANCH  16  17
ENDBRANCH  13  16
ENDBRANCH   1  12
BRANCH   8  20
HETATM   20  C   UNL     1      43.597 -12.535   6.075  1.00  0.00     0.409 C 
HETATM   21  F   UNL     1      44.283 -11.839   5.141  1.00  0.00    -0.169 F 
HETATM   22  F   UNL     1      43.108 -11.661   6.980  1.00  0.00    -0.169 F 
HETATM   23  F   UNL     1      44.507 -13.296   6.740  1.00  0.00    -0.169 F 
ENDBRANCH   8  20
BRANCH   6  24
HETATM   24  C   UNL     1      42.807 -16.902   3.770  1.00  0.00    -0.035 A 
HETATM   25  C   UNL     1      42.460 -17.521   2.557  1.00  0.00     0.009 A 
HETATM   26  C   UNL     1      43.052 -18.727   2.176  1.00  0.00     0.001 A 
HETATM   27  C   UNL     1      44.006 -19.324   2.996  1.00  0.00     0.000 A 
HETATM   28  C   UNL     1      44.369 -18.718   4.196  1.00  0.00     0.001 A 
HETATM   29  C   UNL     1      43.774 -17.514   4.581  1.00  0.00     0.009 A 
ENDBRANCH   6  24
TORSDOF 6
ENDMDL
MODEL 10
REMARK VINA RESULT:      -7.0      3.221      4.049
REMARK  6 active torsions:
REMARK  status: ('A' for Active; 'I' for Inactive)
REMARK    1  A    between atoms: O_2  and  C_3 
REMARK    2  A    between atoms: C_3  and  C_4 
REMARK    3  A    between atoms: C_4  and  N_5 
REMARK       I    between atoms: N_5  and  C_6 
REMARK    4  A    between atoms: C_6  and  C_7 
REMARK    5  A    between atoms: C_12  and  C_13 
REMARK    6  A    between atoms: C_20  and  C_21 
ROOT
HETATM    1  C   UNL     1      40.246 -11.365   4.912  1.00  0.00     0.165 A 
HETATM    2  N   UNL     1      41.200 -11.547   5.860  1.00  0.00    -0.163 NA
HETATM    3  N   UNL     1      41.777 -12.714   5.526  1.00  0.00    -0.238 N 
HETATM    4  C   UNL     1      41.156 -13.355   4.486  1.00  0.00     0.141 A 
HETATM    5  N   UNL     1      41.540 -14.598   4.100  1.00  0.00    -0.365 N 
HETATM    6  C   UNL     1      42.333 -15.412   5.018  1.00  0.00     0.118 C 
HETATM    7  C   UNL     1      43.435 -14.538   5.630  1.00  0.00     0.066 C 
HETATM    8  C   UNL     1      42.823 -13.312   6.338  1.00  0.00     0.221 C 
HETATM    9  C   UNL     1      40.196 -12.482   4.041  1.00  0.00     0.092 A 
HETATM   10 BR   UNL     1      39.029 -12.755   2.602  1.00  0.00    -0.044 Br
HETATM   11  H   UNL     1      40.933 -15.130   3.476  1.00  0.00     0.162 HD
ENDROOT
BRANCH   1  12
HETATM   12  C   UNL     1      39.424 -10.141   4.900  1.00  0.00     0.273 C 
HETATM   13  N   UNL     1      40.053  -9.059   5.476  1.00  0.00    -0.353 N 
HETATM   14  H   UNL     1      41.039  -9.189   5.699  1.00  0.00     0.162 HD
HETATM   15  O   UNL     1      38.295 -10.081   4.423  1.00  0.00    -0.266 OA
BRANCH  13  16
HETATM   16  C   UNL     1      39.535  -7.711   5.389  1.00  0.00     0.149 C 
BRANCH  16  17
HETATM   17  C   UNL     1      39.289  -7.115   6.774  1.00  0.00     0.186 C 
BRANCH  17  18
HETATM   18  O   UNL     1      38.660  -8.097   7.605  1.00  0.00    -0.394 OA
HETATM   19  C   UNL     1      39.190  -8.079   8.925  1.00  0.00     0.201 C 
ENDBRANCH  17  18
ENDBRANCH  16  17
ENDBRANCH  13  16
ENDBRANCH   1  12
BRANCH   8  20
HETATM   20  C   UNL     1      43.917 -12.321   6.673  1.00  0.00     0.409 C 
HETATM   21  F   UNL     1      44.047 -11.357   5.735  1.00  0.00    -0.169 F 
HETATM   22  F   UNL     1      43.750 -11.726   7.872  1.00  0.00    -0.169 F 
HETATM   23  F   UNL     1      45.113 -12.966   6.736  1.00  0.00    -0.169 F 
ENDBRANCH   8  20
BRANCH   6  24
HETATM   24  C   UNL     1      42.923 -16.608   4.298  1.00  0.00    -0.035 A 
HETATM   25  C   UNL     1      43.867 -17.447   4.913  1.00  0.00     0.009 A 
HETATM   26  C   UNL     1      44.382 -18.557   4.241  1.00  0.00     0.001 A 
HETATM   27  C   UNL     1      43.952 -18.851   2.949  1.00  0.00     0.000 A 
HETATM   28  C   UNL     1      43.008 -18.036   2.329  1.00  0.00     0.001 A 
HETATM   29  C   UNL     1      42.496 -16.922   2.998  1.00  0.00     0.009 A 
ENDBRANCH   6  24
TORSDOF 6
ENDMDL
