MODEL 1
REMARK VINA RESULT:      -8.7      0.000      0.000
REMARK  2 active torsions:
REMARK  status: ('A' for Active; 'I' for Inactive)
REMARK    1  A    between atoms: C_7  and  C_8 
REMARK    2  A    between atoms: C_13  and  C_18 
ROOT
HETATM    1  C   UNL     1      42.687 -12.764   4.088  1.00  0.00    -0.020 A 
HETATM    2  C   UNL     1      42.138 -13.527   5.132  1.00  0.00     0.015 A 
HETATM    3  C   UNL     1      42.585 -13.387   6.455  1.00  0.00     0.035 A 
HETATM    4  C   UNL     1      43.600 -12.459   6.725  1.00  0.00     0.085 A 
HETATM    5  N   UNL     1      44.202 -12.134   7.916  1.00  0.00    -0.233 NA
HETATM    6  C   UNL     1      45.079 -11.193   7.629  1.00  0.00     0.111 A 
HETATM    7  N   UNL     1      45.064 -10.911   6.281  1.00  0.00    -0.342 N 
HETATM    8  H   UNL     1      45.634 -10.211   5.824  1.00  0.00     0.167 HD
HETATM    9  C   UNL     1      44.130 -11.712   5.682  1.00  0.00     0.063 A 
HETATM   10  C   UNL     1      43.711 -11.839   4.353  1.00  0.00     0.044 A 
ENDROOT
BRANCH   6  11
HETATM   11  C   UNL     1      45.954 -10.477   8.623  1.00  0.00     0.084 C 
HETATM   12  C   UNL     1      46.408  -9.096   8.154  1.00  0.00     0.188 C 
HETATM   13  O   UNL     1      45.334  -8.152   8.019  1.00  0.00    -0.350 OA
HETATM   14  C   UNL     1      44.458  -8.120   9.070  1.00  0.00     0.075 A 
HETATM   15  C   UNL     1      43.598  -7.023   9.117  1.00  0.00     0.037 A 
HETATM   16  C   UNL     1      44.352  -9.141  10.021  1.00  0.00    -0.024 A 
HETATM   17  C   UNL     1      42.645  -6.923  10.130  1.00  0.00     0.003 A 
HETATM   18  C   UNL     1      42.548  -7.923  11.094  1.00  0.00     0.001 A 
HETATM   19  C   UNL     1      43.399  -9.027  11.042  1.00  0.00     0.010 A 
HETATM   20  C   UNL     1      45.259 -10.340   9.978  1.00  0.00     0.056 C 
ENDBRANCH   6  11
BRANCH   1  21
HETATM   21  C   UNL     1      42.204 -12.962   2.731  1.00  0.00     0.017 A 
HETATM   22  C   UNL     1      42.445 -14.062   1.925  1.00  0.00     0.036 A 
HETATM   23  C   UNL     1      43.209 -15.318   2.120  1.00  0.00     0.070 C 
HETATM   24  N   UNL     1      41.806 -13.798   0.741  1.00  0.00    -0.282 N 
HETATM   25  H   UNL     1      41.764 -14.381  -0.088  1.00  0.00     0.189 HD
HETATM   26  N   UNL     1      41.188 -12.609   0.708  1.00  0.00    -0.186 NA
HETATM   27  C   UNL     1      41.433 -12.098   1.916  1.00  0.00     0.153 A 
ENDBRANCH   1  21
TORSDOF 2
ENDMDL
MODEL 2
REMARK VINA RESULT:      -8.7      3.715      6.168
REMARK  2 active torsions:
REMARK  status: ('A' for Active; 'I' for Inactive)
REMARK    1  A    between atoms: C_7  and  C_8 
REMARK    2  A    between atoms: C_13  and  C_18 
ROOT
HETATM    1  C   UNL     1      43.519 -17.904   3.458  1.00  0.00    -0.020 A 
HETATM    2  C   UNL     1      43.454 -17.668   2.074  1.00  0.00     0.015 A 
HETATM    3  C   UNL     1      43.173 -16.392   1.561  1.00  0.00     0.035 A 
HETATM    4  C   UNL     1      42.957 -15.340   2.460  1.00  0.00     0.085 A 
HETATM    5  N   UNL     1      42.672 -14.018   2.219  1.00  0.00    -0.233 NA
HETATM    6  C   UNL     1      42.582 -13.448   3.404  1.00  0.00     0.111 A 
HETATM    7  N   UNL     1      42.790 -14.372   4.403  1.00  0.00    -0.342 N 
HETATM    8  H   UNL     1      42.790 -14.170   5.395  1.00  0.00     0.167 HD
HETATM    9  C   UNL     1      43.027 -15.590   3.824  1.00  0.00     0.063 A 
HETATM   10  C   UNL     1      43.294 -16.852   4.363  1.00  0.00     0.044 A 
ENDROOT
BRANCH   6  11
HETATM   11  C   UNL     1      42.332 -11.986   3.656  1.00  0.00     0.084 C 
HETATM   12  C   UNL     1      41.386 -11.719   4.826  1.00  0.00     0.188 C 
HETATM   13  O   UNL     1      41.918 -12.121   6.098  1.00  0.00    -0.350 OA
HETATM   14  C   UNL     1      43.211 -11.734   6.331  1.00  0.00     0.075 A 
HETATM   15  C   UNL     1      43.651 -11.833   7.651  1.00  0.00     0.037 A 
HETATM   16  C   UNL     1      44.091 -11.326   5.323  1.00  0.00    -0.024 A 
HETATM   17  C   UNL     1      44.964 -11.498   7.979  1.00  0.00     0.003 A 
HETATM   18  C   UNL     1      45.840 -11.069   6.985  1.00  0.00     0.001 A 
HETATM   19  C   UNL     1      45.406 -10.981   5.663  1.00  0.00     0.010 A 
HETATM   20  C   UNL     1      43.641 -11.231   3.891  1.00  0.00     0.056 C 
ENDBRANCH   6  11
BRANCH   1  21
HETATM   21  C   UNL     1      43.792 -19.248   3.940  1.00  0.00     0.017 A 
HETATM   22  C   UNL     1      43.825 -20.403   3.177  1.00  0.00     0.036 A 
HETATM   23  C   UNL     1      43.611 -20.677   1.736  1.00  0.00     0.070 C 
HETATM   24  N   UNL     1      44.106 -21.416   4.057  1.00  0.00    -0.282 N 
HETATM   25  H   UNL     1      44.207 -22.406   3.857  1.00  0.00     0.189 HD
HETATM   26  N   UNL     1      44.239 -21.013   5.329  1.00  0.00    -0.186 NA
HETATM   27  C   UNL     1      44.044 -19.695   5.259  1.00  0.00     0.153 A 
ENDBRANCH   1  21
TORSDOF 2
ENDMDL
MODEL 3
REMARK VINA RESULT:      -8.5      1.399      2.164
REMARK  2 active torsions:
REMARK  status: ('A' for Active; 'I' for Inactive)
REMARK    1  A    between atoms: C_7  and  C_8 
REMARK    2  A    between atoms: C_13  and  C_18 
ROOT
HETATM    1  C   UNL     1      42.154 -13.076   4.218  1.00  0.00    -0.020 A 
HETATM    2  C   UNL     1      43.061 -12.393   3.391  1.00  0.00     0.015 A 
HETATM    3  C   UNL     1      44.093 -11.606   3.926  1.00  0.00     0.035 A 
HETATM    4  C   UNL     1      44.210 -11.512   5.319  1.00  0.00     0.085 A 
HETATM    5  N   UNL     1      45.119 -10.821   6.082  1.00  0.00    -0.233 NA
HETATM    6  C   UNL     1      44.804 -11.077   7.335  1.00  0.00     0.111 A 
HETATM    7  N   UNL     1      43.708 -11.907   7.400  1.00  0.00    -0.342 N 
HETATM    8  H   UNL     1      43.291 -12.260   8.251  1.00  0.00     0.167 HD
HETATM    9  C   UNL     1      43.307 -12.194   6.122  1.00  0.00     0.063 A 
HETATM   10  C   UNL     1      42.263 -12.976   5.616  1.00  0.00     0.044 A 
ENDROOT
BRANCH   6  11
HETATM   11  C   UNL     1      45.550 -10.582   8.546  1.00  0.00     0.084 C 
HETATM   12  C   UNL     1      46.233  -9.232   8.334  1.00  0.00     0.188 C 
HETATM   13  O   UNL     1      45.313  -8.149   8.127  1.00  0.00    -0.350 OA
HETATM   14  C   UNL     1      44.263  -8.108   9.006  1.00  0.00     0.075 A 
HETATM   15  C   UNL     1      43.535  -6.918   9.033  1.00  0.00     0.037 A 
HETATM   16  C   UNL     1      43.870  -9.195   9.794  1.00  0.00    -0.024 A 
HETATM   17  C   UNL     1      42.425  -6.796   9.868  1.00  0.00     0.003 A 
HETATM   18  C   UNL     1      42.040  -7.866  10.674  1.00  0.00     0.001 A 
HETATM   19  C   UNL     1      42.760  -9.059  10.639  1.00  0.00     0.010 A 
HETATM   20  C   UNL     1      44.632 -10.491   9.765  1.00  0.00     0.056 C 
ENDBRANCH   6  11
BRANCH   1  21
HETATM   21  C   UNL     1      41.090 -13.860   3.615  1.00  0.00     0.017 A 
HETATM   22  C   UNL     1      39.856 -13.389   3.199  1.00  0.00     0.036 A 
HETATM   23  C   UNL     1      39.220 -12.049   3.216  1.00  0.00     0.070 C 
HETATM   24  N   UNL     1      39.189 -14.483   2.713  1.00  0.00    -0.282 N 
HETATM   25  H   UNL     1      38.253 -14.520   2.321  1.00  0.00     0.189 HD
HETATM   26  N   UNL     1      39.883 -15.627   2.797  1.00  0.00    -0.186 NA
HETATM   27  C   UNL     1      41.037 -15.250   3.349  1.00  0.00     0.153 A 
ENDBRANCH   1  21
TORSDOF 2
ENDMDL
MODEL 4
REMARK VINA RESULT:      -8.4      6.898      9.474
REMARK  2 active torsions:
REMARK  status: ('A' for Active; 'I' for Inactive)
REMARK    1  A    between atoms: C_7  and  C_8 
REMARK    2  A    between atoms: C_13  and  C_18 
ROOT
HETATM    1  C   UNL     1      42.309 -16.704   2.921  1.00  0.00    -0.020 A 
HETATM    2  C   UNL     1      41.374 -16.320   3.896  1.00  0.00     0.015 A 
HETATM    3  C   UNL     1      40.658 -15.117   3.791  1.00  0.00     0.035 A 
HETATM    4  C   UNL     1      40.889 -14.294   2.682  1.00  0.00     0.085 A 
HETATM    5  N   UNL     1      40.325 -13.087   2.348  1.00  0.00    -0.233 NA
HETATM    6  C   UNL     1      40.873 -12.740   1.200  1.00  0.00     0.111 A 
HETATM    7  N   UNL     1      41.784 -13.688   0.792  1.00  0.00    -0.342 N 
HETATM    8  H   UNL     1      42.318 -13.655  -0.067  1.00  0.00     0.167 HD
HETATM    9  C   UNL     1      41.816 -14.689   1.726  1.00  0.00     0.063 A 
HETATM   10  C   UNL     1      42.551 -15.875   1.811  1.00  0.00     0.044 A 
ENDROOT
BRANCH   6  11
HETATM   11  C   UNL     1      40.535 -11.509   0.403  1.00  0.00     0.084 C 
HETATM   12  C   UNL     1      41.369 -11.354  -0.867  1.00  0.00     0.188 C 
HETATM   13  O   UNL     1      41.123 -12.377  -1.844  1.00  0.00    -0.350 OA
HETATM   14  C   UNL     1      39.801 -12.646  -2.078  1.00  0.00     0.075 A 
HETATM   15  C   UNL     1      39.522 -13.398  -3.220  1.00  0.00     0.037 A 
HETATM   16  C   UNL     1      38.769 -12.270  -1.211  1.00  0.00    -0.024 A 
HETATM   17  C   UNL     1      38.208 -13.754  -3.520  1.00  0.00     0.003 A 
HETATM   18  C   UNL     1      37.172 -13.364  -2.675  1.00  0.00     0.001 A 
HETATM   19  C   UNL     1      37.450 -12.623  -1.526  1.00  0.00     0.010 A 
HETATM   20  C   UNL     1      39.052 -11.475   0.034  1.00  0.00     0.056 C 
ENDBRANCH   6  11
BRANCH   1  21
HETATM   21  C   UNL     1      43.042 -17.949   3.086  1.00  0.00     0.017 A 
HETATM   22  C   UNL     1      43.919 -18.256   4.113  1.00  0.00     0.036 A 
HETATM   23  C   UNL     1      44.395 -17.509   5.302  1.00  0.00     0.070 C 
HETATM   24  N   UNL     1      44.372 -19.521   3.843  1.00  0.00    -0.282 N 
HETATM   25  H   UNL     1      45.031 -20.076   4.380  1.00  0.00     0.189 HD
HETATM   26  N   UNL     1      43.874 -20.050   2.716  1.00  0.00    -0.186 NA
HETATM   27  C   UNL     1      43.069 -19.093   2.253  1.00  0.00     0.153 A 
ENDBRANCH   1  21
TORSDOF 2
ENDMDL
MODEL 5
REMARK VINA RESULT:      -8.1      6.073      8.811
REMARK  2 active torsions:
REMARK  status: ('A' for Active; 'I' for Inactive)
REMARK    1  A    between atoms: C_7  and  C_8 
REMARK    2  A    between atoms: C_13  and  C_18 
ROOT
HETATM    1  C   UNL     1      43.049 -17.711   3.278  1.00  0.00    -0.020 A 
HETATM    2  C   UNL     1      43.699 -16.925   4.244  1.00  0.00     0.015 A 
HETATM    3  C   UNL     1      43.362 -15.577   4.440  1.00  0.00     0.035 A 
HETATM    4  C   UNL     1      42.351 -15.017   3.650  1.00  0.00     0.085 A 
HETATM    5  N   UNL     1      41.839 -13.742   3.646  1.00  0.00    -0.233 NA
HETATM    6  C   UNL     1      40.894 -13.738   2.728  1.00  0.00     0.111 A 
HETATM    7  N   UNL     1      40.791 -14.974   2.132  1.00  0.00    -0.342 N 
HETATM    8  H   UNL     1      40.125 -15.223   1.412  1.00  0.00     0.167 HD
HETATM    9  C   UNL     1      41.717 -15.808   2.701  1.00  0.00     0.063 A 
HETATM   10  C   UNL     1      42.040 -17.150   2.477  1.00  0.00     0.044 A 
ENDROOT
BRANCH   6  11
HETATM   11  C   UNL     1      40.005 -12.571   2.390  1.00  0.00     0.084 C 
HETATM   12  C   UNL     1      40.774 -11.312   1.991  1.00  0.00     0.188 C 
HETATM   13  O   UNL     1      41.508 -11.450   0.765  1.00  0.00    -0.350 OA
HETATM   14  C   UNL     1      40.809 -12.022  -0.264  1.00  0.00     0.075 A 
HETATM   15  C   UNL     1      41.374 -11.892  -1.534  1.00  0.00     0.037 A 
HETATM   16  C   UNL     1      39.634 -12.761  -0.087  1.00  0.00    -0.024 A 
HETATM   17  C   UNL     1      40.754 -12.475  -2.638  1.00  0.00     0.003 A 
HETATM   18  C   UNL     1      39.571 -13.193  -2.474  1.00  0.00     0.001 A 
HETATM   19  C   UNL     1      39.012 -13.333  -1.204  1.00  0.00     0.010 A 
HETATM   20  C   UNL     1      39.020 -12.927   1.276  1.00  0.00     0.056 C 
ENDBRANCH   6  11
BRANCH   1  21
HETATM   21  C   UNL     1      43.449 -19.097   3.099  1.00  0.00     0.017 A 
HETATM   22  C   UNL     1      43.807 -19.984   4.099  1.00  0.00     0.036 A 
HETATM   23  C   UNL     1      43.911 -19.868   5.574  1.00  0.00     0.070 C 
HETATM   24  N   UNL     1      44.115 -21.156   3.458  1.00  0.00    -0.282 N 
HETATM   25  H   UNL     1      44.420 -22.032   3.871  1.00  0.00     0.189 HD
HETATM   26  N   UNL     1      44.004 -21.094   2.123  1.00  0.00    -0.186 NA
HETATM   27  C   UNL     1      43.603 -19.840   1.904  1.00  0.00     0.153 A 
ENDBRANCH   1  21
TORSDOF 2
ENDMDL
MODEL 6
REMARK VINA RESULT:      -8.1      6.569     10.078
REMARK  2 active torsions:
REMARK  status: ('A' for Active; 'I' for Inactive)
REMARK    1  A    between atoms: C_7  and  C_8 
REMARK    2  A    between atoms: C_13  and  C_18 
ROOT
HETATM    1  C   UNL     1      43.038  -8.870  12.281  1.00  0.00    -0.020 A 
HETATM    2  C   UNL     1      41.865  -9.581  12.587  1.00  0.00     0.015 A 
HETATM    3  C   UNL     1      41.143  -9.329  13.764  1.00  0.00     0.035 A 
HETATM    4  C   UNL     1      41.611  -8.343  14.641  1.00  0.00     0.085 A 
HETATM    5  N   UNL     1      41.094  -7.910  15.838  1.00  0.00    -0.233 NA
HETATM    6  C   UNL     1      41.901  -6.954  16.252  1.00  0.00     0.111 A 
HETATM    7  N   UNL     1      42.932  -6.768  15.358  1.00  0.00    -0.342 N 
HETATM    8  H   UNL     1      43.666  -6.078  15.447  1.00  0.00     0.167 HD
HETATM    9  C   UNL     1      42.770  -7.649  14.322  1.00  0.00     0.063 A 
HETATM   10  C   UNL     1      43.516  -7.886  13.163  1.00  0.00     0.044 A 
ENDROOT
BRANCH   6  11
HETATM   11  C   UNL     1      41.720  -6.133  17.501  1.00  0.00     0.084 C 
HETATM   12  C   UNL     1      40.260  -5.969  17.919  1.00  0.00     0.188 C 
HETATM   13  O   UNL     1      39.635  -7.200  18.317  1.00  0.00    -0.350 OA
HETATM   14  C   UNL     1      40.374  -7.972  19.173  1.00  0.00     0.075 A 
HETATM   15  C   UNL     1      39.687  -9.003  19.814  1.00  0.00     0.037 A 
HETATM   16  C   UNL     1      41.750  -7.813  19.366  1.00  0.00    -0.024 A 
HETATM   17  C   UNL     1      40.364  -9.866  20.675  1.00  0.00     0.003 A 
HETATM   18  C   UNL     1      41.730  -9.701  20.891  1.00  0.00     0.001 A 
HETATM   19  C   UNL     1      42.421  -8.679  20.242  1.00  0.00     0.010 A 
HETATM   20  C   UNL     1      42.511  -6.719  18.670  1.00  0.00     0.056 C 
ENDBRANCH   6  11
BRANCH   1  21
HETATM   21  C   UNL     1      43.762  -9.183  11.061  1.00  0.00     0.017 A 
HETATM   22  C   UNL     1      43.828  -8.400   9.920  1.00  0.00     0.036 A 
HETATM   23  C   UNL     1      43.241  -7.089   9.551  1.00  0.00     0.070 C 
HETATM   24  N   UNL     1      44.606  -9.102   9.037  1.00  0.00    -0.282 N 
HETATM   25  H   UNL     1      44.873  -8.837   8.094  1.00  0.00     0.189 HD
HETATM   26  N   UNL     1      45.034 -10.283   9.505  1.00  0.00    -0.186 NA
HETATM   27  C   UNL     1      44.517 -10.335  10.734  1.00  0.00     0.153 A 
ENDBRANCH   1  21
TORSDOF 2
ENDMDL
MODEL 7
REMARK VINA RESULT:      -8.0      4.615      7.193
REMARK  2 active torsions:
REMARK  status: ('A' for Active; 'I' for Inactive)
REMARK    1  A    between atoms: C_7  and  C_8 
REMARK    2  A    between atoms: C_13  and  C_18 
ROOT
HETATM    1  C   UNL     1      43.584 -17.821   4.135  1.00  0.00    -0.020 A 
HETATM    2  C   UNL     1      44.292 -17.542   5.315  1.00  0.00     0.015 A 
HETATM    3  C   UNL     1      44.219 -16.283   5.932  1.00  0.00     0.035 A 
HETATM    4  C   UNL     1      43.415 -15.296   5.350  1.00  0.00     0.085 A 
HETATM    5  N   UNL     1      43.174 -14.005   5.752  1.00  0.00    -0.233 NA
HETATM    6  C   UNL     1      42.333 -13.505   4.868  1.00  0.00     0.111 A 
HETATM    7  N   UNL     1      42.035 -14.438   3.901  1.00  0.00    -0.342 N 
HETATM    8  H   UNL     1      41.398 -14.296   3.128  1.00  0.00     0.167 HD
HETATM    9  C   UNL     1      42.720 -15.590   4.185  1.00  0.00     0.063 A 
HETATM   10  C   UNL     1      42.783 -16.830   3.542  1.00  0.00     0.044 A 
ENDROOT
BRANCH   6  11
HETATM   11  C   UNL     1      41.732 -12.126   4.912  1.00  0.00     0.084 C 
HETATM   12  C   UNL     1      42.540 -11.081   4.145  1.00  0.00     0.188 C 
HETATM   13  O   UNL     1      42.575 -11.310   2.727  1.00  0.00    -0.350 OA
HETATM   14  C   UNL     1      41.364 -11.601   2.159  1.00  0.00     0.075 A 
HETATM   15  C   UNL     1      41.306 -11.524   0.767  1.00  0.00     0.037 A 
HETATM   16  C   UNL     1      40.248 -12.023   2.890  1.00  0.00    -0.024 A 
HETATM   17  C   UNL     1      40.126 -11.841   0.097  1.00  0.00     0.003 A 
HETATM   18  C   UNL     1      39.002 -12.239   0.818  1.00  0.00     0.001 A 
HETATM   19  C   UNL     1      39.061 -12.328   2.208  1.00  0.00     0.010 A 
HETATM   20  C   UNL     1      40.295 -12.129   4.389  1.00  0.00     0.056 C 
ENDBRANCH   6  11
BRANCH   1  21
HETATM   21  C   UNL     1      43.709 -19.134   3.522  1.00  0.00     0.017 A 
HETATM   22  C   UNL     1      43.928 -20.331   4.182  1.00  0.00     0.036 A 
HETATM   23  C   UNL     1      44.102 -20.689   5.610  1.00  0.00     0.070 C 
HETATM   24  N   UNL     1      43.988 -21.286   3.200  1.00  0.00    -0.282 N 
HETATM   25  H   UNL     1      44.136 -22.284   3.308  1.00  0.00     0.189 HD
HETATM   26  N   UNL     1      43.845 -20.802   1.958  1.00  0.00    -0.186 NA
HETATM   27  C   UNL     1      43.680 -19.492   2.153  1.00  0.00     0.153 A 
ENDBRANCH   1  21
TORSDOF 2
ENDMDL
MODEL 8
REMARK VINA RESULT:      -8.0      5.103      7.140
REMARK  2 active torsions:
REMARK  status: ('A' for Active; 'I' for Inactive)
REMARK    1  A    between atoms: C_7  and  C_8 
REMARK    2  A    between atoms: C_13  and  C_18 
ROOT
HETATM    1  C   UNL     1      40.130 -12.969   0.087  1.00  0.00    -0.020 A 
HETATM    2  C   UNL     1      41.037 -11.934   0.368  1.00  0.00     0.015 A 
HETATM    3  C   UNL     1      41.502 -11.700   1.671  1.00  0.00     0.035 A 
HETATM    4  C   UNL     1      41.044 -12.527   2.705  1.00  0.00     0.085 A 
HETATM    5  N   UNL     1      41.343 -12.510   4.045  1.00  0.00    -0.233 NA
HETATM    6  C   UNL     1      40.664 -13.507   4.577  1.00  0.00     0.111 A 
HETATM    7  N   UNL     1      39.927 -14.159   3.615  1.00  0.00    -0.342 N 
HETATM    8  H   UNL     1      39.340 -14.968   3.775  1.00  0.00     0.167 HD
HETATM    9  C   UNL     1      40.149 -13.547   2.410  1.00  0.00     0.063 A 
HETATM   10  C   UNL     1      39.661 -13.795   1.123  1.00  0.00     0.044 A 
ENDROOT
BRANCH   6  11
HETATM   11  C   UNL     1      40.707 -13.925   6.022  1.00  0.00     0.084 C 
HETATM   12  C   UNL     1      40.036 -15.270   6.291  1.00  0.00     0.188 C 
HETATM   13  O   UNL     1      40.707 -16.380   5.674  1.00  0.00    -0.350 OA
HETATM   14  C   UNL     1      42.066 -16.396   5.838  1.00  0.00     0.075 A 
HETATM   15  C   UNL     1      42.706 -17.597   5.528  1.00  0.00     0.037 A 
HETATM   16  C   UNL     1      42.813 -15.278   6.224  1.00  0.00    -0.024 A 
HETATM   17  C   UNL     1      44.093 -17.697   5.626  1.00  0.00     0.003 A 
HETATM   18  C   UNL     1      44.842 -16.595   6.032  1.00  0.00     0.001 A 
HETATM   19  C   UNL     1      44.206 -15.391   6.331  1.00  0.00     0.010 A 
HETATM   20  C   UNL     1      42.143 -13.970   6.545  1.00  0.00     0.056 C 
ENDBRANCH   6  11
BRANCH   1  21
HETATM   21  C   UNL     1      39.662 -13.157  -1.276  1.00  0.00     0.017 A 
HETATM   22  C   UNL     1      38.568 -12.541  -1.861  1.00  0.00     0.036 A 
HETATM   23  C   UNL     1      37.566 -11.565  -1.370  1.00  0.00     0.070 C 
HETATM   24  N   UNL     1      38.510 -13.033  -3.140  1.00  0.00    -0.282 N 
HETATM   25  H   UNL     1      37.837 -12.807  -3.865  1.00  0.00     0.189 HD
HETATM   26  N   UNL     1      39.465 -13.930  -3.423  1.00  0.00    -0.186 NA
HETATM   27  C   UNL     1      40.163 -14.010  -2.289  1.00  0.00     0.153 A 
ENDBRANCH   1  21
TORSDOF 2
ENDMDL
MODEL 9
REMARK VINA RESULT:      -7.9      1.792      2.341
REMARK  2 active torsions:
REMARK  status: ('A' for Active; 'I' for Inactive)
REMARK    1  A    between atoms: C_7  and  C_8 
REMARK    2  A    between atoms: C_13  and  C_18 
ROOT
HETATM    1  C   UNL     1      42.194 -13.322   5.216  1.00  0.00    -0.020 A 
HETATM    2  C   UNL     1      43.213 -14.129   5.748  1.00  0.00     0.015 A 
HETATM    3  C   UNL     1      44.135 -13.625   6.678  1.00  0.00     0.035 A 
HETATM    4  C   UNL     1      44.023 -12.287   7.077  1.00  0.00     0.085 A 
HETATM    5  N   UNL     1      44.786 -11.564   7.961  1.00  0.00    -0.233 NA
HETATM    6  C   UNL     1      44.252 -10.360   7.994  1.00  0.00     0.111 A 
HETATM    7  N   UNL     1      43.171 -10.285   7.144  1.00  0.00    -0.342 N 
HETATM    8  H   UNL     1      42.587  -9.470   7.011  1.00  0.00     0.167 HD
HETATM    9  C   UNL     1      43.009 -11.505   6.542  1.00  0.00     0.063 A 
HETATM   10  C   UNL     1      42.083 -11.977   5.606  1.00  0.00     0.044 A 
ENDROOT
BRANCH   6  11
HETATM   11  C   UNL     1      44.711  -9.220   8.864  1.00  0.00     0.084 C 
HETATM   12  C   UNL     1      43.877  -7.951   8.700  1.00  0.00     0.188 C 
HETATM   13  O   UNL     1      42.519  -8.094   9.145  1.00  0.00    -0.350 OA
HETATM   14  C   UNL     1      42.373  -8.700  10.364  1.00  0.00     0.075 A 
HETATM   15  C   UNL     1      41.117  -8.580  10.961  1.00  0.00     0.037 A 
HETATM   16  C   UNL     1      43.374  -9.463  10.975  1.00  0.00    -0.024 A 
HETATM   17  C   UNL     1      40.861  -9.196  12.185  1.00  0.00     0.003 A 
HETATM   18  C   UNL     1      41.860  -9.939  12.811  1.00  0.00     0.001 A 
HETATM   19  C   UNL     1      43.112 -10.070  12.211  1.00  0.00     0.010 A 
HETATM   20  C   UNL     1      44.728  -9.619  10.339  1.00  0.00     0.056 C 
ENDBRANCH   6  11
BRANCH   1  21
HETATM   21  C   UNL     1      41.276 -13.885   4.239  1.00  0.00     0.017 A 
HETATM   22  C   UNL     1      40.635 -15.110   4.324  1.00  0.00     0.036 A 
HETATM   23  C   UNL     1      40.645 -16.196   5.334  1.00  0.00     0.070 C 
HETATM   24  N   UNL     1      39.890 -15.215   3.178  1.00  0.00    -0.282 N 
HETATM   25  H   UNL     1      39.287 -15.981   2.894  1.00  0.00     0.189 HD
HETATM   26  N   UNL     1      40.011 -14.168   2.350  1.00  0.00    -0.186 NA
HETATM   27  C   UNL     1      40.857 -13.361   2.992  1.00  0.00     0.153 A 
ENDBRANCH   1  21
TORSDOF 2
ENDMDL
MODEL 10
REMARK VINA RESULT:      -7.9      4.114      6.297
REMARK  2 active torsions:
REMARK  status: ('A' for Active; 'I' for Inactive)
REMARK    1  A    between atoms: C_7  and  C_8 
REMARK    2  A    between atoms: C_13  and  C_18 
ROOT
HETATM    1  C   UNL     1      43.478 -17.727   3.595  1.00  0.00    -0.020 A 
HETATM    2  C   UNL     1      43.436 -17.338   4.945  1.00  0.00     0.015 A 
HETATM    3  C   UNL     1      43.275 -15.994   5.315  1.00  0.00     0.035 A 
HETATM    4  C   UNL     1      43.151 -15.030   4.306  1.00  0.00     0.085 A 
HETATM    5  N   UNL     1      42.984 -13.670   4.402  1.00  0.00    -0.233 NA
HETATM    6  C   UNL     1      42.905 -13.231   3.162  1.00  0.00     0.111 A 
HETATM    7  N   UNL     1      43.029 -14.271   2.269  1.00  0.00    -0.342 N 
HETATM    8  H   UNL     1      42.981 -14.187   1.262  1.00  0.00     0.167 HD
HETATM    9  C   UNL     1      43.193 -15.432   2.978  1.00  0.00     0.063 A 
HETATM   10  C   UNL     1      43.364 -16.762   2.580  1.00  0.00     0.044 A 
ENDROOT
BRANCH   6  11
HETATM   11  C   UNL     1      42.667 -11.802   2.752  1.00  0.00     0.084 C 
HETATM   12  C   UNL     1      41.315 -11.576   2.078  1.00  0.00     0.188 C 
HETATM   13  O   UNL     1      40.194 -11.791   2.950  1.00  0.00    -0.350 OA
HETATM   14  C   UNL     1      40.304 -11.208   4.184  1.00  0.00     0.075 A 
HETATM   15  C   UNL     1      39.128 -11.133   4.932  1.00  0.00     0.037 A 
HETATM   16  C   UNL     1      41.515 -10.765   4.727  1.00  0.00    -0.024 A 
HETATM   17  C   UNL     1      39.149 -10.591   6.216  1.00  0.00     0.003 A 
HETATM   18  C   UNL     1      40.346 -10.126   6.756  1.00  0.00     0.001 A 
HETATM   19  C   UNL     1      41.524 -10.210   6.014  1.00  0.00     0.010 A 
HETATM   20  C   UNL     1      42.795 -10.853   3.943  1.00  0.00     0.056 C 
ENDBRANCH   6  11
BRANCH   1  21
HETATM   21  C   UNL     1      43.669 -19.129   3.263  1.00  0.00     0.017 A 
HETATM   22  C   UNL     1      43.902 -20.161   4.157  1.00  0.00     0.036 A 
HETATM   23  C   UNL     1      44.035 -20.218   5.632  1.00  0.00     0.070 C 
HETATM   24  N   UNL     1      44.028 -21.290   3.390  1.00  0.00    -0.282 N 
HETATM   25  H   UNL     1      44.205 -22.240   3.701  1.00  0.00     0.189 HD
HETATM   26  N   UNL     1      43.915 -21.070   2.072  1.00  0.00    -0.186 NA
HETATM   27  C   UNL     1      43.701 -19.755   1.994  1.00  0.00     0.153 A 
ENDBRANCH   1  21
TORSDOF 2
ENDMDL
