MODEL 1
REMARK VINA RESULT:      -8.2      0.000      0.000
REMARK  9 active torsions:
REMARK  status: ('A' for Active; 'I' for Inactive)
REMARK    1  A    between atoms: C_2  and  O_3 
REMARK    2  A    between atoms: O_3  and  C_4 
REMARK    3  A    between atoms: C_4  and  C_5 
REMARK    4  A    between atoms: C_8  and  N_9 
REMARK       I    between atoms: N_9  and  C_10 
REMARK    5  A    between atoms: C_10  and  C_11 
REMARK    6  A    between atoms: C_11  and  C_12 
REMARK    7  A    between atoms: N_13  and  C_14 
REMARK    8  A    between atoms: C_14  and  C_15 
REMARK    9  A    between atoms: N_23  and  C_24 
ROOT
HETATM    1  C   UNL     1      40.449 -14.157   3.275  1.00  0.00     0.191 C 
HETATM    2  N   UNL     1      41.242 -14.108   2.061  1.00  0.00    -0.315 N 
HETATM    3  C   UNL     1      42.207 -15.111   2.037  1.00  0.00     0.333 C 
HETATM    4  O   UNL     1      43.110 -15.126   1.213  1.00  0.00    -0.246 OA
HETATM    5  N   UNL     1      41.969 -15.979   3.083  1.00  0.00    -0.232 N 
HETATM    6  C   UNL     1      40.891 -15.520   3.813  1.00  0.00     0.256 C 
HETATM    7  O   UNL     1      40.347 -16.029   4.788  1.00  0.00    -0.270 OA
ENDROOT
BRANCH   1   8
HETATM    8  C   UNL     1      40.791 -13.127   4.347  1.00  0.00     0.138 C 
BRANCH   8   9
HETATM    9  C   UNL     1      39.579 -12.446   4.910  1.00  0.00     0.224 C 
HETATM   10  N   UNL     1      38.953 -11.391   4.338  1.00  0.00    -0.327 N 
HETATM   11  H   UNL     1      38.243 -11.048   4.979  1.00  0.00     0.169 HD
HETATM   12  O   UNL     1      39.127 -12.834   5.996  1.00  0.00    -0.273 OA
BRANCH  10  13
HETATM   13  C   UNL     1      38.969 -10.750   3.089  1.00  0.00     0.034 A 
HETATM   14  C   UNL     1      39.844  -9.747   2.683  1.00  0.00     0.030 A 
HETATM   15  C   UNL     1      39.833  -9.292   1.351  1.00  0.00     0.020 A 
HETATM   16  C   UNL     1      38.948  -9.835   0.411  1.00  0.00     0.039 A 
HETATM   17  C   UNL     1      38.032 -10.800   0.827  1.00  0.00     0.020 A 
HETATM   18  C   UNL     1      38.046 -11.248   2.152  1.00  0.00     0.030 A 
BRANCH  16  19
HETATM   19  C   UNL     1      39.053  -9.402  -1.012  1.00  0.00     0.293 C 
HETATM   20  O   UNL     1      38.342  -9.836  -1.905  1.00  0.00    -0.259 OA
BRANCH  19  21
HETATM   21  O   UNL     1      39.982  -8.420  -1.130  1.00  0.00    -0.318 OA
BRANCH  21  22
HETATM   22  C   UNL     1      41.025  -8.646  -2.090  1.00  0.00     0.174 C 
HETATM   23  C   UNL     1      42.362  -8.815  -1.396  1.00  0.00     0.034 C 
ENDBRANCH  21  22
ENDBRANCH  19  21
ENDBRANCH  16  19
ENDBRANCH  10  13
ENDBRANCH   8   9
ENDBRANCH   1   8
BRANCH   2  24
HETATM   24  C   UNL     1      41.337 -12.962   1.166  1.00  0.00     0.168 C 
BRANCH  24  25
HETATM   25  C   UNL     1      40.696 -13.143  -0.181  1.00  0.00    -0.023 A 
HETATM   26  C   UNL     1      39.791 -14.166  -0.436  1.00  0.00     0.125 A 
HETATM   27  N   UNL     1      39.215 -14.388  -1.639  1.00  0.00    -0.273 NA
HETATM   28  C   UNL     1      39.585 -13.577  -2.652  1.00  0.00     0.116 A 
HETATM   29  C   UNL     1      40.501 -12.549  -2.515  1.00  0.00     0.020 A 
HETATM   30  C   UNL     1      41.065 -12.335  -1.262  1.00  0.00     0.012 A 
ENDBRANCH  24  25
ENDBRANCH   2  24
BRANCH   5  31
HETATM   31  C   UNL     1      42.760 -17.133   3.382  1.00  0.00     0.047 A 
HETATM   32  C   UNL     1      42.828 -18.227   2.499  1.00  0.00     0.037 A 
HETATM   33  C   UNL     1      43.643 -19.347   2.752  1.00  0.00    -0.060 A 
HETATM   34  C   UNL     1      43.674 -20.501   1.793  1.00  0.00     0.048 C 
HETATM   35  C   UNL     1      44.389 -19.391   3.928  1.00  0.00     0.007 A 
HETATM   36  C   UNL     1      44.330 -18.330   4.826  1.00  0.00     0.003 A 
HETATM   37  C   UNL     1      43.523 -17.217   4.556  1.00  0.00     0.030 A 
ENDBRANCH   5  31
TORSDOF 9
ENDMDL
MODEL 2
REMARK VINA RESULT:      -7.8      3.362      5.346
REMARK  9 active torsions:
REMARK  status: ('A' for Active; 'I' for Inactive)
REMARK    1  A    between atoms: C_2  and  O_3 
REMARK    2  A    between atoms: O_3  and  C_4 
REMARK    3  A    between atoms: C_4  and  C_5 
REMARK    4  A    between atoms: C_8  and  N_9 
REMARK       I    between atoms: N_9  and  C_10 
REMARK    5  A    between atoms: C_10  and  C_11 
REMARK    6  A    between atoms: C_11  and  C_12 
REMARK    7  A    between atoms: N_13  and  C_14 
REMARK    8  A    between atoms: C_14  and  C_15 
REMARK    9  A    between atoms: N_23  and  C_24 
ROOT
HETATM    1  C   UNL     1      40.403 -14.397   3.290  1.00  0.00     0.191 C 
HETATM    2  N   UNL     1      41.355 -14.198   2.213  1.00  0.00    -0.315 N 
HETATM    3  C   UNL     1      42.341 -15.180   2.212  1.00  0.00     0.333 C 
HETATM    4  O   UNL     1      43.350 -15.089   1.527  1.00  0.00    -0.246 OA
HETATM    5  N   UNL     1      41.985 -16.166   3.109  1.00  0.00    -0.232 N 
HETATM    6  C   UNL     1      40.804 -15.808   3.727  1.00  0.00     0.256 C 
HETATM    7  O   UNL     1      40.144 -16.433   4.552  1.00  0.00    -0.270 OA
ENDROOT
BRANCH   1   8
HETATM    8  C   UNL     1      40.563 -13.494   4.509  1.00  0.00     0.138 C 
BRANCH   8   9
HETATM    9  C   UNL     1      39.990 -12.124   4.301  1.00  0.00     0.224 C 
HETATM   10  N   UNL     1      40.416 -11.006   4.935  1.00  0.00    -0.327 N 
HETATM   11  H   UNL     1      39.785 -10.244   4.707  1.00  0.00     0.169 HD
HETATM   12  O   UNL     1      39.030 -11.990   3.530  1.00  0.00    -0.273 OA
BRANCH  10  13
HETATM   13  C   UNL     1      41.527 -10.632   5.707  1.00  0.00     0.034 A 
HETATM   14  C   UNL     1      41.514  -9.823   6.840  1.00  0.00     0.030 A 
HETATM   15  C   UNL     1      42.688  -9.644   7.597  1.00  0.00     0.020 A 
HETATM   16  C   UNL     1      43.885 -10.272   7.231  1.00  0.00     0.039 A 
HETATM   17  C   UNL     1      43.915 -11.037   6.065  1.00  0.00     0.020 A 
HETATM   18  C   UNL     1      42.746 -11.211   5.316  1.00  0.00     0.030 A 
BRANCH  16  19
HETATM   19  C   UNL     1      45.069 -10.144   8.126  1.00  0.00     0.293 C 
HETATM   20  O   UNL     1      46.047  -9.462   7.862  1.00  0.00    -0.259 OA
BRANCH  19  21
HETATM   21  O   UNL     1      44.852 -10.823   9.281  1.00  0.00    -0.318 OA
BRANCH  21  22
HETATM   22  C   UNL     1      45.213 -10.145  10.493  1.00  0.00     0.174 C 
HETATM   23  C   UNL     1      44.101  -9.218  10.938  1.00  0.00     0.034 C 
ENDBRANCH  21  22
ENDBRANCH  19  21
ENDBRANCH  16  19
ENDBRANCH  10  13
ENDBRANCH   8   9
ENDBRANCH   1   8
BRANCH   2  24
HETATM   24  C   UNL     1      41.540 -12.955   1.476  1.00  0.00     0.168 C 
BRANCH  24  25
HETATM   25  C   UNL     1      40.895 -12.909   0.120  1.00  0.00    -0.023 A 
HETATM   26  C   UNL     1      40.933 -11.771  -0.677  1.00  0.00     0.125 A 
HETATM   27  N   UNL     1      40.339 -11.672  -1.889  1.00  0.00    -0.273 NA
HETATM   28  C   UNL     1      39.640 -12.744  -2.315  1.00  0.00     0.116 A 
HETATM   29  C   UNL     1      39.511 -13.914  -1.587  1.00  0.00     0.020 A 
HETATM   30  C   UNL     1      40.145 -13.992  -0.352  1.00  0.00     0.012 A 
ENDBRANCH  24  25
ENDBRANCH   2  24
BRANCH   5  31
HETATM   31  C   UNL     1      42.758 -17.337   3.384  1.00  0.00     0.047 A 
HETATM   32  C   UNL     1      42.867 -18.384   2.449  1.00  0.00     0.037 A 
HETATM   33  C   UNL     1      43.666 -19.519   2.681  1.00  0.00    -0.060 A 
HETATM   34  C   UNL     1      43.741 -20.622   1.666  1.00  0.00     0.048 C 
HETATM   35  C   UNL     1      44.356 -19.628   3.887  1.00  0.00     0.007 A 
HETATM   36  C   UNL     1      44.256 -18.616   4.836  1.00  0.00     0.003 A 
HETATM   37  C   UNL     1      43.465 -17.486   4.587  1.00  0.00     0.030 A 
ENDBRANCH   5  31
TORSDOF 9
ENDMDL
MODEL 3
REMARK VINA RESULT:      -7.6      6.219      9.173
REMARK  9 active torsions:
REMARK  status: ('A' for Active; 'I' for Inactive)
REMARK    1  A    between atoms: C_2  and  O_3 
REMARK    2  A    between atoms: O_3  and  C_4 
REMARK    3  A    between atoms: C_4  and  C_5 
REMARK    4  A    between atoms: C_8  and  N_9 
REMARK       I    between atoms: N_9  and  C_10 
REMARK    5  A    between atoms: C_10  and  C_11 
REMARK    6  A    between atoms: C_11  and  C_12 
REMARK    7  A    between atoms: N_13  and  C_14 
REMARK    8  A    between atoms: C_14  and  C_15 
REMARK    9  A    between atoms: N_23  and  C_24 
ROOT
HETATM    1  C   UNL     1      43.383 -11.271   7.050  1.00  0.00     0.191 C 
HETATM    2  N   UNL     1      42.101 -10.809   6.551  1.00  0.00    -0.315 N 
HETATM    3  C   UNL     1      41.538 -11.719   5.662  1.00  0.00     0.333 C 
HETATM    4  O   UNL     1      40.569 -11.440   4.971  1.00  0.00    -0.246 OA
HETATM    5  N   UNL     1      42.276 -12.884   5.696  1.00  0.00    -0.232 N 
HETATM    6  C   UNL     1      43.341 -12.719   6.559  1.00  0.00     0.256 C 
HETATM    7  O   UNL     1      44.199 -13.531   6.890  1.00  0.00    -0.270 OA
ENDROOT
BRANCH   1   8
HETATM    8  C   UNL     1      44.620 -10.629   6.430  1.00  0.00     0.138 C 
BRANCH   8   9
HETATM    9  C   UNL     1      45.767 -10.522   7.391  1.00  0.00     0.224 C 
HETATM   10  N   UNL     1      45.762  -9.767   8.515  1.00  0.00    -0.327 N 
HETATM   11  H   UNL     1      46.695  -9.776   8.915  1.00  0.00     0.169 HD
HETATM   12  O   UNL     1      46.817 -11.126   7.136  1.00  0.00    -0.273 OA
BRANCH  10  13
HETATM   13  C   UNL     1      44.802  -9.094   9.287  1.00  0.00     0.034 A 
HETATM   14  C   UNL     1      44.370  -9.445  10.563  1.00  0.00     0.030 A 
HETATM   15  C   UNL     1      43.501  -8.598  11.276  1.00  0.00     0.020 A 
HETATM   16  C   UNL     1      43.055  -7.392  10.722  1.00  0.00     0.039 A 
HETATM   17  C   UNL     1      43.440  -7.064   9.423  1.00  0.00     0.020 A 
HETATM   18  C   UNL     1      44.303  -7.910   8.717  1.00  0.00     0.030 A 
BRANCH  16  19
HETATM   19  C   UNL     1      42.229  -6.476  11.559  1.00  0.00     0.293 C 
HETATM   20  O   UNL     1      42.101  -5.283  11.333  1.00  0.00    -0.259 OA
BRANCH  19  21
HETATM   21  O   UNL     1      41.598  -7.181  12.532  1.00  0.00    -0.318 OA
BRANCH  21  22
HETATM   22  C   UNL     1      41.644  -6.620  13.852  1.00  0.00     0.174 C 
HETATM   23  C   UNL     1      42.910  -7.044  14.569  1.00  0.00     0.034 C 
ENDBRANCH  21  22
ENDBRANCH  19  21
ENDBRANCH  16  19
ENDBRANCH  10  13
ENDBRANCH   8   9
ENDBRANCH   1   8
BRANCH   2  24
HETATM   24  C   UNL     1      41.623  -9.433   6.612  1.00  0.00     0.168 C 
BRANCH  24  25
HETATM   25  C   UNL     1      40.637  -9.142   7.707  1.00  0.00    -0.023 A 
HETATM   26  C   UNL     1      39.550  -8.297   7.517  1.00  0.00     0.125 A 
HETATM   27  N   UNL     1      38.656  -7.980   8.481  1.00  0.00    -0.273 NA
HETATM   28  C   UNL     1      38.874  -8.498   9.708  1.00  0.00     0.116 A 
HETATM   29  C   UNL     1      39.941  -9.323  10.014  1.00  0.00     0.020 A 
HETATM   30  C   UNL     1      40.835  -9.644   8.998  1.00  0.00     0.012 A 
ENDBRANCH  24  25
ENDBRANCH   2  24
BRANCH   5  31
HETATM   31  C   UNL     1      42.002 -14.048   4.910  1.00  0.00     0.047 A 
HETATM   32  C   UNL     1      42.737 -14.338   3.744  1.00  0.00     0.037 A 
HETATM   33  C   UNL     1      42.518 -15.504   2.988  1.00  0.00    -0.060 A 
HETATM   34  C   UNL     1      43.311 -15.768   1.741  1.00  0.00     0.048 C 
HETATM   35  C   UNL     1      41.523 -16.395   3.388  1.00  0.00     0.007 A 
HETATM   36  C   UNL     1      40.771 -16.126   4.527  1.00  0.00     0.003 A 
HETATM   37  C   UNL     1      41.008 -14.966   5.276  1.00  0.00     0.030 A 
ENDBRANCH   5  31
TORSDOF 9
ENDMDL
MODEL 4
REMARK VINA RESULT:      -7.6      3.550      6.436
REMARK  9 active torsions:
REMARK  status: ('A' for Active; 'I' for Inactive)
REMARK    1  A    between atoms: C_2  and  O_3 
REMARK    2  A    between atoms: O_3  and  C_4 
REMARK    3  A    between atoms: C_4  and  C_5 
REMARK    4  A    between atoms: C_8  and  N_9 
REMARK       I    between atoms: N_9  and  C_10 
REMARK    5  A    between atoms: C_10  and  C_11 
REMARK    6  A    between atoms: C_11  and  C_12 
REMARK    7  A    between atoms: N_13  and  C_14 
REMARK    8  A    between atoms: C_14  and  C_15 
REMARK    9  A    between atoms: N_23  and  C_24 
ROOT
HETATM    1  C   UNL     1      42.787 -14.127   3.628  1.00  0.00     0.191 C 
HETATM    2  N   UNL     1      42.990 -14.309   5.053  1.00  0.00    -0.315 N 
HETATM    3  C   UNL     1      43.189 -15.648   5.376  1.00  0.00     0.333 C 
HETATM    4  O   UNL     1      43.173 -16.049   6.531  1.00  0.00    -0.246 OA
HETATM    5  N   UNL     1      43.346 -16.366   4.208  1.00  0.00    -0.232 N 
HETATM    6  C   UNL     1      43.200 -15.514   3.131  1.00  0.00     0.256 C 
HETATM    7  O   UNL     1      43.307 -15.758   1.934  1.00  0.00    -0.270 OA
ENDROOT
BRANCH   1   8
HETATM    8  C   UNL     1      41.348 -13.905   3.173  1.00  0.00     0.138 C 
BRANCH   8   9
HETATM    9  C   UNL     1      41.155 -12.599   2.462  1.00  0.00     0.224 C 
HETATM   10  N   UNL     1      40.828 -11.432   3.067  1.00  0.00    -0.327 N 
HETATM   11  H   UNL     1      40.639 -10.737   2.351  1.00  0.00     0.169 HD
HETATM   12  O   UNL     1      41.256 -12.571   1.228  1.00  0.00    -0.273 OA
BRANCH  10  13
HETATM   13  C   UNL     1      40.792 -10.941   4.382  1.00  0.00     0.034 A 
HETATM   14  C   UNL     1      41.661 -10.009   4.942  1.00  0.00     0.030 A 
HETATM   15  C   UNL     1      41.422  -9.503   6.234  1.00  0.00     0.020 A 
HETATM   16  C   UNL     1      40.313  -9.923   6.979  1.00  0.00     0.039 A 
HETATM   17  C   UNL     1      39.472 -10.899   6.444  1.00  0.00     0.020 A 
HETATM   18  C   UNL     1      39.714 -11.399   5.160  1.00  0.00     0.030 A 
BRANCH  16  19
HETATM   19  C   UNL     1      40.040  -9.276   8.293  1.00  0.00     0.293 C 
HETATM   20  O   UNL     1      38.958  -9.318   8.857  1.00  0.00    -0.259 OA
BRANCH  19  21
HETATM   21  O   UNL     1      41.178  -8.719   8.781  1.00  0.00    -0.318 OA
BRANCH  21  22
HETATM   22  C   UNL     1      41.730  -9.331   9.956  1.00  0.00     0.174 C 
HETATM   23  C   UNL     1      42.674  -8.377  10.661  1.00  0.00     0.034 C 
ENDBRANCH  21  22
ENDBRANCH  19  21
ENDBRANCH  16  19
ENDBRANCH  10  13
ENDBRANCH   8   9
ENDBRANCH   1   8
BRANCH   2  24
HETATM   24  C   UNL     1      42.639 -13.339   6.082  1.00  0.00     0.168 C 
BRANCH  24  25
HETATM   25  C   UNL     1      43.771 -12.480   6.569  1.00  0.00    -0.023 A 
HETATM   26  C   UNL     1      43.830 -12.007   7.874  1.00  0.00     0.125 A 
HETATM   27  N   UNL     1      44.810 -11.205   8.349  1.00  0.00    -0.273 NA
HETATM   28  C   UNL     1      45.761 -10.820   7.472  1.00  0.00     0.116 A 
HETATM   29  C   UNL     1      45.780 -11.206   6.143  1.00  0.00     0.020 A 
HETATM   30  C   UNL     1      44.767 -12.043   5.688  1.00  0.00     0.012 A 
ENDBRANCH  24  25
ENDBRANCH   2  24
BRANCH   5  31
HETATM   31  C   UNL     1      43.564 -17.778   4.140  1.00  0.00     0.047 A 
HETATM   32  C   UNL     1      43.453 -18.483   2.927  1.00  0.00     0.037 A 
HETATM   33  C   UNL     1      43.718 -19.862   2.831  1.00  0.00    -0.060 A 
HETATM   34  C   UNL     1      43.571 -20.580   1.521  1.00  0.00     0.048 C 
HETATM   35  C   UNL     1      44.076 -20.565   3.980  1.00  0.00     0.007 A 
HETATM   36  C   UNL     1      44.179 -19.898   5.196  1.00  0.00     0.003 A 
HETATM   37  C   UNL     1      43.924 -18.522   5.274  1.00  0.00     0.030 A 
ENDBRANCH   5  31
TORSDOF 9
ENDMDL
MODEL 5
REMARK VINA RESULT:      -7.4      3.418      5.675
REMARK  9 active torsions:
REMARK  status: ('A' for Active; 'I' for Inactive)
REMARK    1  A    between atoms: C_2  and  O_3 
REMARK    2  A    between atoms: O_3  and  C_4 
REMARK    3  A    between atoms: C_4  and  C_5 
REMARK    4  A    between atoms: C_8  and  N_9 
REMARK       I    between atoms: N_9  and  C_10 
REMARK    5  A    between atoms: C_10  and  C_11 
REMARK    6  A    between atoms: C_11  and  C_12 
REMARK    7  A    between atoms: N_13  and  C_14 
REMARK    8  A    between atoms: C_14  and  C_15 
REMARK    9  A    between atoms: N_23  and  C_24 
ROOT
HETATM    1  C   UNL     1      42.610 -11.930   4.425  1.00  0.00     0.191 C 
HETATM    2  N   UNL     1      43.050 -12.465   5.700  1.00  0.00    -0.315 N 
HETATM    3  C   UNL     1      43.242 -13.842   5.641  1.00  0.00     0.333 C 
HETATM    4  O   UNL     1      43.410 -14.520   6.644  1.00  0.00    -0.246 OA
HETATM    5  N   UNL     1      43.161 -14.243   4.323  1.00  0.00    -0.232 N 
HETATM    6  C   UNL     1      42.868 -13.148   3.535  1.00  0.00     0.256 C 
HETATM    7  O   UNL     1      42.755 -13.083   2.315  1.00  0.00    -0.270 OA
ENDROOT
BRANCH   1   8
HETATM    8  C   UNL     1      41.125 -11.602   4.306  1.00  0.00     0.138 C 
BRANCH   8   9
HETATM    9  C   UNL     1      40.242 -12.773   4.616  1.00  0.00     0.224 C 
HETATM   10  N   UNL     1      39.623 -13.539   3.686  1.00  0.00    -0.327 N 
HETATM   11  H   UNL     1      38.995 -14.180   4.160  1.00  0.00     0.169 HD
HETATM   12  O   UNL     1      40.014 -13.052   5.801  1.00  0.00    -0.273 OA
BRANCH  10  13
HETATM   13  C   UNL     1      39.713 -13.729   2.298  1.00  0.00     0.034 A 
HETATM   14  C   UNL     1      40.014 -14.920   1.642  1.00  0.00     0.030 A 
HETATM   15  C   UNL     1      39.934 -14.997   0.239  1.00  0.00     0.020 A 
HETATM   16  C   UNL     1      39.554 -13.886  -0.523  1.00  0.00     0.039 A 
HETATM   17  C   UNL     1      39.308 -12.676   0.125  1.00  0.00     0.020 A 
HETATM   18  C   UNL     1      39.389 -12.604   1.520  1.00  0.00     0.030 A 
BRANCH  16  19
HETATM   19  C   UNL     1      39.373 -14.048  -1.994  1.00  0.00     0.293 C 
HETATM   20  O   UNL     1      39.085 -15.107  -2.528  1.00  0.00    -0.259 OA
BRANCH  19  21
HETATM   21  O   UNL     1      39.499 -12.845  -2.611  1.00  0.00    -0.318 OA
BRANCH  21  22
HETATM   22  C   UNL     1      40.817 -12.498  -3.062  1.00  0.00     0.174 C 
HETATM   23  C   UNL     1      40.914 -11.010  -3.332  1.00  0.00     0.034 C 
ENDBRANCH  21  22
ENDBRANCH  19  21
ENDBRANCH  16  19
ENDBRANCH  10  13
ENDBRANCH   8   9
ENDBRANCH   1   8
BRANCH   2  24
HETATM   24  C   UNL     1      42.927 -11.785   6.983  1.00  0.00     0.168 C 
BRANCH  24  25
HETATM   25  C   UNL     1      44.081 -10.898   7.355  1.00  0.00    -0.023 A 
HETATM   26  C   UNL     1      45.402 -11.300   7.196  1.00  0.00     0.125 A 
HETATM   27  N   UNL     1      46.472 -10.551   7.547  1.00  0.00    -0.273 NA
HETATM   28  C   UNL     1      46.218  -9.356   8.120  1.00  0.00     0.116 A 
HETATM   29  C   UNL     1      44.943  -8.873   8.353  1.00  0.00     0.020 A 
HETATM   30  C   UNL     1      43.862  -9.659   7.969  1.00  0.00     0.012 A 
ENDBRANCH  24  25
ENDBRANCH   2  24
BRANCH   5  31
HETATM   31  C   UNL     1      43.301 -15.592   3.870  1.00  0.00     0.047 A 
HETATM   32  C   UNL     1      43.562 -16.646   4.767  1.00  0.00     0.037 A 
HETATM   33  C   UNL     1      43.650 -17.986   4.347  1.00  0.00    -0.060 A 
HETATM   34  C   UNL     1      43.947 -19.079   5.333  1.00  0.00     0.048 C 
HETATM   35  C   UNL     1      43.501 -18.285   2.994  1.00  0.00     0.007 A 
HETATM   36  C   UNL     1      43.257 -17.262   2.083  1.00  0.00     0.003 A 
HETATM   37  C   UNL     1      43.161 -15.933   2.517  1.00  0.00     0.030 A 
ENDBRANCH   5  31
TORSDOF 9
ENDMDL
MODEL 6
REMARK VINA RESULT:      -7.4      3.231      8.787
REMARK  9 active torsions:
REMARK  status: ('A' for Active; 'I' for Inactive)
REMARK    1  A    between atoms: C_2  and  O_3 
REMARK    2  A    between atoms: O_3  and  C_4 
REMARK    3  A    between atoms: C_4  and  C_5 
REMARK    4  A    between atoms: C_8  and  N_9 
REMARK       I    between atoms: N_9  and  C_10 
REMARK    5  A    between atoms: C_10  and  C_11 
REMARK    6  A    between atoms: C_11  and  C_12 
REMARK    7  A    between atoms: N_13  and  C_14 
REMARK    8  A    between atoms: C_14  and  C_15 
REMARK    9  A    between atoms: N_23  and  C_24 
ROOT
HETATM    1  C   UNL     1      41.356 -12.003   3.991  1.00  0.00     0.191 C 
HETATM    2  N   UNL     1      42.298 -12.323   5.047  1.00  0.00    -0.315 N 
HETATM    3  C   UNL     1      42.316 -11.342   6.034  1.00  0.00     0.333 C 
HETATM    4  O   UNL     1      43.176 -11.308   6.902  1.00  0.00    -0.246 OA
HETATM    5  N   UNL     1      41.271 -10.470   5.809  1.00  0.00    -0.232 N 
HETATM    6  C   UNL     1      40.608 -10.847   4.658  1.00  0.00     0.256 C 
HETATM    7  O   UNL     1      39.608 -10.353   4.146  1.00  0.00    -0.270 OA
ENDROOT
BRANCH   1   8
HETATM    8  C   UNL     1      41.953 -11.456   2.697  1.00  0.00     0.138 C 
BRANCH   8   9
HETATM    9  C   UNL     1      41.276 -11.991   1.470  1.00  0.00     0.224 C 
HETATM   10  N   UNL     1      41.317 -13.283   1.069  1.00  0.00    -0.327 N 
HETATM   11  H   UNL     1      40.884 -13.352   0.153  1.00  0.00     0.169 HD
HETATM   12  O   UNL     1      40.665 -11.203   0.735  1.00  0.00    -0.273 OA
BRANCH  10  13
HETATM   13  C   UNL     1      41.695 -14.514   1.629  1.00  0.00     0.034 A 
HETATM   14  C   UNL     1      40.843 -15.494   2.130  1.00  0.00     0.030 A 
HETATM   15  C   UNL     1      41.356 -16.740   2.537  1.00  0.00     0.020 A 
HETATM   16  C   UNL     1      42.725 -17.019   2.448  1.00  0.00     0.039 A 
HETATM   17  C   UNL     1      43.589 -16.020   2.001  1.00  0.00     0.020 A 
HETATM   18  C   UNL     1      43.075 -14.783   1.598  1.00  0.00     0.030 A 
BRANCH  16  19
HETATM   19  C   UNL     1      43.205 -18.390   2.783  1.00  0.00     0.293 C 
HETATM   20  O   UNL     1      43.224 -19.315   1.985  1.00  0.00    -0.259 OA
BRANCH  19  21
HETATM   21  O   UNL     1      43.676 -18.418   4.055  1.00  0.00    -0.318 OA
BRANCH  21  22
HETATM   22  C   UNL     1      44.364 -19.613   4.451  1.00  0.00     0.174 C 
HETATM   23  C   UNL     1      43.778 -20.167   5.734  1.00  0.00     0.034 C 
ENDBRANCH  21  22
ENDBRANCH  19  21
ENDBRANCH  16  19
ENDBRANCH  10  13
ENDBRANCH   8   9
ENDBRANCH   1   8
BRANCH   2  24
HETATM   24  C   UNL     1      43.381 -13.293   4.941  1.00  0.00     0.168 C 
BRANCH  24  25
HETATM   25  C   UNL     1      43.142 -14.603   5.635  1.00  0.00    -0.023 A 
HETATM   26  C   UNL     1      41.872 -15.152   5.759  1.00  0.00     0.125 A 
HETATM   27  N   UNL     1      41.604 -16.311   6.404  1.00  0.00    -0.273 NA
HETATM   28  C   UNL     1      42.645 -16.938   6.988  1.00  0.00     0.116 A 
HETATM   29  C   UNL     1      43.945 -16.464   6.952  1.00  0.00     0.020 A 
HETATM   30  C   UNL     1      44.192 -15.277   6.270  1.00  0.00     0.012 A 
ENDBRANCH  24  25
ENDBRANCH   2  24
BRANCH   5  31
HETATM   31  C   UNL     1      40.973  -9.327   6.616  1.00  0.00     0.047 A 
HETATM   32  C   UNL     1      40.108  -9.415   7.724  1.00  0.00     0.037 A 
HETATM   33  C   UNL     1      39.846  -8.315   8.561  1.00  0.00    -0.060 A 
HETATM   34  C   UNL     1      38.904  -8.445   9.722  1.00  0.00     0.048 C 
HETATM   35  C   UNL     1      40.438  -7.086   8.274  1.00  0.00     0.007 A 
HETATM   36  C   UNL     1      41.286  -6.967   7.176  1.00  0.00     0.003 A 
HETATM   37  C   UNL     1      41.547  -8.074   6.358  1.00  0.00     0.030 A 
ENDBRANCH   5  31
TORSDOF 9
ENDMDL
MODEL 7
REMARK VINA RESULT:      -7.4      4.014      6.754
REMARK  9 active torsions:
REMARK  status: ('A' for Active; 'I' for Inactive)
REMARK    1  A    between atoms: C_2  and  O_3 
REMARK    2  A    between atoms: O_3  and  C_4 
REMARK    3  A    between atoms: C_4  and  C_5 
REMARK    4  A    between atoms: C_8  and  N_9 
REMARK       I    between atoms: N_9  and  C_10 
REMARK    5  A    between atoms: C_10  and  C_11 
REMARK    6  A    between atoms: C_11  and  C_12 
REMARK    7  A    between atoms: N_13  and  C_14 
REMARK    8  A    between atoms: C_14  and  C_15 
REMARK    9  A    between atoms: N_23  and  C_24 
ROOT
HETATM    1  C   UNL     1      42.660 -13.035   5.460  1.00  0.00     0.191 C 
HETATM    2  N   UNL     1      41.959 -11.783   5.247  1.00  0.00    -0.315 N 
HETATM    3  C   UNL     1      42.344 -10.815   6.169  1.00  0.00     0.333 C 
HETATM    4  O   UNL     1      41.735  -9.763   6.302  1.00  0.00    -0.246 OA
HETATM    5  N   UNL     1      43.437 -11.283   6.870  1.00  0.00    -0.232 N 
HETATM    6  C   UNL     1      43.731 -12.563   6.446  1.00  0.00     0.256 C 
HETATM    7  O   UNL     1      44.648 -13.300   6.794  1.00  0.00    -0.270 OA
ENDROOT
BRANCH   1   8
HETATM    8  C   UNL     1      41.873 -14.141   6.157  1.00  0.00     0.138 C 
BRANCH   8   9
HETATM    9  C   UNL     1      42.391 -15.513   5.843  1.00  0.00     0.224 C 
HETATM   10  N   UNL     1      42.111 -16.202   4.711  1.00  0.00    -0.327 N 
HETATM   11  H   UNL     1      42.482 -17.142   4.804  1.00  0.00     0.169 HD
HETATM   12  O   UNL     1      43.091 -16.093   6.684  1.00  0.00    -0.273 OA
BRANCH  10  13
HETATM   13  C   UNL     1      41.555 -15.915   3.455  1.00  0.00     0.034 A 
HETATM   14  C   UNL     1      40.229 -16.098   3.073  1.00  0.00     0.030 A 
HETATM   15  C   UNL     1      39.780 -15.636   1.821  1.00  0.00     0.020 A 
HETATM   16  C   UNL     1      40.652 -14.988   0.938  1.00  0.00     0.039 A 
HETATM   17  C   UNL     1      41.994 -14.854   1.292  1.00  0.00     0.020 A 
HETATM   18  C   UNL     1      42.435 -15.315   2.537  1.00  0.00     0.030 A 
BRANCH  16  19
HETATM   19  C   UNL     1      40.105 -14.417  -0.326  1.00  0.00     0.293 C 
HETATM   20  O   UNL     1      39.342 -15.018  -1.066  1.00  0.00    -0.259 OA
BRANCH  19  21
HETATM   21  O   UNL     1      40.517 -13.132  -0.470  1.00  0.00    -0.318 OA
BRANCH  21  22
HETATM   22  C   UNL     1      39.505 -12.176  -0.818  1.00  0.00     0.174 C 
HETATM   23  C   UNL     1      38.590 -11.914   0.362  1.00  0.00     0.034 C 
ENDBRANCH  21  22
ENDBRANCH  19  21
ENDBRANCH  16  19
ENDBRANCH  10  13
ENDBRANCH   8   9
ENDBRANCH   1   8
BRANCH   2  24
HETATM   24  C   UNL     1      40.733 -11.629   4.473  1.00  0.00     0.168 C 
BRANCH  24  25
HETATM   25  C   UNL     1      40.868 -10.831   3.207  1.00  0.00    -0.023 A 
HETATM   26  C   UNL     1      41.830 -11.125   2.248  1.00  0.00     0.125 A 
HETATM   27  N   UNL     1      42.011 -10.416   1.110  1.00  0.00    -0.273 NA
HETATM   28  C   UNL     1      41.222  -9.337   0.933  1.00  0.00     0.116 A 
HETATM   29  C   UNL     1      40.255  -8.936   1.838  1.00  0.00     0.020 A 
HETATM   30  C   UNL     1      40.082  -9.693   2.992  1.00  0.00     0.012 A 
ENDBRANCH  24  25
ENDBRANCH   2  24
BRANCH   5  31
HETATM   31  C   UNL     1      44.109 -10.565   7.909  1.00  0.00     0.047 A 
HETATM   32  C   UNL     1      43.559 -10.454   9.201  1.00  0.00     0.037 A 
HETATM   33  C   UNL     1      44.231  -9.798  10.249  1.00  0.00    -0.060 A 
HETATM   34  C   UNL     1      43.602  -9.686  11.608  1.00  0.00     0.048 C 
HETATM   35  C   UNL     1      45.471  -9.213  10.000  1.00  0.00     0.007 A 
HETATM   36  C   UNL     1      46.031  -9.294   8.729  1.00  0.00     0.003 A 
HETATM   37  C   UNL     1      45.357  -9.960   7.698  1.00  0.00     0.030 A 
ENDBRANCH   5  31
TORSDOF 9
ENDMDL
MODEL 8
REMARK VINA RESULT:      -7.2      5.188      9.001
REMARK  9 active torsions:
REMARK  status: ('A' for Active; 'I' for Inactive)
REMARK    1  A    between atoms: C_2  and  O_3 
REMARK    2  A    between atoms: O_3  and  C_4 
REMARK    3  A    between atoms: C_4  and  C_5 
REMARK    4  A    between atoms: C_8  and  N_9 
REMARK       I    between atoms: N_9  and  C_10 
REMARK    5  A    between atoms: C_10  and  C_11 
REMARK    6  A    between atoms: C_11  and  C_12 
REMARK    7  A    between atoms: N_13  and  C_14 
REMARK    8  A    between atoms: C_14  and  C_15 
REMARK    9  A    between atoms: N_23  and  C_24 
ROOT
HETATM    1  C   UNL     1      43.439 -13.011   5.439  1.00  0.00     0.191 C 
HETATM    2  N   UNL     1      42.721 -14.272   5.438  1.00  0.00    -0.315 N 
HETATM    3  C   UNL     1      41.597 -14.222   4.619  1.00  0.00     0.333 C 
HETATM    4  O   UNL     1      40.743 -15.097   4.632  1.00  0.00    -0.246 OA
HETATM    5  N   UNL     1      41.632 -13.051   3.890  1.00  0.00    -0.232 N 
HETATM    6  C   UNL     1      42.741 -12.319   4.265  1.00  0.00     0.256 C 
HETATM    7  O   UNL     1      43.144 -11.248   3.824  1.00  0.00    -0.270 OA
ENDROOT
BRANCH   1   8
HETATM    8  C   UNL     1      43.237 -12.120   6.660  1.00  0.00     0.138 C 
BRANCH   8   9
HETATM    9  C   UNL     1      44.512 -11.497   7.146  1.00  0.00     0.224 C 
HETATM   10  N   UNL     1      44.599 -10.624   8.177  1.00  0.00    -0.327 N 
HETATM   11  H   UNL     1      45.548 -10.265   8.219  1.00  0.00     0.169 HD
HETATM   12  O   UNL     1      45.567 -11.754   6.550  1.00  0.00    -0.273 OA
BRANCH  10  13
HETATM   13  C   UNL     1      43.766 -10.194   9.222  1.00  0.00     0.034 A 
HETATM   14  C   UNL     1      42.586  -9.467   9.096  1.00  0.00     0.030 A 
HETATM   15  C   UNL     1      41.779  -9.223  10.223  1.00  0.00     0.020 A 
HETATM   16  C   UNL     1      42.143  -9.702  11.488  1.00  0.00     0.039 A 
HETATM   17  C   UNL     1      43.353 -10.381  11.628  1.00  0.00     0.020 A 
HETATM   18  C   UNL     1      44.152 -10.621  10.505  1.00  0.00     0.030 A 
BRANCH  16  19
HETATM   19  C   UNL     1      41.201  -9.517  12.628  1.00  0.00     0.293 C 
HETATM   20  O   UNL     1      40.465 -10.396  13.048  1.00  0.00    -0.259 OA
BRANCH  19  21
HETATM   21  O   UNL     1      41.350  -8.276  13.155  1.00  0.00    -0.318 OA
BRANCH  21  22
HETATM   22  C   UNL     1      42.111  -8.190  14.369  1.00  0.00     0.174 C 
HETATM   23  C   UNL     1      43.217  -7.162  14.235  1.00  0.00     0.034 C 
ENDBRANCH  21  22
ENDBRANCH  19  21
ENDBRANCH  16  19
ENDBRANCH  10  13
ENDBRANCH   8   9
ENDBRANCH   1   8
BRANCH   2  24
HETATM   24  C   UNL     1      42.869 -15.323   6.436  1.00  0.00     0.168 C 
BRANCH  24  25
HETATM   25  C   UNL     1      43.260 -16.670   5.899  1.00  0.00    -0.023 A 
HETATM   26  C   UNL     1      43.116 -17.833   6.646  1.00  0.00     0.125 A 
HETATM   27  N   UNL     1      43.484 -19.062   6.218  1.00  0.00    -0.273 NA
HETATM   28  C   UNL     1      44.060 -19.136   5.000  1.00  0.00     0.116 A 
HETATM   29  C   UNL     1      44.280 -18.038   4.187  1.00  0.00     0.020 A 
HETATM   30  C   UNL     1      43.877 -16.789   4.648  1.00  0.00     0.012 A 
ENDBRANCH  24  25
ENDBRANCH   2  24
BRANCH   5  31
HETATM   31  C   UNL     1      40.639 -12.649   2.943  1.00  0.00     0.047 A 
HETATM   32  C   UNL     1      40.623 -13.158   1.630  1.00  0.00     0.037 A 
HETATM   33  C   UNL     1      39.623 -12.815   0.703  1.00  0.00    -0.060 A 
HETATM   34  C   UNL     1      39.652 -13.367  -0.693  1.00  0.00     0.048 C 
HETATM   35  C   UNL     1      38.624 -11.920   1.081  1.00  0.00     0.007 A 
HETATM   36  C   UNL     1      38.623 -11.388   2.367  1.00  0.00     0.003 A 
HETATM   37  C   UNL     1      39.619 -11.748   3.284  1.00  0.00     0.030 A 
ENDBRANCH   5  31
TORSDOF 9
ENDMDL
MODEL 9
REMARK VINA RESULT:      -7.2      2.071      4.810
REMARK  9 active torsions:
REMARK  status: ('A' for Active; 'I' for Inactive)
REMARK    1  A    between atoms: C_2  and  O_3 
REMARK    2  A    between atoms: O_3  and  C_4 
REMARK    3  A    between atoms: C_4  and  C_5 
REMARK    4  A    between atoms: C_8  and  N_9 
REMARK       I    between atoms: N_9  and  C_10 
REMARK    5  A    between atoms: C_10  and  C_11 
REMARK    6  A    between atoms: C_11  and  C_12 
REMARK    7  A    between atoms: N_13  and  C_14 
REMARK    8  A    between atoms: C_14  and  C_15 
REMARK    9  A    between atoms: N_23  and  C_24 
ROOT
HETATM    1  C   UNL     1      41.117 -14.143   1.879  1.00  0.00     0.191 C 
HETATM    2  N   UNL     1      40.731 -14.170   3.277  1.00  0.00    -0.315 N 
HETATM    3  C   UNL     1      41.223 -15.300   3.924  1.00  0.00     0.333 C 
HETATM    4  O   UNL     1      40.849 -15.626   5.041  1.00  0.00    -0.246 OA
HETATM    5  N   UNL     1      42.111 -15.939   3.083  1.00  0.00    -0.232 N 
HETATM    6  C   UNL     1      42.160 -15.264   1.880  1.00  0.00     0.256 C 
HETATM    7  O   UNL     1      42.854 -15.492   0.895  1.00  0.00    -0.270 OA
ENDROOT
BRANCH   1   8
HETATM    8  C   UNL     1      40.041 -14.542   0.873  1.00  0.00     0.138 C 
BRANCH   8   9
HETATM    9  C   UNL     1      40.012 -13.653  -0.334  1.00  0.00     0.224 C 
HETATM   10  N   UNL     1      39.607 -12.360  -0.330  1.00  0.00    -0.327 N 
HETATM   11  H   UNL     1      39.569 -12.029  -1.289  1.00  0.00     0.169 HD
HETATM   12  O   UNL     1      40.339 -14.125  -1.432  1.00  0.00    -0.273 OA
BRANCH  10  13
HETATM   13  C   UNL     1      39.342 -11.378   0.637  1.00  0.00     0.034 A 
HETATM   14  C   UNL     1      38.155 -11.210   1.345  1.00  0.00     0.030 A 
HETATM   15  C   UNL     1      38.077 -10.267   2.387  1.00  0.00     0.020 A 
HETATM   16  C   UNL     1      39.184  -9.481   2.732  1.00  0.00     0.039 A 
HETATM   17  C   UNL     1      40.357  -9.606   1.988  1.00  0.00     0.020 A 
HETATM   18  C   UNL     1      40.429 -10.545   0.953  1.00  0.00     0.030 A 
BRANCH  16  19
HETATM   19  C   UNL     1      39.087  -8.579   3.914  1.00  0.00     0.293 C 
HETATM   20  O   UNL     1      39.956  -7.782   4.230  1.00  0.00    -0.259 OA
BRANCH  19  21
HETATM   21  O   UNL     1      37.878  -8.728   4.513  1.00  0.00    -0.318 OA
BRANCH  21  22
HETATM   22  C   UNL     1      37.131  -7.525   4.742  1.00  0.00     0.174 C 
HETATM   23  C   UNL     1      36.633  -6.947   3.432  1.00  0.00     0.034 C 
ENDBRANCH  21  22
ENDBRANCH  19  21
ENDBRANCH  16  19
ENDBRANCH  10  13
ENDBRANCH   8   9
ENDBRANCH   1   8
BRANCH   2  24
HETATM   24  C   UNL     1      39.654 -13.385   3.866  1.00  0.00     0.168 C 
BRANCH  24  25
HETATM   25  C   UNL     1      40.091 -12.296   4.804  1.00  0.00    -0.023 A 
HETATM   26  C   UNL     1      41.369 -11.753   4.761  1.00  0.00     0.125 A 
HETATM   27  N   UNL     1      41.818 -10.796   5.605  1.00  0.00    -0.273 NA
HETATM   28  C   UNL     1      40.966 -10.384   6.567  1.00  0.00     0.116 A 
HETATM   29  C   UNL     1      39.684 -10.880   6.720  1.00  0.00     0.020 A 
HETATM   30  C   UNL     1      39.246 -11.853   5.828  1.00  0.00     0.012 A 
ENDBRANCH  24  25
ENDBRANCH   2  24
BRANCH   5  31
HETATM   31  C   UNL     1      42.814 -17.144   3.401  1.00  0.00     0.047 A 
HETATM   32  C   UNL     1      42.877 -18.220   2.496  1.00  0.00     0.037 A 
HETATM   33  C   UNL     1      43.610 -19.390   2.770  1.00  0.00    -0.060 A 
HETATM   34  C   UNL     1      43.637 -20.523   1.786  1.00  0.00     0.048 C 
HETATM   35  C   UNL     1      44.276 -19.505   3.989  1.00  0.00     0.007 A 
HETATM   36  C   UNL     1      44.218 -18.462   4.909  1.00  0.00     0.003 A 
HETATM   37  C   UNL     1      43.495 -17.299   4.618  1.00  0.00     0.030 A 
ENDBRANCH   5  31
TORSDOF 9
ENDMDL
MODEL 10
REMARK VINA RESULT:      -7.2      5.591      9.422
REMARK  9 active torsions:
REMARK  status: ('A' for Active; 'I' for Inactive)
REMARK    1  A    between atoms: C_2  and  O_3 
REMARK    2  A    between atoms: O_3  and  C_4 
REMARK    3  A    between atoms: C_4  and  C_5 
REMARK    4  A    between atoms: C_8  and  N_9 
REMARK       I    between atoms: N_9  and  C_10 
REMARK    5  A    between atoms: C_10  and  C_11 
REMARK    6  A    between atoms: C_11  and  C_12 
REMARK    7  A    between atoms: N_13  and  C_14 
REMARK    8  A    between atoms: C_14  and  C_15 
REMARK    9  A    between atoms: N_23  and  C_24 
ROOT
HETATM    1  C   UNL     1      43.611 -12.781   5.635  1.00  0.00     0.191 C 
HETATM    2  N   UNL     1      42.539 -13.756   5.707  1.00  0.00    -0.315 N 
HETATM    3  C   UNL     1      41.289 -13.144   5.743  1.00  0.00     0.333 C 
HETATM    4  O   UNL     1      40.269 -13.762   6.010  1.00  0.00    -0.246 OA
HETATM    5  N   UNL     1      41.449 -11.799   5.482  1.00  0.00    -0.232 N 
HETATM    6  C   UNL     1      42.793 -11.525   5.327  1.00  0.00     0.256 C 
HETATM    7  O   UNL     1      43.336 -10.461   5.048  1.00  0.00    -0.270 OA
ENDROOT
BRANCH   1   8
HETATM    8  C   UNL     1      44.365 -12.510   6.933  1.00  0.00     0.138 C 
BRANCH   8   9
HETATM    9  C   UNL     1      45.399 -11.433   6.794  1.00  0.00     0.224 C 
HETATM   10  N   UNL     1      45.401 -10.272   7.492  1.00  0.00    -0.327 N 
HETATM   11  H   UNL     1      46.133  -9.673   7.122  1.00  0.00     0.169 HD
HETATM   12  O   UNL     1      46.301 -11.576   5.957  1.00  0.00    -0.273 OA
BRANCH  10  13
HETATM   13  C   UNL     1      44.742  -9.760   8.620  1.00  0.00     0.034 A 
HETATM   14  C   UNL     1      45.049 -10.026   9.952  1.00  0.00     0.030 A 
HETATM   15  C   UNL     1      44.390  -9.332  10.984  1.00  0.00     0.020 A 
HETATM   16  C   UNL     1      43.418  -8.366  10.697  1.00  0.00     0.039 A 
HETATM   17  C   UNL     1      43.067  -8.138   9.367  1.00  0.00     0.020 A 
HETATM   18  C   UNL     1      43.724  -8.830   8.344  1.00  0.00     0.030 A 
BRANCH  16  19
HETATM   19  C   UNL     1      42.831  -7.579  11.818  1.00  0.00     0.293 C 
HETATM   20  O   UNL     1      41.959  -6.737  11.671  1.00  0.00    -0.259 OA
BRANCH  19  21
HETATM   21  O   UNL     1      43.351  -7.997  13.000  1.00  0.00    -0.318 OA
BRANCH  21  22
HETATM   22  C   UNL     1      42.742  -7.464  14.185  1.00  0.00     0.174 C 
HETATM   23  C   UNL     1      41.803  -8.480  14.806  1.00  0.00     0.034 C 
ENDBRANCH  21  22
ENDBRANCH  19  21
ENDBRANCH  16  19
ENDBRANCH  10  13
ENDBRANCH   8   9
ENDBRANCH   1   8
BRANCH   2  24
HETATM   24  C   UNL     1      42.697 -15.150   6.101  1.00  0.00     0.168 C 
BRANCH  24  25
HETATM   25  C   UNL     1      42.960 -16.111   4.977  1.00  0.00    -0.023 A 
HETATM   26  C   UNL     1      43.672 -17.290   5.164  1.00  0.00     0.125 A 
HETATM   27  N   UNL     1      43.962 -18.168   4.177  1.00  0.00    -0.273 NA
HETATM   28  C   UNL     1      43.557 -17.841   2.932  1.00  0.00     0.116 A 
HETATM   29  C   UNL     1      42.870 -16.679   2.629  1.00  0.00     0.020 A 
HETATM   30  C   UNL     1      42.574 -15.802   3.668  1.00  0.00     0.012 A 
ENDBRANCH  24  25
ENDBRANCH   2  24
BRANCH   5  31
HETATM   31  C   UNL     1      40.385 -10.844   5.440  1.00  0.00     0.047 A 
HETATM   32  C   UNL     1      40.251  -9.848   6.427  1.00  0.00     0.037 A 
HETATM   33  C   UNL     1      39.243  -8.867   6.373  1.00  0.00    -0.060 A 
HETATM   34  C   UNL     1      39.124  -7.833   7.454  1.00  0.00     0.048 C 
HETATM   35  C   UNL     1      38.326  -8.893   5.324  1.00  0.00     0.007 A 
HETATM   36  C   UNL     1      38.425  -9.875   4.343  1.00  0.00     0.003 A 
HETATM   37  C   UNL     1      39.440 -10.838   4.403  1.00  0.00     0.030 A 
ENDBRANCH   5  31
TORSDOF 9
ENDMDL
