MODEL 1
REMARK VINA RESULT:      -8.4      0.000      0.000
REMARK  6 active torsions:
REMARK  status: ('A' for Active; 'I' for Inactive)
REMARK       I    between atoms: C_2  and  N_3 
REMARK    1  A    between atoms: N_3  and  C_4 
REMARK    2  A    between atoms: C_4  and  C_5 
REMARK    3  A    between atoms: C_4  and  C_11 
REMARK    4  A    between atoms: C_11  and  C_12 
REMARK       I    between atoms: C_12  and  N_13 
REMARK    5  A    between atoms: N_13  and  C_14 
REMARK    6  A    between atoms: C_16  and  C_17 
ROOT
HETATM    1  C   UNL     1      40.493 -14.358   4.689  1.00  0.00     0.224 C 
HETATM    2  N   UNL     1      40.026 -14.610   3.423  1.00  0.00    -0.327 N 
HETATM    3  O   UNL     1      40.599 -13.245   5.207  1.00  0.00    -0.273 OA
HETATM    4  H   UNL     1      39.872 -15.590   3.172  1.00  0.00     0.169 HD
ENDROOT
BRANCH   1   5
HETATM    5  C   UNL     1      40.975 -15.579   5.455  1.00  0.00     0.133 C 
BRANCH   5   6
HETATM    6  C   UNL     1      42.488 -15.854   5.563  1.00  0.00     0.126 C 
BRANCH   6   7
HETATM    7  N   UNL     1      43.281 -14.622   5.659  1.00  0.00    -0.352 N 
HETATM    8  C   UNL     1      43.643 -14.003   6.828  1.00  0.00     0.214 C 
HETATM    9  C   UNL     1      44.536 -12.805   6.660  1.00  0.00     0.117 C 
HETATM   10  O   UNL     1      43.275 -14.385   7.933  1.00  0.00    -0.274 OA
HETATM   11  H   UNL     1      43.562 -14.198   4.784  1.00  0.00     0.163 HD
ENDBRANCH   6   7
BRANCH   6  12
HETATM   12  C   UNL     1      43.080 -16.942   4.679  1.00  0.00    -0.035 A 
HETATM   13  C   UNL     1      43.900 -17.967   5.175  1.00  0.00     0.009 A 
HETATM   14  C   UNL     1      44.398 -18.968   4.335  1.00  0.00     0.001 A 
HETATM   15  C   UNL     1      44.078 -18.966   2.981  1.00  0.00     0.000 A 
HETATM   16  C   UNL     1      43.259 -17.967   2.467  1.00  0.00     0.001 A 
HETATM   17  C   UNL     1      42.759 -16.969   3.308  1.00  0.00     0.009 A 
ENDBRANCH   6  12
ENDBRANCH   5   6
ENDBRANCH   1   5
BRANCH   2  18
HETATM   18  C   UNL     1      39.706 -13.675   2.419  1.00  0.00     0.035 A 
HETATM   19  C   UNL     1      40.259 -13.697   1.135  1.00  0.00     0.042 A 
HETATM   20  C   UNL     1      39.836 -12.786   0.152  1.00  0.00    -0.021 A 
HETATM   21  C   UNL     1      38.874 -11.825   0.489  1.00  0.00     0.012 A 
HETATM   22  C   UNL     1      38.327 -11.790   1.772  1.00  0.00     0.003 A 
HETATM   23  C   UNL     1      38.730 -12.722   2.726  1.00  0.00     0.029 A 
BRANCH  20  24
HETATM   24  C   UNL     1      40.341 -12.862  -1.212  1.00  0.00     0.010 A 
HETATM   25  C   UNL     1      40.105 -13.815  -2.232  1.00  0.00     0.152 A 
HETATM   26  N   UNL     1      40.771 -13.548  -3.358  1.00  0.00    -0.187 NA
HETATM   27  N   UNL     1      41.443 -12.424  -3.063  1.00  0.00    -0.289 N 
HETATM   28  H   UNL     1      42.042 -12.018  -3.774  1.00  0.00     0.188 HD
HETATM   29  C   UNL     1      41.216 -11.971  -1.796  1.00  0.00     0.123 A 
ENDBRANCH  20  24
ENDBRANCH   2  18
TORSDOF 6
ENDMDL
MODEL 2
REMARK VINA RESULT:      -8.3      2.043      2.403
REMARK  6 active torsions:
REMARK  status: ('A' for Active; 'I' for Inactive)
REMARK       I    between atoms: C_2  and  N_3 
REMARK    1  A    between atoms: N_3  and  C_4 
REMARK    2  A    between atoms: C_4  and  C_5 
REMARK    3  A    between atoms: C_4  and  C_11 
REMARK    4  A    between atoms: C_11  and  C_12 
REMARK       I    between atoms: C_12  and  N_13 
REMARK    5  A    between atoms: N_13  and  C_14 
REMARK    6  A    between atoms: C_16  and  C_17 
ROOT
HETATM    1  C   UNL     1      41.860 -15.407   2.482  1.00  0.00     0.224 C 
HETATM    2  N   UNL     1      42.003 -14.265   1.733  1.00  0.00    -0.327 N 
HETATM    3  O   UNL     1      40.821 -16.058   2.607  1.00  0.00    -0.273 OA
HETATM    4  H   UNL     1      42.953 -13.902   1.617  1.00  0.00     0.169 HD
ENDROOT
BRANCH   1   5
HETATM    5  C   UNL     1      43.095 -15.825   3.264  1.00  0.00     0.133 C 
BRANCH   5   6
HETATM    6  C   UNL     1      42.958 -16.867   4.391  1.00  0.00     0.126 C 
BRANCH   6   7
HETATM    7  N   UNL     1      43.352 -16.336   5.703  1.00  0.00    -0.352 N 
HETATM    8  C   UNL     1      42.494 -16.069   6.738  1.00  0.00     0.214 C 
HETATM    9  C   UNL     1      43.157 -15.619   8.010  1.00  0.00     0.117 C 
HETATM   10  O   UNL     1      41.276 -16.182   6.650  1.00  0.00    -0.274 OA
HETATM   11  H   UNL     1      44.337 -16.142   5.832  1.00  0.00     0.163 HD
ENDBRANCH   6   7
BRANCH   6  12
HETATM   12  C   UNL     1      43.408 -18.292   4.105  1.00  0.00    -0.035 A 
HETATM   13  C   UNL     1      43.857 -19.167   5.107  1.00  0.00     0.009 A 
HETATM   14  C   UNL     1      44.230 -20.481   4.807  1.00  0.00     0.001 A 
HETATM   15  C   UNL     1      44.153 -20.948   3.499  1.00  0.00     0.000 A 
HETATM   16  C   UNL     1      43.701 -20.103   2.490  1.00  0.00     0.001 A 
HETATM   17  C   UNL     1      43.325 -18.791   2.791  1.00  0.00     0.009 A 
ENDBRANCH   6  12
ENDBRANCH   5   6
ENDBRANCH   1   5
BRANCH   2  18
HETATM   18  C   UNL     1      40.996 -13.533   1.074  1.00  0.00     0.035 A 
HETATM   19  C   UNL     1      40.438 -13.912  -0.150  1.00  0.00     0.042 A 
HETATM   20  C   UNL     1      39.377 -13.184  -0.716  1.00  0.00    -0.021 A 
HETATM   21  C   UNL     1      38.910 -12.043  -0.051  1.00  0.00     0.012 A 
HETATM   22  C   UNL     1      39.470 -11.652   1.165  1.00  0.00     0.003 A 
HETATM   23  C   UNL     1      40.497 -12.404   1.731  1.00  0.00     0.029 A 
BRANCH  20  24
HETATM   24  C   UNL     1      38.731 -13.626  -1.944  1.00  0.00     0.010 A 
HETATM   25  C   UNL     1      39.098 -14.631  -2.871  1.00  0.00     0.152 A 
HETATM   26  N   UNL     1      38.248 -14.730  -3.896  1.00  0.00    -0.187 NA
HETATM   27  N   UNL     1      37.334 -13.782  -3.634  1.00  0.00    -0.289 N 
HETATM   28  H   UNL     1      36.570 -13.654  -4.290  1.00  0.00     0.188 HD
HETATM   29  C   UNL     1      37.574 -13.099  -2.478  1.00  0.00     0.123 A 
ENDBRANCH  20  24
ENDBRANCH   2  18
TORSDOF 6
ENDMDL
MODEL 3
REMARK VINA RESULT:      -8.2      3.754      8.353
REMARK  6 active torsions:
REMARK  status: ('A' for Active; 'I' for Inactive)
REMARK       I    between atoms: C_2  and  N_3 
REMARK    1  A    between atoms: N_3  and  C_4 
REMARK    2  A    between atoms: C_4  and  C_5 
REMARK    3  A    between atoms: C_4  and  C_11 
REMARK    4  A    between atoms: C_11  and  C_12 
REMARK       I    between atoms: C_12  and  N_13 
REMARK    5  A    between atoms: N_13  and  C_14 
REMARK    6  A    between atoms: C_16  and  C_17 
ROOT
HETATM    1  C   UNL     1      43.234 -12.934   6.196  1.00  0.00     0.224 C 
HETATM    2  N   UNL     1      44.359 -12.695   6.944  1.00  0.00    -0.327 N 
HETATM    3  O   UNL     1      42.424 -12.084   5.824  1.00  0.00    -0.273 OA
HETATM    4  H   UNL     1      45.007 -13.476   7.071  1.00  0.00     0.169 HD
ENDROOT
BRANCH   1   5
HETATM    5  C   UNL     1      42.966 -14.398   5.884  1.00  0.00     0.133 C 
BRANCH   5   6
HETATM    6  C   UNL     1      42.621 -14.812   4.440  1.00  0.00     0.126 C 
BRANCH   6   7
HETATM    7  N   UNL     1      41.274 -14.388   4.036  1.00  0.00    -0.352 N 
HETATM    8  C   UNL     1      40.993 -13.501   3.029  1.00  0.00     0.214 C 
HETATM    9  C   UNL     1      39.528 -13.304   2.749  1.00  0.00     0.117 C 
HETATM   10  O   UNL     1      41.857 -12.907   2.394  1.00  0.00    -0.274 OA
HETATM   11  H   UNL     1      40.503 -14.776   4.564  1.00  0.00     0.163 HD
ENDBRANCH   6   7
BRANCH   6  12
HETATM   12  C   UNL     1      43.030 -16.203   3.979  1.00  0.00    -0.035 A 
HETATM   13  C   UNL     1      42.651 -16.739   2.738  1.00  0.00     0.009 A 
HETATM   14  C   UNL     1      43.077 -18.009   2.337  1.00  0.00     0.001 A 
HETATM   15  C   UNL     1      43.896 -18.766   3.168  1.00  0.00     0.000 A 
HETATM   16  C   UNL     1      44.294 -18.252   4.398  1.00  0.00     0.001 A 
HETATM   17  C   UNL     1      43.872 -16.981   4.797  1.00  0.00     0.009 A 
ENDBRANCH   6  12
ENDBRANCH   5   6
ENDBRANCH   1   5
BRANCH   2  18
HETATM   18  C   UNL     1      44.752 -11.484   7.548  1.00  0.00     0.035 A 
HETATM   19  C   UNL     1      44.042 -10.869   8.584  1.00  0.00     0.042 A 
HETATM   20  C   UNL     1      44.530  -9.705   9.202  1.00  0.00    -0.021 A 
HETATM   21  C   UNL     1      45.727  -9.143   8.737  1.00  0.00     0.012 A 
HETATM   22  C   UNL     1      46.434  -9.745   7.696  1.00  0.00     0.003 A 
HETATM   23  C   UNL     1      45.956 -10.919   7.117  1.00  0.00     0.029 A 
BRANCH  20  24
HETATM   24  C   UNL     1      43.844  -9.112  10.341  1.00  0.00     0.010 A 
HETATM   25  C   UNL     1      43.290  -7.821  10.516  1.00  0.00     0.152 A 
HETATM   26  N   UNL     1      42.751  -7.645  11.725  1.00  0.00    -0.187 NA
HETATM   27  N   UNL     1      42.963  -8.822  12.334  1.00  0.00    -0.289 N 
HETATM   28  H   UNL     1      42.642  -8.936  13.290  1.00  0.00     0.188 HD
HETATM   29  C   UNL     1      43.607  -9.733  11.549  1.00  0.00     0.123 A 
ENDBRANCH  20  24
ENDBRANCH   2  18
TORSDOF 6
ENDMDL
MODEL 4
REMARK VINA RESULT:      -8.2      2.147      2.999
REMARK  6 active torsions:
REMARK  status: ('A' for Active; 'I' for Inactive)
REMARK       I    between atoms: C_2  and  N_3 
REMARK    1  A    between atoms: N_3  and  C_4 
REMARK    2  A    between atoms: C_4  and  C_5 
REMARK    3  A    between atoms: C_4  and  C_11 
REMARK    4  A    between atoms: C_11  and  C_12 
REMARK       I    between atoms: C_12  and  N_13 
REMARK    5  A    between atoms: N_13  and  C_14 
REMARK    6  A    between atoms: C_16  and  C_17 
ROOT
HETATM    1  C   UNL     1      39.854 -14.706   1.790  1.00  0.00     0.224 C 
HETATM    2  N   UNL     1      39.949 -15.086   0.475  1.00  0.00    -0.327 N 
HETATM    3  O   UNL     1      39.476 -13.605   2.195  1.00  0.00    -0.273 OA
HETATM    4  H   UNL     1      40.155 -16.070   0.290  1.00  0.00     0.169 HD
ENDROOT
BRANCH   1   5
HETATM    5  C   UNL     1      40.336 -15.738   2.797  1.00  0.00     0.133 C 
BRANCH   5   6
HETATM    6  C   UNL     1      41.720 -15.564   3.453  1.00  0.00     0.126 C 
BRANCH   6   7
HETATM    7  N   UNL     1      42.372 -14.304   3.073  1.00  0.00    -0.352 N 
HETATM    8  C   UNL     1      42.839 -13.359   3.950  1.00  0.00     0.214 C 
HETATM    9  C   UNL     1      43.551 -12.199   3.311  1.00  0.00     0.117 C 
HETATM   10  O   UNL     1      42.695 -13.438   5.165  1.00  0.00    -0.274 OA
HETATM   11  H   UNL     1      42.461 -14.125   2.081  1.00  0.00     0.163 HD
ENDBRANCH   6   7
BRANCH   6  12
HETATM   12  C   UNL     1      42.636 -16.777   3.519  1.00  0.00    -0.035 A 
HETATM   13  C   UNL     1      43.438 -17.068   4.634  1.00  0.00     0.009 A 
HETATM   14  C   UNL     1      44.242 -18.212   4.668  1.00  0.00     0.001 A 
HETATM   15  C   UNL     1      44.254 -19.090   3.590  1.00  0.00     0.000 A 
HETATM   16  C   UNL     1      43.459 -18.829   2.478  1.00  0.00     0.001 A 
HETATM   17  C   UNL     1      42.654 -17.688   2.446  1.00  0.00     0.009 A 
ENDBRANCH   6  12
ENDBRANCH   5   6
ENDBRANCH   1   5
BRANCH   2  18
HETATM   18  C   UNL     1      39.771 -14.284  -0.670  1.00  0.00     0.035 A 
HETATM   19  C   UNL     1      40.282 -12.989  -0.796  1.00  0.00     0.042 A 
HETATM   20  C   UNL     1      40.143 -12.271  -1.996  1.00  0.00    -0.021 A 
HETATM   21  C   UNL     1      39.445 -12.860  -3.059  1.00  0.00     0.012 A 
HETATM   22  C   UNL     1      38.922 -14.147  -2.936  1.00  0.00     0.003 A 
HETATM   23  C   UNL     1      39.100 -14.861  -1.753  1.00  0.00     0.029 A 
BRANCH  20  24
HETATM   24  C   UNL     1      40.752 -10.960  -2.164  1.00  0.00     0.010 A 
HETATM   25  C   UNL     1      41.539 -10.186  -1.277  1.00  0.00     0.152 A 
HETATM   26  N   UNL     1      41.904  -9.010  -1.795  1.00  0.00    -0.187 NA
HETATM   27  N   UNL     1      41.346  -9.022  -3.016  1.00  0.00    -0.289 N 
HETATM   28  H   UNL     1      41.478  -8.213  -3.615  1.00  0.00     0.188 HD
HETATM   29  C   UNL     1      40.652 -10.165  -3.286  1.00  0.00     0.123 A 
ENDBRANCH  20  24
ENDBRANCH   2  18
TORSDOF 6
ENDMDL
MODEL 5
REMARK VINA RESULT:      -8.0      3.887      7.347
REMARK  6 active torsions:
REMARK  status: ('A' for Active; 'I' for Inactive)
REMARK       I    between atoms: C_2  and  N_3 
REMARK    1  A    between atoms: N_3  and  C_4 
REMARK    2  A    between atoms: C_4  and  C_5 
REMARK    3  A    between atoms: C_4  and  C_11 
REMARK    4  A    between atoms: C_11  and  C_12 
REMARK       I    between atoms: C_12  and  N_13 
REMARK    5  A    between atoms: N_13  and  C_14 
REMARK    6  A    between atoms: C_16  and  C_17 
ROOT
HETATM    1  C   UNL     1      42.665 -13.998   6.157  1.00  0.00     0.224 C 
HETATM    2  N   UNL     1      43.617 -14.671   5.433  1.00  0.00    -0.327 N 
HETATM    3  O   UNL     1      41.445 -14.122   6.030  1.00  0.00    -0.273 OA
HETATM    4  H   UNL     1      44.589 -14.563   5.732  1.00  0.00     0.169 HD
ENDROOT
BRANCH   1   5
HETATM    5  C   UNL     1      43.206 -12.969   7.136  1.00  0.00     0.133 C 
BRANCH   5   6
HETATM    6  C   UNL     1      42.876 -11.478   6.925  1.00  0.00     0.126 C 
BRANCH   6   7
HETATM    7  N   UNL     1      42.397 -11.192   5.566  1.00  0.00    -0.352 N 
HETATM    8  C   UNL     1      43.187 -11.114   4.449  1.00  0.00     0.214 C 
HETATM    9  C   UNL     1      42.443 -10.901   3.160  1.00  0.00     0.117 C 
HETATM   10  O   UNL     1      44.409 -11.208   4.480  1.00  0.00    -0.274 OA
HETATM   11  H   UNL     1      41.404 -11.025   5.465  1.00  0.00     0.163 HD
ENDBRANCH   6   7
BRANCH   6  12
HETATM   12  C   UNL     1      43.829 -10.447   7.509  1.00  0.00    -0.035 A 
HETATM   13  C   UNL     1      43.400  -9.207   8.009  1.00  0.00     0.009 A 
HETATM   14  C   UNL     1      44.305  -8.300   8.569  1.00  0.00     0.001 A 
HETATM   15  C   UNL     1      45.656  -8.618   8.646  1.00  0.00     0.000 A 
HETATM   16  C   UNL     1      46.104  -9.844   8.167  1.00  0.00     0.001 A 
HETATM   17  C   UNL     1      45.200 -10.753   7.611  1.00  0.00     0.009 A 
ENDBRANCH   6  12
ENDBRANCH   5   6
ENDBRANCH   1   5
BRANCH   2  18
HETATM   18  C   UNL     1      43.419 -15.523   4.328  1.00  0.00     0.035 A 
HETATM   19  C   UNL     1      43.744 -16.883   4.330  1.00  0.00     0.042 A 
HETATM   20  C   UNL     1      43.445 -17.698   3.225  1.00  0.00    -0.021 A 
HETATM   21  C   UNL     1      42.849 -17.117   2.097  1.00  0.00     0.012 A 
HETATM   22  C   UNL     1      42.534 -15.758   2.084  1.00  0.00     0.003 A 
HETATM   23  C   UNL     1      42.803 -14.970   3.201  1.00  0.00     0.029 A 
BRANCH  20  24
HETATM   24  C   UNL     1      43.695 -19.131   3.257  1.00  0.00     0.010 A 
HETATM   25  C   UNL     1      43.683 -20.095   2.219  1.00  0.00     0.152 A 
HETATM   26  N   UNL     1      43.949 -21.330   2.652  1.00  0.00    -0.187 NA
HETATM   27  N   UNL     1      44.128 -21.165   3.972  1.00  0.00    -0.289 N 
HETATM   28  H   UNL     1      44.339 -21.981   4.536  1.00  0.00     0.188 HD
HETATM   29  C   UNL     1      43.992 -19.871   4.382  1.00  0.00     0.123 A 
ENDBRANCH  20  24
ENDBRANCH   2  18
TORSDOF 6
ENDMDL
MODEL 6
REMARK VINA RESULT:      -7.9      2.684      3.676
REMARK  6 active torsions:
REMARK  status: ('A' for Active; 'I' for Inactive)
REMARK       I    between atoms: C_2  and  N_3 
REMARK    1  A    between atoms: N_3  and  C_4 
REMARK    2  A    between atoms: C_4  and  C_5 
REMARK    3  A    between atoms: C_4  and  C_11 
REMARK    4  A    between atoms: C_11  and  C_12 
REMARK       I    between atoms: C_12  and  N_13 
REMARK    5  A    between atoms: N_13  and  C_14 
REMARK    6  A    between atoms: C_16  and  C_17 
ROOT
HETATM    1  C   UNL     1      40.945 -15.055   0.892  1.00  0.00     0.224 C 
HETATM    2  N   UNL     1      40.889 -14.243  -0.214  1.00  0.00    -0.327 N 
HETATM    3  O   UNL     1      40.021 -15.745   1.324  1.00  0.00    -0.273 OA
HETATM    4  H   UNL     1      41.769 -13.828  -0.529  1.00  0.00     0.169 HD
ENDROOT
BRANCH   1   5
HETATM    5  C   UNL     1      42.257 -15.011   1.659  1.00  0.00     0.133 C 
BRANCH   5   6
HETATM    6  C   UNL     1      42.332 -15.639   3.065  1.00  0.00     0.126 C 
BRANCH   6   7
HETATM    7  N   UNL     1      42.728 -14.671   4.096  1.00  0.00    -0.352 N 
HETATM    8  C   UNL     1      41.863 -13.939   4.868  1.00  0.00     0.214 C 
HETATM    9  C   UNL     1      42.518 -13.085   5.919  1.00  0.00     0.117 C 
HETATM   10  O   UNL     1      40.645 -13.966   4.726  1.00  0.00    -0.274 OA
HETATM   11  H   UNL     1      43.722 -14.531   4.225  1.00  0.00     0.163 HD
ENDBRANCH   6   7
BRANCH   6  12
HETATM   12  C   UNL     1      42.953 -17.021   3.197  1.00  0.00    -0.035 A 
HETATM   13  C   UNL     1      43.706 -17.416   4.314  1.00  0.00     0.009 A 
HETATM   14  C   UNL     1      44.232 -18.708   4.413  1.00  0.00     0.001 A 
HETATM   15  C   UNL     1      44.010 -19.632   3.397  1.00  0.00     0.000 A 
HETATM   16  C   UNL     1      43.259 -19.267   2.285  1.00  0.00     0.001 A 
HETATM   17  C   UNL     1      42.730 -17.978   2.189  1.00  0.00     0.009 A 
ENDBRANCH   6  12
ENDBRANCH   5   6
ENDBRANCH   1   5
BRANCH   2  18
HETATM   18  C   UNL     1      39.760 -13.925  -0.994  1.00  0.00     0.035 A 
HETATM   19  C   UNL     1      38.992 -12.771  -0.811  1.00  0.00     0.042 A 
HETATM   20  C   UNL     1      37.927 -12.468  -1.676  1.00  0.00    -0.021 A 
HETATM   21  C   UNL     1      37.618 -13.365  -2.708  1.00  0.00     0.012 A 
HETATM   22  C   UNL     1      38.372 -14.524  -2.889  1.00  0.00     0.003 A 
HETATM   23  C   UNL     1      39.448 -14.793  -2.045  1.00  0.00     0.029 A 
BRANCH  20  24
HETATM   24  C   UNL     1      37.183 -11.224  -1.548  1.00  0.00     0.010 A 
HETATM   25  C   UNL     1      36.315 -10.568  -2.455  1.00  0.00     0.152 A 
HETATM   26  N   UNL     1      35.829  -9.421  -1.974  1.00  0.00    -0.187 NA
HETATM   27  N   UNL     1      36.389  -9.332  -0.757  1.00  0.00    -0.289 N 
HETATM   28  H   UNL     1      36.174  -8.522  -0.184  1.00  0.00     0.188 HD
HETATM   29  C   UNL     1      37.201 -10.386  -0.453  1.00  0.00     0.123 A 
ENDBRANCH  20  24
ENDBRANCH   2  18
TORSDOF 6
ENDMDL
MODEL 7
REMARK VINA RESULT:      -7.8      2.523      4.954
REMARK  6 active torsions:
REMARK  status: ('A' for Active; 'I' for Inactive)
REMARK       I    between atoms: C_2  and  N_3 
REMARK    1  A    between atoms: N_3  and  C_4 
REMARK    2  A    between atoms: C_4  and  C_5 
REMARK    3  A    between atoms: C_4  and  C_11 
REMARK    4  A    between atoms: C_11  and  C_12 
REMARK       I    between atoms: C_12  and  N_13 
REMARK    5  A    between atoms: N_13  and  C_14 
REMARK    6  A    between atoms: C_16  and  C_17 
ROOT
HETATM    1  C   UNL     1      42.398 -12.709   4.393  1.00  0.00     0.224 C 
HETATM    2  N   UNL     1      42.655 -13.445   3.263  1.00  0.00    -0.327 N 
HETATM    3  O   UNL     1      41.289 -12.534   4.900  1.00  0.00    -0.273 OA
HETATM    4  H   UNL     1      43.637 -13.609   3.029  1.00  0.00     0.169 HD
ENDROOT
BRANCH   1   5
HETATM    5  C   UNL     1      43.606 -12.008   4.994  1.00  0.00     0.133 C 
BRANCH   5   6
HETATM    6  C   UNL     1      44.144 -12.471   6.363  1.00  0.00     0.126 C 
BRANCH   6   7
HETATM    7  N   UNL     1      43.290 -13.487   6.992  1.00  0.00    -0.352 N 
HETATM    8  C   UNL     1      43.494 -14.841   6.928  1.00  0.00     0.214 C 
HETATM    9  C   UNL     1      42.530 -15.666   7.735  1.00  0.00     0.117 C 
HETATM   10  O   UNL     1      44.389 -15.357   6.268  1.00  0.00    -0.274 OA
HETATM   11  H   UNL     1      42.480 -13.146   7.495  1.00  0.00     0.163 HD
ENDBRANCH   6   7
BRANCH   6  12
HETATM   12  C   UNL     1      44.698 -11.414   7.306  1.00  0.00    -0.035 A 
HETATM   13  C   UNL     1      45.913 -10.747   7.076  1.00  0.00     0.009 A 
HETATM   14  C   UNL     1      46.372  -9.757   7.951  1.00  0.00     0.001 A 
HETATM   15  C   UNL     1      45.621  -9.409   9.068  1.00  0.00     0.000 A 
HETATM   16  C   UNL     1      44.409 -10.047   9.311  1.00  0.00     0.001 A 
HETATM   17  C   UNL     1      43.949 -11.034   8.436  1.00  0.00     0.009 A 
ENDBRANCH   6  12
ENDBRANCH   5   6
ENDBRANCH   1   5
BRANCH   2  18
HETATM   18  C   UNL     1      41.722 -14.030   2.385  1.00  0.00     0.035 A 
HETATM   19  C   UNL     1      41.409 -13.509   1.126  1.00  0.00     0.042 A 
HETATM   20  C   UNL     1      40.531 -14.186   0.261  1.00  0.00    -0.021 A 
HETATM   21  C   UNL     1      39.939 -15.378   0.698  1.00  0.00     0.012 A 
HETATM   22  C   UNL     1      40.237 -15.898   1.957  1.00  0.00     0.003 A 
HETATM   23  C   UNL     1      41.137 -15.235   2.788  1.00  0.00     0.029 A 
BRANCH  20  24
HETATM   24  C   UNL     1      40.274 -13.696  -1.085  1.00  0.00     0.010 A 
HETATM   25  C   UNL     1      39.618 -14.307  -2.181  1.00  0.00     0.152 A 
HETATM   26  N   UNL     1      39.596 -13.537  -3.271  1.00  0.00    -0.187 NA
HETATM   27  N   UNL     1      40.244 -12.428  -2.881  1.00  0.00    -0.289 N 
HETATM   28  H   UNL     1      40.366 -11.678  -3.553  1.00  0.00     0.188 HD
HETATM   29  C   UNL     1      40.664 -12.471  -1.584  1.00  0.00     0.123 A 
ENDBRANCH  20  24
ENDBRANCH   2  18
TORSDOF 6
ENDMDL
MODEL 8
REMARK VINA RESULT:      -7.7      3.627      7.020
REMARK  6 active torsions:
REMARK  status: ('A' for Active; 'I' for Inactive)
REMARK       I    between atoms: C_2  and  N_3 
REMARK    1  A    between atoms: N_3  and  C_4 
REMARK    2  A    between atoms: C_4  and  C_5 
REMARK    3  A    between atoms: C_4  and  C_11 
REMARK    4  A    between atoms: C_11  and  C_12 
REMARK       I    between atoms: C_12  and  N_13 
REMARK    5  A    between atoms: N_13  and  C_14 
REMARK    6  A    between atoms: C_16  and  C_17 
ROOT
HETATM    1  C   UNL     1      41.338 -14.335   5.456  1.00  0.00     0.224 C 
HETATM    2  N   UNL     1      42.569 -14.492   4.871  1.00  0.00    -0.327 N 
HETATM    3  O   UNL     1      40.372 -15.086   5.310  1.00  0.00    -0.273 OA
HETATM    4  H   UNL     1      43.315 -13.864   5.182  1.00  0.00     0.169 HD
ENDROOT
BRANCH   1   5
HETATM    5  C   UNL     1      41.175 -13.075   6.291  1.00  0.00     0.133 C 
BRANCH   5   6
HETATM    6  C   UNL     1      41.907 -11.787   5.864  1.00  0.00     0.126 C 
BRANCH   6   7
HETATM    7  N   UNL     1      42.802 -11.272   6.909  1.00  0.00    -0.352 N 
HETATM    8  C   UNL     1      44.067 -11.732   7.164  1.00  0.00     0.214 C 
HETATM    9  C   UNL     1      44.815 -10.975   8.227  1.00  0.00     0.117 C 
HETATM   10  O   UNL     1      44.568 -12.687   6.579  1.00  0.00    -0.274 OA
HETATM   11  H   UNL     1      42.434 -10.530   7.491  1.00  0.00     0.163 HD
ENDBRANCH   6   7
BRANCH   6  12
HETATM   12  C   UNL     1      41.112 -10.731   5.110  1.00  0.00    -0.035 A 
HETATM   13  C   UNL     1      41.697  -9.570   4.579  1.00  0.00     0.009 A 
HETATM   14  C   UNL     1      40.938  -8.640   3.862  1.00  0.00     0.001 A 
HETATM   15  C   UNL     1      39.579  -8.856   3.658  1.00  0.00     0.000 A 
HETATM   16  C   UNL     1      38.979 -10.004   4.165  1.00  0.00     0.001 A 
HETATM   17  C   UNL     1      39.739 -10.935   4.878  1.00  0.00     0.009 A 
ENDBRANCH   6  12
ENDBRANCH   5   6
ENDBRANCH   1   5
BRANCH   2  18
HETATM   18  C   UNL     1      42.948 -15.437   3.898  1.00  0.00     0.035 A 
HETATM   19  C   UNL     1      43.265 -16.767   4.191  1.00  0.00     0.042 A 
HETATM   20  C   UNL     1      43.555 -17.684   3.166  1.00  0.00    -0.021 A 
HETATM   21  C   UNL     1      43.560 -17.234   1.839  1.00  0.00     0.012 A 
HETATM   22  C   UNL     1      43.257 -15.905   1.539  1.00  0.00     0.003 A 
HETATM   23  C   UNL     1      42.937 -15.017   2.564  1.00  0.00     0.029 A 
BRANCH  20  24
HETATM   24  C   UNL     1      43.794 -19.089   3.458  1.00  0.00     0.010 A 
HETATM   25  C   UNL     1      43.664 -20.238   2.640  1.00  0.00     0.152 A 
HETATM   26  N   UNL     1      43.963 -21.371   3.281  1.00  0.00    -0.187 NA
HETATM   27  N   UNL     1      44.280 -20.953   4.517  1.00  0.00    -0.289 N 
HETATM   28  H   UNL     1      44.542 -21.648   5.209  1.00  0.00     0.188 HD
HETATM   29  C   UNL     1      44.200 -19.600   4.672  1.00  0.00     0.123 A 
ENDBRANCH  20  24
ENDBRANCH   2  18
TORSDOF 6
ENDMDL
MODEL 9
REMARK VINA RESULT:      -7.6      2.785      8.956
REMARK  6 active torsions:
REMARK  status: ('A' for Active; 'I' for Inactive)
REMARK       I    between atoms: C_2  and  N_3 
REMARK    1  A    between atoms: N_3  and  C_4 
REMARK    2  A    between atoms: C_4  and  C_5 
REMARK    3  A    between atoms: C_4  and  C_11 
REMARK    4  A    between atoms: C_11  and  C_12 
REMARK       I    between atoms: C_12  and  N_13 
REMARK    5  A    between atoms: N_13  and  C_14 
REMARK    6  A    between atoms: C_16  and  C_17 
ROOT
HETATM    1  C   UNL     1      41.154 -13.831   0.905  1.00  0.00     0.224 C 
HETATM    2  N   UNL     1      42.388 -14.068   1.458  1.00  0.00    -0.327 N 
HETATM    3  O   UNL     1      40.133 -14.485   1.120  1.00  0.00    -0.273 OA
HETATM    4  H   UNL     1      43.115 -13.369   1.289  1.00  0.00     0.169 HD
ENDROOT
BRANCH   1   5
HETATM    5  C   UNL     1      41.109 -12.700  -0.110  1.00  0.00     0.133 C 
BRANCH   5   6
HETATM    6  C   UNL     1      39.761 -12.316  -0.752  1.00  0.00     0.126 C 
BRANCH   6   7
HETATM    7  N   UNL     1      39.062 -13.470  -1.332  1.00  0.00    -0.352 N 
HETATM    8  C   UNL     1      39.486 -14.187  -2.421  1.00  0.00     0.214 C 
HETATM    9  C   UNL     1      38.640 -15.383  -2.761  1.00  0.00     0.117 C 
HETATM   10  O   UNL     1      40.477 -13.890  -3.078  1.00  0.00    -0.274 OA
HETATM   11  H   UNL     1      38.189 -13.735  -0.892  1.00  0.00     0.163 HD
ENDBRANCH   6   7
BRANCH   6  12
HETATM   12  C   UNL     1      39.702 -11.038  -1.577  1.00  0.00    -0.035 A 
HETATM   13  C   UNL     1      40.832 -10.471  -2.188  1.00  0.00     0.009 A 
HETATM   14  C   UNL     1      40.730  -9.314  -2.966  1.00  0.00     0.001 A 
HETATM   15  C   UNL     1      39.494  -8.705  -3.154  1.00  0.00     0.000 A 
HETATM   16  C   UNL     1      38.358  -9.254  -2.568  1.00  0.00     0.001 A 
HETATM   17  C   UNL     1      38.460 -10.413  -1.793  1.00  0.00     0.009 A 
ENDBRANCH   6  12
ENDBRANCH   5   6
ENDBRANCH   1   5
BRANCH   2  18
HETATM   18  C   UNL     1      42.779 -15.157   2.261  1.00  0.00     0.035 A 
HETATM   19  C   UNL     1      42.881 -15.096   3.654  1.00  0.00     0.042 A 
HETATM   20  C   UNL     1      43.195 -16.241   4.407  1.00  0.00    -0.021 A 
HETATM   21  C   UNL     1      43.445 -17.444   3.734  1.00  0.00     0.012 A 
HETATM   22  C   UNL     1      43.356 -17.511   2.343  1.00  0.00     0.003 A 
HETATM   23  C   UNL     1      43.008 -16.376   1.614  1.00  0.00     0.029 A 
BRANCH  20  24
HETATM   24  C   UNL     1      43.213 -16.204   5.862  1.00  0.00     0.010 A 
HETATM   25  C   UNL     1      42.754 -15.217   6.767  1.00  0.00     0.152 A 
HETATM   26  N   UNL     1      42.965 -15.542   8.045  1.00  0.00    -0.187 NA
HETATM   27  N   UNL     1      43.567 -16.739   7.965  1.00  0.00    -0.289 N 
HETATM   28  H   UNL     1      43.840 -17.201   8.826  1.00  0.00     0.188 HD
HETATM   29  C   UNL     1      43.734 -17.180   6.684  1.00  0.00     0.123 A 
ENDBRANCH  20  24
ENDBRANCH   2  18
TORSDOF 6
ENDMDL
MODEL 10
REMARK VINA RESULT:      -7.6      3.413      6.098
REMARK  6 active torsions:
REMARK  status: ('A' for Active; 'I' for Inactive)
REMARK       I    between atoms: C_2  and  N_3 
REMARK    1  A    between atoms: N_3  and  C_4 
REMARK    2  A    between atoms: C_4  and  C_5 
REMARK    3  A    between atoms: C_4  and  C_11 
REMARK    4  A    between atoms: C_11  and  C_12 
REMARK       I    between atoms: C_12  and  N_13 
REMARK    5  A    between atoms: N_13  and  C_14 
REMARK    6  A    between atoms: C_16  and  C_17 
ROOT
HETATM    1  C   UNL     1      43.300 -15.076   6.399  1.00  0.00     0.224 C 
HETATM    2  N   UNL     1      43.744 -13.898   5.852  1.00  0.00    -0.327 N 
HETATM    3  O   UNL     1      42.533 -15.180   7.357  1.00  0.00    -0.273 OA
HETATM    4  H   UNL     1      44.275 -13.962   4.981  1.00  0.00     0.169 HD
ENDROOT
BRANCH   1   5
HETATM    5  C   UNL     1      43.888 -16.336   5.783  1.00  0.00     0.133 C 
BRANCH   5   6
HETATM    6  C   UNL     1      43.411 -16.789   4.389  1.00  0.00     0.126 C 
BRANCH   6   7
HETATM    7  N   UNL     1      42.127 -16.186   4.007  1.00  0.00    -0.352 N 
HETATM    8  C   UNL     1      41.978 -15.090   3.198  1.00  0.00     0.214 C 
HETATM    9  C   UNL     1      40.554 -14.724   2.882  1.00  0.00     0.117 C 
HETATM   10  O   UNL     1      42.923 -14.445   2.756  1.00  0.00    -0.274 OA
HETATM   11  H   UNL     1      41.295 -16.614   4.394  1.00  0.00     0.163 HD
ENDBRANCH   6   7
BRANCH   6  12
HETATM   12  C   UNL     1      43.575 -18.256   4.020  1.00  0.00    -0.035 A 
HETATM   13  C   UNL     1      43.404 -18.738   2.713  1.00  0.00     0.009 A 
HETATM   14  C   UNL     1      43.598 -20.089   2.409  1.00  0.00     0.001 A 
HETATM   15  C   UNL     1      43.974 -20.983   3.405  1.00  0.00     0.000 A 
HETATM   16  C   UNL     1      44.161 -20.527   4.706  1.00  0.00     0.001 A 
HETATM   17  C   UNL     1      43.971 -19.176   5.009  1.00  0.00     0.009 A 
ENDBRANCH   6  12
ENDBRANCH   5   6
ENDBRANCH   1   5
BRANCH   2  18
HETATM   18  C   UNL     1      43.537 -12.591   6.335  1.00  0.00     0.035 A 
HETATM   19  C   UNL     1      42.348 -11.878   6.155  1.00  0.00     0.042 A 
HETATM   20  C   UNL     1      42.173 -10.609   6.733  1.00  0.00    -0.021 A 
HETATM   21  C   UNL     1      43.228 -10.047   7.463  1.00  0.00     0.012 A 
HETATM   22  C   UNL     1      44.422 -10.748   7.637  1.00  0.00     0.003 A 
HETATM   23  C   UNL     1      44.567 -12.020   7.088  1.00  0.00     0.029 A 
BRANCH  20  24
HETATM   24  C   UNL     1      40.905  -9.901   6.626  1.00  0.00     0.010 A 
HETATM   25  C   UNL     1      39.591 -10.303   6.970  1.00  0.00     0.152 A 
HETATM   26  N   UNL     1      38.674  -9.369   6.704  1.00  0.00    -0.187 NA
HETATM   27  N   UNL     1      39.396  -8.365   6.183  1.00  0.00    -0.289 N 
HETATM   28  H   UNL     1      38.911  -7.524   5.888  1.00  0.00     0.188 HD
HETATM   29  C   UNL     1      40.733  -8.631   6.119  1.00  0.00     0.123 A 
ENDBRANCH  20  24
ENDBRANCH   2  18
TORSDOF 6
ENDMDL
