MODEL 1
REMARK VINA RESULT:      -8.4      0.000      0.000
REMARK  7 active torsions:
REMARK  status: ('A' for Active; 'I' for Inactive)
REMARK    1  A    between atoms: C_4  and  C_5 
REMARK    2  A    between atoms: C_10  and  C_11 
REMARK       I    between atoms: C_11  and  N_12 
REMARK    3  A    between atoms: N_12  and  C_13 
REMARK    4  A    between atoms: C_13  and  C_14 
REMARK    5  A    between atoms: C_14  and  C_15 
REMARK    6  A    between atoms: C_15  and  N_16 
REMARK    7  A    between atoms: C_26  and  C_27 
ROOT
HETATM    1  C   UNL     1      43.217 -17.024   3.017  1.00  0.00     0.125 C 
HETATM    2  N   UNL     1      43.137 -16.243   4.255  1.00  0.00    -0.365 N 
HETATM    3  C   UNL     1      42.693 -14.965   4.192  1.00  0.00     0.141 A 
HETATM    4  N   UNL     1      41.932 -14.539   3.134  1.00  0.00    -0.238 N 
HETATM    5  N   UNL     1      41.647 -13.223   3.175  1.00  0.00    -0.163 NA
HETATM    6  C   UNL     1      42.168 -12.808   4.353  1.00  0.00     0.165 A 
HETATM    7  C   UNL     1      42.823 -13.875   5.013  1.00  0.00     0.092 A 
HETATM    8 BR   UNL     1      43.713 -13.807   6.658  1.00  0.00    -0.044 Br
HETATM    9  C   UNL     1      41.603 -15.366   1.981  1.00  0.00     0.221 C 
HETATM   10  C   UNL     1      41.888 -16.855   2.264  1.00  0.00     0.067 C 
HETATM   11  H   UNL     1      43.858 -16.489   4.939  1.00  0.00     0.162 HD
ENDROOT
BRANCH   6  12
HETATM   12  C   UNL     1      42.007 -11.413   4.773  1.00  0.00     0.273 C 
HETATM   13  N   UNL     1      41.126 -11.244   5.823  1.00  0.00    -0.355 N 
HETATM   14  H   UNL     1      40.638 -12.096   6.110  1.00  0.00     0.162 HD
HETATM   15  O   UNL     1      42.612 -10.452   4.293  1.00  0.00    -0.266 OA
BRANCH  13  16
HETATM   16  C   UNL     1      40.676  -9.954   6.284  1.00  0.00     0.124 C 
BRANCH  16  17
HETATM   17  C   UNL     1      41.297  -9.519   7.611  1.00  0.00     0.047 C 
BRANCH  17  18
HETATM   18  C   UNL     1      42.450  -8.516   7.548  1.00  0.00     0.236 C 
BRANCH  18  19
HETATM   19  N   UNL     1      43.704  -8.972   8.243  1.00  0.00    -0.067 N 
HETATM   20  H   UNL     1      44.421  -8.232   8.085  1.00  0.00     0.280 HD
HETATM   21  C   UNL     1      43.569  -9.212   9.735  1.00  0.00     0.261 C 
HETATM   22  C   UNL     1      44.919  -9.652  10.315  1.00  0.00     0.195 C 
HETATM   23  O   UNL     1      45.408 -10.822   9.652  1.00  0.00    -0.388 OA
HETATM   24  C   UNL     1      45.617 -10.583   8.256  1.00  0.00     0.195 C 
HETATM   25  C   UNL     1      44.301 -10.206   7.568  1.00  0.00     0.261 C 
ENDBRANCH  18  19
ENDBRANCH  17  18
ENDBRANCH  16  17
ENDBRANCH  13  16
ENDBRANCH   6  12
BRANCH   9  26
HETATM   26  C   UNL     1      40.154 -15.189   1.575  1.00  0.00     0.409 C 
HETATM   27  F   UNL     1      39.979 -14.205   0.667  1.00  0.00    -0.169 F 
HETATM   28  F   UNL     1      39.688 -16.328   1.003  1.00  0.00    -0.169 F 
HETATM   29  F   UNL     1      39.357 -14.924   2.634  1.00  0.00    -0.169 F 
ENDBRANCH   9  26
BRANCH   1  30
HETATM   30  C   UNL     1      43.520 -18.479   3.267  1.00  0.00     0.005 A 
HETATM   31  S   UNL     1      44.071 -18.982   4.814  1.00  0.00    -0.104 SA
HETATM   32  C   UNL     1      44.157 -20.618   4.327  1.00  0.00     0.050 A 
HETATM   33  C   UNL     1      43.776 -20.786   3.015  1.00  0.00     0.008 A 
HETATM   34  C   UNL     1      43.400 -19.554   2.406  1.00  0.00     0.017 A 
ENDBRANCH   1  30
TORSDOF 7
ENDMDL
MODEL 2
REMARK VINA RESULT:      -8.3      0.616      1.241
REMARK  7 active torsions:
REMARK  status: ('A' for Active; 'I' for Inactive)
REMARK    1  A    between atoms: C_4  and  C_5 
REMARK    2  A    between atoms: C_10  and  C_11 
REMARK       I    between atoms: C_11  and  N_12 
REMARK    3  A    between atoms: N_12  and  C_13 
REMARK    4  A    between atoms: C_13  and  C_14 
REMARK    5  A    between atoms: C_14  and  C_15 
REMARK    6  A    between atoms: C_15  and  N_16 
REMARK    7  A    between atoms: C_26  and  C_27 
ROOT
HETATM    1  C   UNL     1      43.209 -17.006   3.029  1.00  0.00     0.125 C 
HETATM    2  N   UNL     1      43.116 -16.224   4.266  1.00  0.00    -0.365 N 
HETATM    3  C   UNL     1      42.662 -14.950   4.199  1.00  0.00     0.141 A 
HETATM    4  N   UNL     1      41.903 -14.531   3.136  1.00  0.00    -0.238 N 
HETATM    5  N   UNL     1      41.608 -13.218   3.173  1.00  0.00    -0.163 NA
HETATM    6  C   UNL     1      42.118 -12.797   4.354  1.00  0.00     0.165 A 
HETATM    7  C   UNL     1      42.779 -13.858   5.019  1.00  0.00     0.092 A 
HETATM    8 BR   UNL     1      43.659 -13.780   6.669  1.00  0.00    -0.044 Br
HETATM    9  C   UNL     1      41.587 -15.362   1.982  1.00  0.00     0.221 C 
HETATM   10  C   UNL     1      41.882 -16.848   2.269  1.00  0.00     0.067 C 
HETATM   11  H   UNL     1      43.834 -16.463   4.954  1.00  0.00     0.162 HD
ENDROOT
BRANCH   6  12
HETATM   12  C   UNL     1      41.945 -11.402   4.771  1.00  0.00     0.273 C 
HETATM   13  N   UNL     1      40.891 -11.208   5.642  1.00  0.00    -0.355 N 
HETATM   14  H   UNL     1      40.320 -12.039   5.811  1.00  0.00     0.162 HD
HETATM   15  O   UNL     1      42.671 -10.464   4.436  1.00  0.00    -0.266 OA
BRANCH  13  16
HETATM   16  C   UNL     1      40.420  -9.905   6.042  1.00  0.00     0.124 C 
BRANCH  16  17
HETATM   17  C   UNL     1      40.210  -9.758   7.549  1.00  0.00     0.047 C 
BRANCH  17  18
HETATM   18  C   UNL     1      41.289  -9.010   8.336  1.00  0.00     0.236 C 
BRANCH  18  19
HETATM   19  N   UNL     1      42.419  -9.879   8.814  1.00  0.00    -0.067 N 
HETATM   20  H   UNL     1      42.078 -10.863   8.775  1.00  0.00     0.280 HD
HETATM   21  C   UNL     1      43.704  -9.773   8.013  1.00  0.00     0.261 C 
HETATM   22  C   UNL     1      44.759 -10.721   8.597  1.00  0.00     0.195 C 
HETATM   23  O   UNL     1      44.995 -10.442   9.980  1.00  0.00    -0.388 OA
HETATM   24  C   UNL     1      43.806 -10.618  10.759  1.00  0.00     0.195 C 
HETATM   25  C   UNL     1      42.708  -9.655  10.298  1.00  0.00     0.261 C 
ENDBRANCH  18  19
ENDBRANCH  17  18
ENDBRANCH  16  17
ENDBRANCH  13  16
ENDBRANCH   6  12
BRANCH   9  26
HETATM   26  C   UNL     1      40.140 -15.198   1.568  1.00  0.00     0.409 C 
HETATM   27  F   UNL     1      39.652 -16.279   0.922  1.00  0.00    -0.169 F 
HETATM   28  F   UNL     1      39.358 -15.019   2.662  1.00  0.00    -0.169 F 
HETATM   29  F   UNL     1      39.957 -14.120   0.772  1.00  0.00    -0.169 F 
ENDBRANCH   9  26
BRANCH   1  30
HETATM   30  C   UNL     1      43.522 -18.458   3.283  1.00  0.00     0.005 A 
HETATM   31  S   UNL     1      44.061 -18.955   4.836  1.00  0.00    -0.104 SA
HETATM   32  C   UNL     1      44.166 -20.591   4.351  1.00  0.00     0.050 A 
HETATM   33  C   UNL     1      43.801 -20.763   3.035  1.00  0.00     0.008 A 
HETATM   34  C   UNL     1      43.420 -19.534   2.421  1.00  0.00     0.017 A 
ENDBRANCH   1  30
TORSDOF 7
ENDMDL
MODEL 3
REMARK VINA RESULT:      -7.8      1.777      2.530
REMARK  7 active torsions:
REMARK  status: ('A' for Active; 'I' for Inactive)
REMARK    1  A    between atoms: C_4  and  C_5 
REMARK    2  A    between atoms: C_10  and  C_11 
REMARK       I    between atoms: C_11  and  N_12 
REMARK    3  A    between atoms: N_12  and  C_13 
REMARK    4  A    between atoms: C_13  and  C_14 
REMARK    5  A    between atoms: C_14  and  C_15 
REMARK    6  A    between atoms: C_15  and  N_16 
REMARK    7  A    between atoms: C_26  and  C_27 
ROOT
HETATM    1  C   UNL     1      43.638 -17.006   3.253  1.00  0.00     0.125 C 
HETATM    2  N   UNL     1      43.194 -16.560   4.577  1.00  0.00    -0.365 N 
HETATM    3  C   UNL     1      42.968 -15.239   4.777  1.00  0.00     0.141 A 
HETATM    4  N   UNL     1      42.721 -14.402   3.719  1.00  0.00    -0.238 N 
HETATM    5  N   UNL     1      42.607 -13.108   4.075  1.00  0.00    -0.163 NA
HETATM    6  C   UNL     1      42.691 -13.128   5.426  1.00  0.00     0.165 A 
HETATM    7  C   UNL     1      42.912 -14.446   5.893  1.00  0.00     0.092 A 
HETATM    8 BR   UNL     1      43.117 -14.992   7.672  1.00  0.00    -0.044 Br
HETATM    9  C   UNL     1      42.752 -14.820   2.324  1.00  0.00     0.221 C 
HETATM   10  C   UNL     1      42.723 -16.357   2.203  1.00  0.00     0.067 C 
HETATM   11  H   UNL     1      43.567 -17.125   5.344  1.00  0.00     0.162 HD
ENDROOT
BRANCH   6  12
HETATM   12  C   UNL     1      42.558 -11.881   6.187  1.00  0.00     0.273 C 
HETATM   13  N   UNL     1      43.759 -11.379   6.648  1.00  0.00    -0.355 N 
HETATM   14  H   UNL     1      44.567 -11.983   6.477  1.00  0.00     0.162 HD
HETATM   15  O   UNL     1      41.501 -11.279   6.386  1.00  0.00    -0.266 OA
BRANCH  13  16
HETATM   16  C   UNL     1      43.857 -10.270   7.565  1.00  0.00     0.124 C 
BRANCH  16  17
HETATM   17  C   UNL     1      44.969 -10.422   8.603  1.00  0.00     0.047 C 
BRANCH  17  18
HETATM   18  C   UNL     1      44.853  -9.584   9.879  1.00  0.00     0.236 C 
BRANCH  18  19
HETATM   19  N   UNL     1      43.441  -9.364  10.346  1.00  0.00    -0.067 N 
HETATM   20  H   UNL     1      42.817  -9.636   9.557  1.00  0.00     0.280 HD
HETATM   21  C   UNL     1      43.036 -10.145  11.583  1.00  0.00     0.261 C 
HETATM   22  C   UNL     1      41.575  -9.840  11.935  1.00  0.00     0.195 C 
HETATM   23  O   UNL     1      41.373  -8.437  12.129  1.00  0.00    -0.388 OA
HETATM   24  C   UNL     1      41.675  -7.696  10.941  1.00  0.00     0.195 C 
HETATM   25  C   UNL     1      43.144  -7.878  10.547  1.00  0.00     0.261 C 
ENDBRANCH  18  19
ENDBRANCH  17  18
ENDBRANCH  16  17
ENDBRANCH  13  16
ENDBRANCH   6  12
BRANCH   9  26
HETATM   26  C   UNL     1      41.598 -14.222   1.547  1.00  0.00     0.409 C 
HETATM   27  F   UNL     1      40.475 -14.096   2.287  1.00  0.00    -0.169 F 
HETATM   28  F   UNL     1      41.919 -12.975   1.120  1.00  0.00    -0.169 F 
HETATM   29  F   UNL     1      41.293 -14.949   0.449  1.00  0.00    -0.169 F 
ENDBRANCH   9  26
BRANCH   1  30
HETATM   30  C   UNL     1      43.642 -18.508   3.119  1.00  0.00     0.005 A 
HETATM   31  S   UNL     1      44.212 -19.478   4.415  1.00  0.00    -0.104 SA
HETATM   32  C   UNL     1      43.898 -20.925   3.560  1.00  0.00     0.050 A 
HETATM   33  C   UNL     1      43.370 -20.682   2.313  1.00  0.00     0.008 A 
HETATM   34  C   UNL     1      43.213 -19.288   2.061  1.00  0.00     0.017 A 
ENDBRANCH   1  30
TORSDOF 7
ENDMDL
MODEL 4
REMARK VINA RESULT:      -7.8      2.336      4.187
REMARK  7 active torsions:
REMARK  status: ('A' for Active; 'I' for Inactive)
REMARK    1  A    between atoms: C_4  and  C_5 
REMARK    2  A    between atoms: C_10  and  C_11 
REMARK       I    between atoms: C_11  and  N_12 
REMARK    3  A    between atoms: N_12  and  C_13 
REMARK    4  A    between atoms: C_13  and  C_14 
REMARK    5  A    between atoms: C_14  and  C_15 
REMARK    6  A    between atoms: C_15  and  N_16 
REMARK    7  A    between atoms: C_26  and  C_27 
ROOT
HETATM    1  C   UNL     1      43.217 -16.973   2.974  1.00  0.00     0.125 C 
HETATM    2  N   UNL     1      43.129 -16.170   4.197  1.00  0.00    -0.365 N 
HETATM    3  C   UNL     1      42.681 -14.895   4.108  1.00  0.00     0.141 A 
HETATM    4  N   UNL     1      41.922 -14.491   3.039  1.00  0.00    -0.238 N 
HETATM    5  N   UNL     1      41.632 -13.176   3.054  1.00  0.00    -0.163 NA
HETATM    6  C   UNL     1      42.147 -12.737   4.227  1.00  0.00     0.165 A 
HETATM    7  C   UNL     1      42.803 -13.789   4.909  1.00  0.00     0.092 A 
HETATM    8 BR   UNL     1      43.687 -13.687   6.557  1.00  0.00    -0.044 Br
HETATM    9  C   UNL     1      41.601 -15.340   1.901  1.00  0.00     0.221 C 
HETATM   10  C   UNL     1      41.890 -16.823   2.212  1.00  0.00     0.067 C 
HETATM   11  H   UNL     1      43.847 -16.400   4.888  1.00  0.00     0.162 HD
ENDROOT
BRANCH   6  12
HETATM   12  C   UNL     1      41.980 -11.335   4.620  1.00  0.00     0.273 C 
HETATM   13  N   UNL     1      41.068 -11.146   5.640  1.00  0.00    -0.355 N 
HETATM   14  H   UNL     1      40.568 -11.992   5.925  1.00  0.00     0.162 HD
HETATM   15  O   UNL     1      42.603 -10.384   4.144  1.00  0.00    -0.266 OA
BRANCH  13  16
HETATM   16  C   UNL     1      40.609  -9.847   6.066  1.00  0.00     0.124 C 
BRANCH  16  17
HETATM   17  C   UNL     1      39.333  -9.380   5.366  1.00  0.00     0.047 C 
BRANCH  17  18
HETATM   18  C   UNL     1      39.498  -8.538   4.100  1.00  0.00     0.236 C 
BRANCH  18  19
HETATM   19  N   UNL     1      39.133  -9.255   2.829  1.00  0.00    -0.067 N 
HETATM   20  H   UNL     1      38.329  -8.738   2.413  1.00  0.00     0.280 HD
HETATM   21  C   UNL     1      40.240  -9.353   1.796  1.00  0.00     0.261 C 
HETATM   22  C   UNL     1      39.726 -10.088   0.552  1.00  0.00     0.195 C 
HETATM   23  O   UNL     1      39.226 -11.386   0.888  1.00  0.00    -0.388 OA
HETATM   24  C   UNL     1      38.126 -11.301   1.801  1.00  0.00     0.195 C 
HETATM   25  C   UNL     1      38.561 -10.644   3.115  1.00  0.00     0.261 C 
ENDBRANCH  18  19
ENDBRANCH  17  18
ENDBRANCH  16  17
ENDBRANCH  13  16
ENDBRANCH   6  12
BRANCH   9  26
HETATM   26  C   UNL     1      40.153 -15.177   1.486  1.00  0.00     0.409 C 
HETATM   27  F   UNL     1      39.993 -14.297   0.473  1.00  0.00    -0.169 F 
HETATM   28  F   UNL     1      39.657 -16.361   1.048  1.00  0.00    -0.169 F 
HETATM   29  F   UNL     1      39.371 -14.776   2.512  1.00  0.00    -0.169 F 
ENDBRANCH   9  26
BRANCH   1  30
HETATM   30  C   UNL     1      43.524 -18.422   3.252  1.00  0.00     0.005 A 
HETATM   31  S   UNL     1      44.081 -18.892   4.807  1.00  0.00    -0.104 SA
HETATM   32  C   UNL     1      44.169 -20.538   4.353  1.00  0.00     0.050 A 
HETATM   33  C   UNL     1      43.784 -20.734   3.047  1.00  0.00     0.008 A 
HETATM   34  C   UNL     1      43.402 -19.515   2.413  1.00  0.00     0.017 A 
ENDBRANCH   1  30
TORSDOF 7
ENDMDL
MODEL 5
REMARK VINA RESULT:      -7.6      4.056      8.687
REMARK  7 active torsions:
REMARK  status: ('A' for Active; 'I' for Inactive)
REMARK    1  A    between atoms: C_4  and  C_5 
REMARK    2  A    between atoms: C_10  and  C_11 
REMARK       I    between atoms: C_11  and  N_12 
REMARK    3  A    between atoms: N_12  and  C_13 
REMARK    4  A    between atoms: C_13  and  C_14 
REMARK    5  A    between atoms: C_14  and  C_15 
REMARK    6  A    between atoms: C_15  and  N_16 
REMARK    7  A    between atoms: C_26  and  C_27 
ROOT
HETATM    1  C   UNL     1      42.930  -9.401   8.647  1.00  0.00     0.125 C 
HETATM    2  N   UNL     1      41.849 -10.215   8.083  1.00  0.00    -0.365 N 
HETATM    3  C   UNL     1      41.974 -10.676   6.815  1.00  0.00     0.141 A 
HETATM    4  N   UNL     1      43.208 -10.780   6.225  1.00  0.00    -0.238 N 
HETATM    5  N   UNL     1      43.155 -11.168   4.937  1.00  0.00    -0.163 NA
HETATM    6  C   UNL     1      41.841 -11.413   4.719  1.00  0.00     0.165 A 
HETATM    7  C   UNL     1      41.080 -11.119   5.876  1.00  0.00     0.092 A 
HETATM    8 BR   UNL     1      39.225 -11.275   6.075  1.00  0.00    -0.044 Br
HETATM    9  C   UNL     1      44.450 -10.348   6.852  1.00  0.00     0.221 C 
HETATM   10  C   UNL     1      44.260 -10.118   8.365  1.00  0.00     0.067 C 
HETATM   11  H   UNL     1      40.922  -9.960   8.433  1.00  0.00     0.162 HD
ENDROOT
BRANCH   6  12
HETATM   12  C   UNL     1      41.396 -11.911   3.414  1.00  0.00     0.273 C 
HETATM   13  N   UNL     1      42.042 -13.061   3.006  1.00  0.00    -0.355 N 
HETATM   14  H   UNL     1      42.801 -13.363   3.621  1.00  0.00     0.162 HD
HETATM   15  O   UNL     1      40.505 -11.408   2.727  1.00  0.00    -0.266 OA
BRANCH  13  16
HETATM   16  C   UNL     1      41.900 -13.628   1.688  1.00  0.00     0.124 C 
BRANCH  16  17
HETATM   17  C   UNL     1      41.372 -15.062   1.683  1.00  0.00     0.047 C 
BRANCH  17  18
HETATM   18  C   UNL     1      40.970 -15.663   3.032  1.00  0.00     0.236 C 
BRANCH  18  19
HETATM   19  N   UNL     1      41.855 -16.787   3.496  1.00  0.00    -0.067 N 
HETATM   20  H   UNL     1      41.226 -17.551   3.820  1.00  0.00     0.280 HD
HETATM   21  C   UNL     1      42.802 -17.344   2.448  1.00  0.00     0.261 C 
HETATM   22  C   UNL     1      43.626 -18.489   3.049  1.00  0.00     0.195 C 
HETATM   23  O   UNL     1      44.346 -18.054   4.207  1.00  0.00    -0.388 OA
HETATM   24  C   UNL     1      43.457 -17.602   5.235  1.00  0.00     0.195 C 
HETATM   25  C   UNL     1      42.635 -16.403   4.753  1.00  0.00     0.261 C 
ENDBRANCH  18  19
ENDBRANCH  17  18
ENDBRANCH  16  17
ENDBRANCH  13  16
ENDBRANCH   6  12
BRANCH   9  26
HETATM   26  C   UNL     1      45.558 -11.354   6.622  1.00  0.00     0.409 C 
HETATM   27  F   UNL     1      46.089 -11.277   5.382  1.00  0.00    -0.169 F 
HETATM   28  F   UNL     1      46.577 -11.133   7.491  1.00  0.00    -0.169 F 
HETATM   29  F   UNL     1      45.142 -12.625   6.817  1.00  0.00    -0.169 F 
ENDBRANCH   9  26
BRANCH   1  30
HETATM   30  C   UNL     1      42.752  -9.141  10.121  1.00  0.00     0.005 A 
HETATM   31  S   UNL     1      41.190  -9.257  10.825  1.00  0.00    -0.104 SA
HETATM   32  C   UNL     1      41.788  -8.875  12.380  1.00  0.00     0.050 A 
HETATM   33  C   UNL     1      43.148  -8.663  12.372  1.00  0.00     0.008 A 
HETATM   34  C   UNL     1      43.706  -8.826  11.070  1.00  0.00     0.017 A 
ENDBRANCH   1  30
TORSDOF 7
ENDMDL
MODEL 6
REMARK VINA RESULT:      -7.5      3.383      5.010
REMARK  7 active torsions:
REMARK  status: ('A' for Active; 'I' for Inactive)
REMARK    1  A    between atoms: C_4  and  C_5 
REMARK    2  A    between atoms: C_10  and  C_11 
REMARK       I    between atoms: C_11  and  N_12 
REMARK    3  A    between atoms: N_12  and  C_13 
REMARK    4  A    between atoms: C_13  and  C_14 
REMARK    5  A    between atoms: C_14  and  C_15 
REMARK    6  A    between atoms: C_15  and  N_16 
REMARK    7  A    between atoms: C_26  and  C_27 
ROOT
HETATM    1  C   UNL     1      40.069 -13.827   0.654  1.00  0.00     0.125 C 
HETATM    2  N   UNL     1      40.522 -12.567   1.251  1.00  0.00    -0.365 N 
HETATM    3  C   UNL     1      41.230 -12.610   2.405  1.00  0.00     0.141 A 
HETATM    4  N   UNL     1      41.890 -13.753   2.780  1.00  0.00    -0.238 N 
HETATM    5  N   UNL     1      42.471 -13.663   3.992  1.00  0.00    -0.163 NA
HETATM    6  C   UNL     1      42.253 -12.381   4.369  1.00  0.00     0.165 A 
HETATM    7  C   UNL     1      41.485 -11.698   3.395  1.00  0.00     0.092 A 
HETATM    8 BR   UNL     1      40.908  -9.918   3.459  1.00  0.00    -0.044 Br
HETATM    9  C   UNL     1      41.833 -15.007   2.042  1.00  0.00     0.221 C 
HETATM   10  C   UNL     1      41.265 -14.793   0.624  1.00  0.00     0.067 C 
HETATM   11  H   UNL     1      39.883 -11.785   1.086  1.00  0.00     0.162 HD
ENDROOT
BRANCH   6  12
HETATM   12  C   UNL     1      42.793 -11.890   5.641  1.00  0.00     0.273 C 
HETATM   13  N   UNL     1      44.129 -12.180   5.828  1.00  0.00    -0.355 N 
HETATM   14  H   UNL     1      44.542 -12.771   5.102  1.00  0.00     0.162 HD
HETATM   15  O   UNL     1      42.162 -11.239   6.476  1.00  0.00    -0.266 OA
BRANCH  13  16
HETATM   16  C   UNL     1      44.824 -11.958   7.072  1.00  0.00     0.124 C 
BRANCH  16  17
HETATM   17  C   UNL     1      45.759 -10.748   7.052  1.00  0.00     0.047 C 
BRANCH  17  18
HETATM   18  C   UNL     1      45.619  -9.737   8.192  1.00  0.00     0.236 C 
BRANCH  18  19
HETATM   19  N   UNL     1      44.440  -9.982   9.092  1.00  0.00    -0.067 N 
HETATM   20  H   UNL     1      43.986 -10.859   8.761  1.00  0.00     0.280 HD
HETATM   21  C   UNL     1      44.767 -10.125  10.567  1.00  0.00     0.261 C 
HETATM   22  C   UNL     1      43.481 -10.388  11.361  1.00  0.00     0.195 C 
HETATM   23  O   UNL     1      42.523  -9.346  11.151  1.00  0.00    -0.388 OA
HETATM   24  C   UNL     1      42.145  -9.255   9.772  1.00  0.00     0.195 C 
HETATM   25  C   UNL     1      43.358  -8.919   8.898  1.00  0.00     0.261 C 
ENDBRANCH  18  19
ENDBRANCH  17  18
ENDBRANCH  16  17
ENDBRANCH  13  16
ENDBRANCH   6  12
BRANCH   9  26
HETATM   26  C   UNL     1      43.200 -15.654   1.953  1.00  0.00     0.409 C 
HETATM   27  F   UNL     1      43.249 -16.659   1.053  1.00  0.00    -0.169 F 
HETATM   28  F   UNL     1      44.124 -14.741   1.561  1.00  0.00    -0.169 F 
HETATM   29  F   UNL     1      43.610 -16.143   3.145  1.00  0.00    -0.169 F 
ENDBRANCH   9  26
BRANCH   1  30
HETATM   30  C   UNL     1      39.486 -13.640  -0.723  1.00  0.00     0.005 A 
HETATM   31  S   UNL     1      39.210 -12.055  -1.324  1.00  0.00    -0.104 SA
HETATM   32  C   UNL     1      38.612 -12.649  -2.811  1.00  0.00     0.050 A 
HETATM   33  C   UNL     1      38.619 -14.024  -2.857  1.00  0.00     0.008 A 
HETATM   34  C   UNL     1      39.132 -14.597  -1.656  1.00  0.00     0.017 A 
ENDBRANCH   1  30
TORSDOF 7
ENDMDL
MODEL 7
REMARK VINA RESULT:      -7.4      4.383      8.791
REMARK  7 active torsions:
REMARK  status: ('A' for Active; 'I' for Inactive)
REMARK    1  A    between atoms: C_4  and  C_5 
REMARK    2  A    between atoms: C_10  and  C_11 
REMARK       I    between atoms: C_11  and  N_12 
REMARK    3  A    between atoms: N_12  and  C_13 
REMARK    4  A    between atoms: C_13  and  C_14 
REMARK    5  A    between atoms: C_14  and  C_15 
REMARK    6  A    between atoms: C_15  and  N_16 
REMARK    7  A    between atoms: C_26  and  C_27 
ROOT
HETATM    1  C   UNL     1      41.981  -8.983   8.833  1.00  0.00     0.125 C 
HETATM    2  N   UNL     1      41.301  -9.946   7.962  1.00  0.00    -0.365 N 
HETATM    3  C   UNL     1      41.946 -10.396   6.859  1.00  0.00     0.141 A 
HETATM    4  N   UNL     1      43.314 -10.330   6.771  1.00  0.00    -0.238 N 
HETATM    5  N   UNL     1      43.794 -10.733   5.579  1.00  0.00    -0.163 NA
HETATM    6  C   UNL     1      42.699 -11.162   4.909  1.00  0.00     0.165 A 
HETATM    7  C   UNL     1      41.531 -10.968   5.685  1.00  0.00     0.092 A 
HETATM    8 BR   UNL     1      39.771 -11.382   5.197  1.00  0.00    -0.044 Br
HETATM    9  C   UNL     1      44.167  -9.723   7.783  1.00  0.00     0.221 C 
HETATM   10  C   UNL     1      43.400  -9.509   9.104  1.00  0.00     0.067 C 
HETATM   11  H   UNL     1      40.286  -9.822   7.931  1.00  0.00     0.162 HD
ENDROOT
BRANCH   6  12
HETATM   12  C   UNL     1      42.839 -11.728   3.564  1.00  0.00     0.273 C 
HETATM   13  N   UNL     1      42.902 -13.107   3.544  1.00  0.00    -0.355 N 
HETATM   14  H   UNL     1      42.931 -13.546   4.468  1.00  0.00     0.162 HD
HETATM   15  O   UNL     1      42.861 -11.077   2.517  1.00  0.00    -0.266 OA
BRANCH  13  16
HETATM   16  C   UNL     1      43.218 -13.871   2.362  1.00  0.00     0.124 C 
BRANCH  16  17
HETATM   17  C   UNL     1      43.234 -15.383   2.589  1.00  0.00     0.047 C 
BRANCH  17  18
HETATM   18  C   UNL     1      41.901 -16.053   2.929  1.00  0.00     0.236 C 
BRANCH  18  19
HETATM   19  N   UNL     1      41.748 -16.423   4.379  1.00  0.00    -0.067 N 
HETATM   20  H   UNL     1      41.238 -17.331   4.405  1.00  0.00     0.280 HD
HETATM   21  C   UNL     1      43.046 -16.567   5.153  1.00  0.00     0.261 C 
HETATM   22  C   UNL     1      42.743 -16.961   6.604  1.00  0.00     0.195 C 
HETATM   23  O   UNL     1      41.880 -16.007   7.229  1.00  0.00    -0.388 OA
HETATM   24  C   UNL     1      40.619 -15.922   6.554  1.00  0.00     0.195 C 
HETATM   25  C   UNL     1      40.811 -15.459   5.106  1.00  0.00     0.261 C 
ENDBRANCH  18  19
ENDBRANCH  17  18
ENDBRANCH  16  17
ENDBRANCH  13  16
ENDBRANCH   6  12
BRANCH   9  26
HETATM   26  C   UNL     1      45.400 -10.565   8.038  1.00  0.00     0.409 C 
HETATM   27  F   UNL     1      46.501 -10.084   7.420  1.00  0.00    -0.169 F 
HETATM   28  F   UNL     1      45.683 -10.589   9.364  1.00  0.00    -0.169 F 
HETATM   29  F   UNL     1      45.231 -11.848   7.646  1.00  0.00    -0.169 F 
ENDBRANCH   9  26
BRANCH   1  30
HETATM   30  C   UNL     1      41.235  -8.739  10.120  1.00  0.00     0.005 A 
HETATM   31  S   UNL     1      39.765  -9.570  10.425  1.00  0.00    -0.104 SA
HETATM   32  C   UNL     1      39.580  -8.825  11.952  1.00  0.00     0.050 A 
HETATM   33  C   UNL     1      40.613  -7.960  12.232  1.00  0.00     0.008 A 
HETATM   34  C   UNL     1      41.574  -7.917  11.179  1.00  0.00     0.017 A 
ENDBRANCH   1  30
TORSDOF 7
ENDMDL
MODEL 8
REMARK VINA RESULT:      -7.3      4.136      7.119
REMARK  7 active torsions:
REMARK  status: ('A' for Active; 'I' for Inactive)
REMARK    1  A    between atoms: C_4  and  C_5 
REMARK    2  A    between atoms: C_10  and  C_11 
REMARK       I    between atoms: C_11  and  N_12 
REMARK    3  A    between atoms: N_12  and  C_13 
REMARK    4  A    between atoms: C_13  and  C_14 
REMARK    5  A    between atoms: C_14  and  C_15 
REMARK    6  A    between atoms: C_15  and  N_16 
REMARK    7  A    between atoms: C_26  and  C_27 
ROOT
HETATM    1  C   UNL     1      42.426 -16.348   4.461  1.00  0.00     0.125 C 
HETATM    2  N   UNL     1      42.101 -15.806   3.138  1.00  0.00    -0.365 N 
HETATM    3  C   UNL     1      41.599 -14.551   3.053  1.00  0.00     0.141 A 
HETATM    4  N   UNL     1      41.790 -13.649   4.069  1.00  0.00    -0.238 N 
HETATM    5  N   UNL     1      41.154 -12.478   3.873  1.00  0.00    -0.163 NA
HETATM    6  C   UNL     1      40.609 -12.601   2.639  1.00  0.00     0.165 A 
HETATM    7  C   UNL     1      40.874 -13.882   2.101  1.00  0.00     0.092 A 
HETATM    8 BR   UNL     1      40.322 -14.544   0.439  1.00  0.00    -0.044 Br
HETATM    9  C   UNL     1      42.461 -13.963   5.322  1.00  0.00     0.221 C 
HETATM   10  C   UNL     1      43.243 -15.289   5.219  1.00  0.00     0.067 C 
HETATM   11  H   UNL     1      41.786 -16.516   2.473  1.00  0.00     0.162 HD
ENDROOT
BRANCH   6  12
HETATM   12  C   UNL     1      39.864 -11.481   2.054  1.00  0.00     0.273 C 
HETATM   13  N   UNL     1      38.499 -11.684   2.007  1.00  0.00    -0.355 N 
HETATM   14  H   UNL     1      38.197 -12.616   2.302  1.00  0.00     0.162 HD
HETATM   15  O   UNL     1      40.361 -10.423   1.665  1.00  0.00    -0.266 OA
BRANCH  13  16
HETATM   16  C   UNL     1      37.588 -10.806   1.315  1.00  0.00     0.124 C 
BRANCH  16  17
HETATM   17  C   UNL     1      37.250 -11.259  -0.106  1.00  0.00     0.047 C 
BRANCH  17  18
HETATM   18  C   UNL     1      37.934 -10.520  -1.257  1.00  0.00     0.236 C 
BRANCH  18  19
HETATM   19  N   UNL     1      38.683 -11.414  -2.206  1.00  0.00    -0.067 N 
HETATM   20  H   UNL     1      38.474 -11.072  -3.169  1.00  0.00     0.280 HD
HETATM   21  C   UNL     1      40.188 -11.449  -2.015  1.00  0.00     0.261 C 
HETATM   22  C   UNL     1      40.822 -12.380  -3.056  1.00  0.00     0.195 C 
HETATM   23  O   UNL     1      40.267 -13.697  -2.977  1.00  0.00    -0.388 OA
HETATM   24  C   UNL     1      38.858 -13.686  -3.237  1.00  0.00     0.195 C 
HETATM   25  C   UNL     1      38.122 -12.835  -2.197  1.00  0.00     0.261 C 
ENDBRANCH  18  19
ENDBRANCH  17  18
ENDBRANCH  16  17
ENDBRANCH  13  16
ENDBRANCH   6  12
BRANCH   9  26
HETATM   26  C   UNL     1      43.398 -12.848   5.738  1.00  0.00     0.409 C 
HETATM   27  F   UNL     1      42.782 -11.885   6.458  1.00  0.00    -0.169 F 
HETATM   28  F   UNL     1      44.389 -13.339   6.523  1.00  0.00    -0.169 F 
HETATM   29  F   UNL     1      43.991 -12.258   4.676  1.00  0.00    -0.169 F 
ENDBRANCH   9  26
BRANCH   1  30
HETATM   30  C   UNL     1      43.168 -17.657   4.385  1.00  0.00     0.005 A 
HETATM   31  S   UNL     1      43.607 -18.473   5.831  1.00  0.00    -0.104 SA
HETATM   32  C   UNL     1      44.327 -19.760   4.966  1.00  0.00     0.050 A 
HETATM   33  C   UNL     1      44.238 -19.580   3.604  1.00  0.00     0.008 A 
HETATM   34  C   UNL     1      43.561 -18.371   3.268  1.00  0.00     0.017 A 
ENDBRANCH   1  30
TORSDOF 7
ENDMDL
MODEL 9
REMARK VINA RESULT:      -7.3      3.129      4.820
REMARK  7 active torsions:
REMARK  status: ('A' for Active; 'I' for Inactive)
REMARK    1  A    between atoms: C_4  and  C_5 
REMARK    2  A    between atoms: C_10  and  C_11 
REMARK       I    between atoms: C_11  and  N_12 
REMARK    3  A    between atoms: N_12  and  C_13 
REMARK    4  A    between atoms: C_13  and  C_14 
REMARK    5  A    between atoms: C_14  and  C_15 
REMARK    6  A    between atoms: C_15  and  N_16 
REMARK    7  A    between atoms: C_26  and  C_27 
ROOT
HETATM    1  C   UNL     1      43.199 -16.900   2.977  1.00  0.00     0.125 C 
HETATM    2  N   UNL     1      43.126 -15.999   4.131  1.00  0.00    -0.365 N 
HETATM    3  C   UNL     1      42.667 -14.738   3.945  1.00  0.00     0.141 A 
HETATM    4  N   UNL     1      41.888 -14.428   2.860  1.00  0.00    -0.238 N 
HETATM    5  N   UNL     1      41.589 -13.118   2.771  1.00  0.00    -0.163 NA
HETATM    6  C   UNL     1      42.120 -12.581   3.895  1.00  0.00     0.165 A 
HETATM    7  C   UNL     1      42.795 -13.569   4.650  1.00  0.00     0.092 A 
HETATM    8 BR   UNL     1      43.705 -13.326   6.268  1.00  0.00    -0.044 Br
HETATM    9  C   UNL     1      41.554 -15.371   1.801  1.00  0.00     0.221 C 
HETATM   10  C   UNL     1      41.859 -16.821   2.229  1.00  0.00     0.067 C 
HETATM   11  H   UNL     1      43.858 -16.167   4.826  1.00  0.00     0.162 HD
ENDROOT
BRANCH   6  12
HETATM   12  C   UNL     1      41.949 -11.151   4.174  1.00  0.00     0.273 C 
HETATM   13  N   UNL     1      40.804 -10.609   3.626  1.00  0.00    -0.355 N 
HETATM   14  H   UNL     1      40.274 -11.249   3.028  1.00  0.00     0.162 HD
HETATM   15  O   UNL     1      42.708 -10.466   4.861  1.00  0.00    -0.266 OA
BRANCH  13  16
HETATM   16  C   UNL     1      40.520  -9.195   3.615  1.00  0.00     0.124 C 
BRANCH  16  17
HETATM   17  C   UNL     1      39.857  -8.707   2.327  1.00  0.00     0.047 C 
BRANCH  17  18
HETATM   18  C   UNL     1      40.445  -7.458   1.668  1.00  0.00     0.236 C 
BRANCH  18  19
HETATM   19  N   UNL     1      41.104  -7.712   0.340  1.00  0.00    -0.067 N 
HETATM   20  H   UNL     1      40.366  -7.599  -0.387  1.00  0.00     0.280 HD
HETATM   21  C   UNL     1      42.266  -6.796   0.005  1.00  0.00     0.261 C 
HETATM   22  C   UNL     1      42.827  -7.154  -1.377  1.00  0.00     0.195 C 
HETATM   23  O   UNL     1      43.227  -8.526  -1.433  1.00  0.00    -0.388 OA
HETATM   24  C   UNL     1      42.119  -9.403  -1.198  1.00  0.00     0.195 C 
HETATM   25  C   UNL     1      41.532  -9.172   0.198  1.00  0.00     0.261 C 
ENDBRANCH  18  19
ENDBRANCH  17  18
ENDBRANCH  16  17
ENDBRANCH  13  16
ENDBRANCH   6  12
BRANCH   9  26
HETATM   26  C   UNL     1      40.099 -15.250   1.398  1.00  0.00     0.409 C 
HETATM   27  F   UNL     1      39.586 -16.408   0.928  1.00  0.00    -0.169 F 
HETATM   28  F   UNL     1      39.345 -14.903   2.472  1.00  0.00    -0.169 F 
HETATM   29  F   UNL     1      39.908 -14.299   0.457  1.00  0.00    -0.169 F 
ENDBRANCH   9  26
BRANCH   1  30
HETATM   30  C   UNL     1      43.522 -18.319   3.369  1.00  0.00     0.005 A 
HETATM   31  S   UNL     1      44.016 -18.669   4.976  1.00  0.00    -0.104 SA
HETATM   32  C   UNL     1      44.156 -20.339   4.642  1.00  0.00     0.050 A 
HETATM   33  C   UNL     1      43.836 -20.632   3.336  1.00  0.00     0.008 A 
HETATM   34  C   UNL     1      43.460 -19.468   2.603  1.00  0.00     0.017 A 
ENDBRANCH   1  30
TORSDOF 7
ENDMDL
MODEL 10
REMARK VINA RESULT:      -7.0      4.571      9.445
REMARK  7 active torsions:
REMARK  status: ('A' for Active; 'I' for Inactive)
REMARK    1  A    between atoms: C_4  and  C_5 
REMARK    2  A    between atoms: C_10  and  C_11 
REMARK       I    between atoms: C_11  and  N_12 
REMARK    3  A    between atoms: N_12  and  C_13 
REMARK    4  A    between atoms: C_13  and  C_14 
REMARK    5  A    between atoms: C_14  and  C_15 
REMARK    6  A    between atoms: C_15  and  N_16 
REMARK    7  A    between atoms: C_26  and  C_27 
ROOT
HETATM    1  C   UNL     1      42.010  -8.965   8.535  1.00  0.00     0.125 C 
HETATM    2  N   UNL     1      41.194 -10.040   7.962  1.00  0.00    -0.365 N 
HETATM    3  C   UNL     1      41.678 -10.731   6.902  1.00  0.00     0.141 A 
HETATM    4  N   UNL     1      43.024 -10.758   6.638  1.00  0.00    -0.238 N 
HETATM    5  N   UNL     1      43.334 -11.411   5.502  1.00  0.00    -0.163 NA
HETATM    6  C   UNL     1      42.149 -11.901   5.068  1.00  0.00     0.165 A 
HETATM    7  C   UNL     1      41.098 -11.497   5.925  1.00  0.00     0.092 A 
HETATM    8 BR   UNL     1      39.278 -11.899   5.746  1.00  0.00    -0.044 Br
HETATM    9  C   UNL     1      44.019 -10.014   7.398  1.00  0.00     0.221 C 
HETATM   10  C   UNL     1      43.435  -9.505   8.732  1.00  0.00     0.067 C 
HETATM   11  H   UNL     1      40.188  -9.868   8.029  1.00  0.00     0.162 HD
ENDROOT
BRANCH   6  12
HETATM   12  C   UNL     1      42.097 -12.725   3.857  1.00  0.00     0.273 C 
HETATM   13  N   UNL     1      41.621 -14.003   4.072  1.00  0.00    -0.355 N 
HETATM   14  H   UNL     1      41.451 -14.235   5.054  1.00  0.00     0.162 HD
HETATM   15  O   UNL     1      42.401 -12.345   2.724  1.00  0.00    -0.266 OA
BRANCH  13  16
HETATM   16  C   UNL     1      41.650 -15.042   3.071  1.00  0.00     0.124 C 
BRANCH  16  17
HETATM   17  C   UNL     1      42.047 -16.414   3.615  1.00  0.00     0.047 C 
BRANCH  17  18
HETATM   18  C   UNL     1      43.542 -16.701   3.767  1.00  0.00     0.236 C 
BRANCH  18  19
HETATM   19  N   UNL     1      43.926 -18.132   3.510  1.00  0.00    -0.067 N 
HETATM   20  H   UNL     1      44.910 -18.123   3.167  1.00  0.00     0.280 HD
HETATM   21  C   UNL     1      43.834 -19.055   4.711  1.00  0.00     0.261 C 
HETATM   22  C   UNL     1      44.269 -20.471   4.312  1.00  0.00     0.195 C 
HETATM   23  O   UNL     1      43.480 -20.967   3.226  1.00  0.00    -0.388 OA
HETATM   24  C   UNL     1      43.622 -20.148   2.060  1.00  0.00     0.195 C 
HETATM   25  C   UNL     1      43.140 -18.720   2.338  1.00  0.00     0.261 C 
ENDBRANCH  18  19
ENDBRANCH  17  18
ENDBRANCH  16  17
ENDBRANCH  13  16
ENDBRANCH   6  12
BRANCH   9  26
HETATM   26  C   UNL     1      45.249 -10.857   7.665  1.00  0.00     0.409 C 
HETATM   27  F   UNL     1      46.216 -10.684   6.738  1.00  0.00    -0.169 F 
HETATM   28  F   UNL     1      45.796 -10.518   8.859  1.00  0.00    -0.169 F 
HETATM   29  F   UNL     1      44.960 -12.176   7.723  1.00  0.00    -0.169 F 
ENDBRANCH   9  26
BRANCH   1  30
HETATM   30  C   UNL     1      41.445  -8.434   9.827  1.00  0.00     0.005 A 
HETATM   31  S   UNL     1      42.363  -7.332  10.771  1.00  0.00    -0.104 SA
HETATM   32  C   UNL     1      41.131  -7.209  11.949  1.00  0.00     0.050 A 
HETATM   33  C   UNL     1      40.040  -7.987  11.638  1.00  0.00     0.008 A 
HETATM   34  C   UNL     1      40.216  -8.687  10.409  1.00  0.00     0.017 A 
ENDBRANCH   1  30
TORSDOF 7
ENDMDL
