MODEL 1
REMARK VINA RESULT:      -9.3      0.000      0.000
REMARK  5 active torsions:
REMARK  status: ('A' for Active; 'I' for Inactive)
REMARK    1  A    between atoms: C_8  and  C_9 
REMARK    2  A    between atoms: C_9  and  C_10 
REMARK       I    between atoms: C_10  and  N_11 
REMARK    3  A    between atoms: N_11  and  N_12 
REMARK       I    between atoms: N_12  and  C_13 
REMARK    4  A    between atoms: C_13  and  C_14 
REMARK    5  A    between atoms: C_16  and  C_17 
ROOT
HETATM    1  C   UNL     1      42.356 -15.305   7.367  1.00  0.00     0.240 C 
HETATM    2  N   UNL     1      42.350 -13.997   6.914  1.00  0.00    -0.267 N 
HETATM    3  O   UNL     1      43.041 -15.679   8.318  1.00  0.00    -0.272 OA
HETATM    4  H   UNL     1      42.046 -13.770   5.967  1.00  0.00     0.190 HD
ENDROOT
BRANCH   2   5
HETATM    5  N   UNL     1      43.187 -13.069   7.531  1.00  0.00    -0.263 N 
HETATM    6  C   UNL     1      43.851 -12.152   6.744  1.00  0.00     0.270 C 
HETATM    7  O   UNL     1      43.822 -12.155   5.518  1.00  0.00    -0.266 OA
HETATM    8  H   UNL     1      43.421 -13.233   8.508  1.00  0.00     0.190 HD
BRANCH   6   9
HETATM    9  C   UNL     1      44.598 -11.111   7.487  1.00  0.00     0.034 A 
HETATM   10  C   UNL     1      43.977 -10.430   8.544  1.00  0.00     0.029 A 
HETATM   11  C   UNL     1      44.638  -9.385   9.200  1.00  0.00    -0.023 A 
HETATM   12  C   UNL     1      45.942  -9.056   8.799  1.00  0.00     0.012 A 
HETATM   13  C   UNL     1      46.559  -9.736   7.741  1.00  0.00     0.002 A 
HETATM   14  C   UNL     1      45.882 -10.754   7.073  1.00  0.00     0.017 A 
BRANCH  11  15
HETATM   15  C   UNL     1      43.958  -8.651  10.255  1.00  0.00    -0.002 A 
HETATM   16  C   UNL     1      43.188  -7.522  10.054  1.00  0.00     0.153 A 
HETATM   17  O   UNL     1      42.646  -7.089  11.223  1.00  0.00    -0.334 OA
HETATM   18  C   UNL     1      43.060  -7.946  12.189  1.00  0.00     0.142 A 
HETATM   19  C   UNL     1      43.863  -8.924  11.651  1.00  0.00     0.038 A 
ENDBRANCH  11  15
ENDBRANCH   6   9
ENDBRANCH   2   5
BRANCH   1  20
HETATM   20  C   UNL     1      41.342 -16.182   6.664  1.00  0.00     0.145 C 
BRANCH  20  21
HETATM   21  C   UNL     1      41.609 -16.509   5.230  1.00  0.00    -0.021 A 
HETATM   22  C   UNL     1      42.629 -17.334   4.638  1.00  0.00    -0.001 A 
HETATM   23  C   UNL     1      43.656 -18.167   5.131  1.00  0.00     0.014 A 
HETATM   24  C   UNL     1      42.520 -17.197   3.251  1.00  0.00     0.042 A 
HETATM   25  C   UNL     1      44.527 -18.810   4.240  1.00  0.00     0.001 A 
HETATM   26  C   UNL     1      44.394 -18.637   2.867  1.00  0.00     0.002 A 
HETATM   27  C   UNL     1      43.383 -17.828   2.346  1.00  0.00     0.030 A 
HETATM   28  N   UNL     1      41.457 -16.363   3.003  1.00  0.00    -0.365 N 
HETATM   29  H   UNL     1      41.148 -16.089   2.080  1.00  0.00     0.165 HD
HETATM   30  C   UNL     1      40.908 -15.940   4.179  1.00  0.00     0.097 A 
ENDBRANCH  20  21
ENDBRANCH   1  20
TORSDOF 5
ENDMDL
MODEL 2
REMARK VINA RESULT:      -8.8      6.317      9.724
REMARK  5 active torsions:
REMARK  status: ('A' for Active; 'I' for Inactive)
REMARK    1  A    between atoms: C_8  and  C_9 
REMARK    2  A    between atoms: C_9  and  C_10 
REMARK       I    between atoms: C_10  and  N_11 
REMARK    3  A    between atoms: N_11  and  N_12 
REMARK       I    between atoms: N_12  and  C_13 
REMARK    4  A    between atoms: C_13  and  C_14 
REMARK    5  A    between atoms: C_16  and  C_17 
ROOT
HETATM    1  C   UNL     1      42.018 -15.503   2.543  1.00  0.00     0.240 C 
HETATM    2  N   UNL     1      42.257 -14.793   1.379  1.00  0.00    -0.267 N 
HETATM    3  O   UNL     1      40.998 -16.168   2.722  1.00  0.00    -0.272 OA
HETATM    4  H   UNL     1      42.919 -14.018   1.363  1.00  0.00     0.190 HD
ENDROOT
BRANCH   2   5
HETATM    5  N   UNL     1      41.284 -14.792   0.381  1.00  0.00    -0.263 N 
HETATM    6  C   UNL     1      40.468 -13.688   0.255  1.00  0.00     0.270 C 
HETATM    7  O   UNL     1      40.483 -12.735   1.027  1.00  0.00    -0.266 OA
HETATM    8  H   UNL     1      41.092 -15.680  -0.080  1.00  0.00     0.190 HD
BRANCH   6   9
HETATM    9  C   UNL     1      39.565 -13.705  -0.919  1.00  0.00     0.034 A 
HETATM   10  C   UNL     1      38.833 -12.556  -1.249  1.00  0.00     0.029 A 
HETATM   11  C   UNL     1      37.912 -12.580  -2.303  1.00  0.00    -0.023 A 
HETATM   12  C   UNL     1      37.760 -13.766  -3.038  1.00  0.00     0.012 A 
HETATM   13  C   UNL     1      38.491 -14.913  -2.704  1.00  0.00     0.002 A 
HETATM   14  C   UNL     1      39.383 -14.889  -1.634  1.00  0.00     0.017 A 
BRANCH  11  15
HETATM   15  C   UNL     1      37.118 -11.396  -2.596  1.00  0.00    -0.002 A 
HETATM   16  C   UNL     1      35.898 -11.411  -3.243  1.00  0.00     0.153 A 
HETATM   17  O   UNL     1      35.379 -10.158  -3.329  1.00  0.00    -0.334 OA
HETATM   18  C   UNL     1      36.263  -9.324  -2.728  1.00  0.00     0.142 A 
HETATM   19  C   UNL     1      37.345 -10.031  -2.257  1.00  0.00     0.038 A 
ENDBRANCH  11  15
ENDBRANCH   6   9
ENDBRANCH   2   5
BRANCH   1  20
HETATM   20  C   UNL     1      43.189 -15.486   3.501  1.00  0.00     0.145 C 
BRANCH  20  21
HETATM   21  C   UNL     1      43.525 -16.773   4.183  1.00  0.00    -0.021 A 
HETATM   22  C   UNL     1      43.621 -18.108   3.654  1.00  0.00    -0.001 A 
HETATM   23  C   UNL     1      43.527 -18.688   2.370  1.00  0.00     0.014 A 
HETATM   24  C   UNL     1      43.830 -18.969   4.736  1.00  0.00     0.042 A 
HETATM   25  C   UNL     1      43.631 -20.077   2.218  1.00  0.00     0.001 A 
HETATM   26  C   UNL     1      43.825 -20.901   3.322  1.00  0.00     0.002 A 
HETATM   27  C   UNL     1      43.932 -20.359   4.604  1.00  0.00     0.030 A 
HETATM   28  N   UNL     1      43.902 -18.195   5.868  1.00  0.00    -0.365 N 
HETATM   29  H   UNL     1      44.050 -18.557   6.800  1.00  0.00     0.165 HD
HETATM   30  C   UNL     1      43.715 -16.880   5.551  1.00  0.00     0.097 A 
ENDBRANCH  20  21
ENDBRANCH   1  20
TORSDOF 5
ENDMDL
MODEL 3
REMARK VINA RESULT:      -8.8      5.308      9.240
REMARK  5 active torsions:
REMARK  status: ('A' for Active; 'I' for Inactive)
REMARK    1  A    between atoms: C_8  and  C_9 
REMARK    2  A    between atoms: C_9  and  C_10 
REMARK       I    between atoms: C_10  and  N_11 
REMARK    3  A    between atoms: N_11  and  N_12 
REMARK       I    between atoms: N_12  and  C_13 
REMARK    4  A    between atoms: C_13  and  C_14 
REMARK    5  A    between atoms: C_16  and  C_17 
ROOT
HETATM    1  C   UNL     1      40.297 -13.109   1.939  1.00  0.00     0.240 C 
HETATM    2  N   UNL     1      41.676 -13.226   1.886  1.00  0.00    -0.267 N 
HETATM    3  O   UNL     1      39.581 -13.911   2.537  1.00  0.00    -0.272 OA
HETATM    4  H   UNL     1      42.215 -12.766   1.153  1.00  0.00     0.190 HD
ENDROOT
BRANCH   2   5
HETATM    5  N   UNL     1      42.280 -14.323   2.498  1.00  0.00    -0.263 N 
HETATM    6  C   UNL     1      42.736 -14.190   3.792  1.00  0.00     0.270 C 
HETATM    7  O   UNL     1      42.725 -13.134   4.415  1.00  0.00    -0.266 OA
HETATM    8  H   UNL     1      42.531 -15.108   1.899  1.00  0.00     0.190 HD
BRANCH   6   9
HETATM    9  C   UNL     1      43.227 -15.440   4.416  1.00  0.00     0.034 A 
HETATM   10  C   UNL     1      43.308 -16.614   3.653  1.00  0.00     0.029 A 
HETATM   11  C   UNL     1      43.688 -17.822   4.248  1.00  0.00    -0.023 A 
HETATM   12  C   UNL     1      44.013 -17.828   5.614  1.00  0.00     0.012 A 
HETATM   13  C   UNL     1      43.928 -16.655   6.374  1.00  0.00     0.002 A 
HETATM   14  C   UNL     1      43.520 -15.463   5.780  1.00  0.00     0.017 A 
BRANCH  11  15
HETATM   15  C   UNL     1      43.710 -19.042   3.455  1.00  0.00    -0.002 A 
HETATM   16  C   UNL     1      44.024 -20.293   3.949  1.00  0.00     0.153 A 
HETATM   17  O   UNL     1      43.915 -21.239   2.980  1.00  0.00    -0.334 OA
HETATM   18  C   UNL     1      43.520 -20.601   1.851  1.00  0.00     0.142 A 
HETATM   19  C   UNL     1      43.376 -19.254   2.086  1.00  0.00     0.038 A 
ENDBRANCH  11  15
ENDBRANCH   6   9
ENDBRANCH   2   5
BRANCH   1  20
HETATM   20  C   UNL     1      39.785 -11.832   1.309  1.00  0.00     0.145 C 
BRANCH  20  21
HETATM   21  C   UNL     1      38.818 -11.976   0.178  1.00  0.00    -0.021 A 
HETATM   22  C   UNL     1      38.754 -12.958  -0.872  1.00  0.00    -0.001 A 
HETATM   23  C   UNL     1      39.466 -14.135  -1.189  1.00  0.00     0.014 A 
HETATM   24  C   UNL     1      37.740 -12.562  -1.749  1.00  0.00     0.042 A 
HETATM   25  C   UNL     1      39.156 -14.851  -2.353  1.00  0.00     0.001 A 
HETATM   26  C   UNL     1      38.149 -14.415  -3.209  1.00  0.00     0.002 A 
HETATM   27  C   UNL     1      37.419 -13.262  -2.919  1.00  0.00     0.030 A 
HETATM   28  N   UNL     1      37.182 -11.415  -1.240  1.00  0.00    -0.365 N 
HETATM   29  H   UNL     1      36.422 -10.908  -1.673  1.00  0.00     0.165 HD
HETATM   30  C   UNL     1      37.822 -11.051  -0.091  1.00  0.00     0.097 A 
ENDBRANCH  20  21
ENDBRANCH   1  20
TORSDOF 5
ENDMDL
MODEL 4
REMARK VINA RESULT:      -8.7      2.326     10.016
REMARK  5 active torsions:
REMARK  status: ('A' for Active; 'I' for Inactive)
REMARK    1  A    between atoms: C_8  and  C_9 
REMARK    2  A    between atoms: C_9  and  C_10 
REMARK       I    between atoms: C_10  and  N_11 
REMARK    3  A    between atoms: N_11  and  N_12 
REMARK       I    between atoms: N_12  and  C_13 
REMARK    4  A    between atoms: C_13  and  C_14 
REMARK    5  A    between atoms: C_16  and  C_17 
ROOT
HETATM    1  C   UNL     1      44.651 -10.905   8.476  1.00  0.00     0.240 C 
HETATM    2  N   UNL     1      43.485 -11.571   8.137  1.00  0.00    -0.267 N 
HETATM    3  O   UNL     1      45.593 -10.769   7.696  1.00  0.00    -0.272 OA
HETATM    4  H   UNL     1      42.867 -11.948   8.855  1.00  0.00     0.190 HD
ENDROOT
BRANCH   2   5
HETATM    5  N   UNL     1      43.387 -12.153   6.874  1.00  0.00    -0.263 N 
HETATM    6  C   UNL     1      43.325 -13.528   6.782  1.00  0.00     0.270 C 
HETATM    7  O   UNL     1      43.440 -14.282   7.742  1.00  0.00    -0.266 OA
HETATM    8  H   UNL     1      43.562 -11.551   6.071  1.00  0.00     0.190 HD
BRANCH   6   9
HETATM    9  C   UNL     1      43.072 -14.056   5.422  1.00  0.00     0.034 A 
HETATM   10  C   UNL     1      43.307 -15.410   5.148  1.00  0.00     0.029 A 
HETATM   11  C   UNL     1      43.155 -15.907   3.848  1.00  0.00    -0.023 A 
HETATM   12  C   UNL     1      42.736 -15.030   2.836  1.00  0.00     0.012 A 
HETATM   13  C   UNL     1      42.504 -13.677   3.112  1.00  0.00     0.002 A 
HETATM   14  C   UNL     1      42.687 -13.184   4.403  1.00  0.00     0.017 A 
BRANCH  11  15
HETATM   15  C   UNL     1      43.460 -17.302   3.568  1.00  0.00    -0.002 A 
HETATM   16  C   UNL     1      44.106 -18.154   4.443  1.00  0.00     0.153 A 
HETATM   17  O   UNL     1      44.205 -19.404   3.919  1.00  0.00    -0.334 OA
HETATM   18  C   UNL     1      43.613 -19.367   2.700  1.00  0.00     0.142 A 
HETATM   19  C   UNL     1      43.135 -18.105   2.437  1.00  0.00     0.038 A 
ENDBRANCH  11  15
ENDBRANCH   6   9
ENDBRANCH   2   5
BRANCH   1  20
HETATM   20  C   UNL     1      44.587 -10.253   9.840  1.00  0.00     0.145 C 
BRANCH  20  21
HETATM   21  C   UNL     1      43.978  -8.889   9.910  1.00  0.00    -0.021 A 
HETATM   22  C   UNL     1      43.470  -8.155  11.038  1.00  0.00    -0.001 A 
HETATM   23  C   UNL     1      43.418  -8.368  12.432  1.00  0.00     0.014 A 
HETATM   24  C   UNL     1      42.887  -6.984  10.542  1.00  0.00     0.042 A 
HETATM   25  C   UNL     1      42.787  -7.430  13.262  1.00  0.00     0.001 A 
HETATM   26  C   UNL     1      42.206  -6.284  12.728  1.00  0.00     0.002 A 
HETATM   27  C   UNL     1      42.249  -6.039  11.355  1.00  0.00     0.030 A 
HETATM   28  N   UNL     1      43.067  -6.981   9.180  1.00  0.00    -0.365 N 
HETATM   29  H   UNL     1      42.744  -6.250   8.562  1.00  0.00     0.165 HD
HETATM   30  C   UNL     1      43.713  -8.119   8.790  1.00  0.00     0.097 A 
ENDBRANCH  20  21
ENDBRANCH   1  20
TORSDOF 5
ENDMDL
MODEL 5
REMARK VINA RESULT:      -8.7      5.970      8.997
REMARK  5 active torsions:
REMARK  status: ('A' for Active; 'I' for Inactive)
REMARK    1  A    between atoms: C_8  and  C_9 
REMARK    2  A    between atoms: C_9  and  C_10 
REMARK       I    between atoms: C_10  and  N_11 
REMARK    3  A    between atoms: N_11  and  N_12 
REMARK       I    between atoms: N_12  and  C_13 
REMARK    4  A    between atoms: C_13  and  C_14 
REMARK    5  A    between atoms: C_16  and  C_17 
ROOT
HETATM    1  C   UNL     1      42.590 -14.973   3.145  1.00  0.00     0.240 C 
HETATM    2  N   UNL     1      41.298 -14.861   2.659  1.00  0.00    -0.267 N 
HETATM    3  O   UNL     1      43.578 -14.619   2.503  1.00  0.00    -0.272 OA
HETATM    4  H   UNL     1      40.542 -15.428   3.041  1.00  0.00     0.190 HD
ENDROOT
BRANCH   2   5
HETATM    5  N   UNL     1      41.106 -14.367   1.370  1.00  0.00    -0.263 N 
HETATM    6  C   UNL     1      40.204 -15.005   0.545  1.00  0.00     0.270 C 
HETATM    7  O   UNL     1      39.618 -16.040   0.845  1.00  0.00    -0.266 OA
HETATM    8  H   UNL     1      41.780 -13.682   1.030  1.00  0.00     0.190 HD
BRANCH   6   9
HETATM    9  C   UNL     1      39.950 -14.331  -0.749  1.00  0.00     0.034 A 
HETATM   10  C   UNL     1      40.439 -13.035  -0.965  1.00  0.00     0.029 A 
HETATM   11  C   UNL     1      40.136 -12.351  -2.148  1.00  0.00    -0.023 A 
HETATM   12  C   UNL     1      39.360 -13.000  -3.121  1.00  0.00     0.012 A 
HETATM   13  C   UNL     1      38.870 -14.293  -2.901  1.00  0.00     0.002 A 
HETATM   14  C   UNL     1      39.151 -14.955  -1.708  1.00  0.00     0.017 A 
BRANCH  11  15
HETATM   15  C   UNL     1      40.603 -10.986  -2.332  1.00  0.00    -0.002 A 
HETATM   16  C   UNL     1      41.370 -10.290  -1.419  1.00  0.00     0.153 A 
HETATM   17  O   UNL     1      41.687  -9.056  -1.890  1.00  0.00    -0.334 OA
HETATM   18  C   UNL     1      41.130  -8.951  -3.122  1.00  0.00     0.142 A 
HETATM   19  C   UNL     1      40.457 -10.107  -3.444  1.00  0.00     0.038 A 
ENDBRANCH  11  15
ENDBRANCH   6   9
ENDBRANCH   2   5
BRANCH   1  20
HETATM   20  C   UNL     1      42.645 -15.442   4.583  1.00  0.00     0.145 C 
BRANCH  20  21
HETATM   21  C   UNL     1      43.193 -16.811   4.827  1.00  0.00    -0.021 A 
HETATM   22  C   UNL     1      43.319 -17.935   3.937  1.00  0.00    -0.001 A 
HETATM   23  C   UNL     1      43.074 -18.161   2.566  1.00  0.00     0.014 A 
HETATM   24  C   UNL     1      43.769 -19.018   4.699  1.00  0.00     0.042 A 
HETATM   25  C   UNL     1      43.272 -19.436   2.018  1.00  0.00     0.001 A 
HETATM   26  C   UNL     1      43.707 -20.491   2.812  1.00  0.00     0.002 A 
HETATM   27  C   UNL     1      43.968 -20.300   4.170  1.00  0.00     0.030 A 
HETATM   28  N   UNL     1      43.952 -18.569   5.984  1.00  0.00    -0.365 N 
HETATM   29  H   UNL     1      44.275 -19.144   6.750  1.00  0.00     0.165 HD
HETATM   30  C   UNL     1      43.604 -17.252   6.075  1.00  0.00     0.097 A 
ENDBRANCH  20  21
ENDBRANCH   1  20
TORSDOF 5
ENDMDL
MODEL 6
REMARK VINA RESULT:      -8.7      1.559      2.013
REMARK  5 active torsions:
REMARK  status: ('A' for Active; 'I' for Inactive)
REMARK    1  A    between atoms: C_8  and  C_9 
REMARK    2  A    between atoms: C_9  and  C_10 
REMARK       I    between atoms: C_10  and  N_11 
REMARK    3  A    between atoms: N_11  and  N_12 
REMARK       I    between atoms: N_12  and  C_13 
REMARK    4  A    between atoms: C_13  and  C_14 
REMARK    5  A    between atoms: C_16  and  C_17 
ROOT
HETATM    1  C   UNL     1      41.252 -13.483   5.101  1.00  0.00     0.240 C 
HETATM    2  N   UNL     1      42.477 -12.893   4.841  1.00  0.00    -0.267 N 
HETATM    3  O   UNL     1      40.594 -13.240   6.112  1.00  0.00    -0.272 OA
HETATM    4  H   UNL     1      43.140 -13.320   4.195  1.00  0.00     0.190 HD
ENDROOT
BRANCH   2   5
HETATM    5  N   UNL     1      43.013 -12.016   5.783  1.00  0.00    -0.263 N 
HETATM    6  C   UNL     1      43.994 -12.479   6.634  1.00  0.00     0.270 C 
HETATM    7  O   UNL     1      44.366 -13.647   6.676  1.00  0.00    -0.266 OA
HETATM    8  H   UNL     1      42.522 -11.135   5.929  1.00  0.00     0.190 HD
BRANCH   6   9
HETATM    9  C   UNL     1      44.613 -11.449   7.499  1.00  0.00     0.034 A 
HETATM   10  C   UNL     1      44.013 -11.116   8.722  1.00  0.00     0.029 A 
HETATM   11  C   UNL     1      44.536 -10.085   9.511  1.00  0.00    -0.023 A 
HETATM   12  C   UNL     1      45.687  -9.416   9.068  1.00  0.00     0.012 A 
HETATM   13  C   UNL     1      46.283  -9.748   7.845  1.00  0.00     0.002 A 
HETATM   14  C   UNL     1      45.737 -10.755   7.051  1.00  0.00     0.017 A 
BRANCH  11  15
HETATM   15  C   UNL     1      43.868  -9.714  10.749  1.00  0.00    -0.002 A 
HETATM   16  C   UNL     1      43.400 -10.612  11.687  1.00  0.00     0.153 A 
HETATM   17  O   UNL     1      42.865  -9.965  12.755  1.00  0.00    -0.334 OA
HETATM   18  C   UNL     1      42.993  -8.637  12.514  1.00  0.00     0.142 A 
HETATM   19  C   UNL     1      43.604  -8.427  11.300  1.00  0.00     0.038 A 
ENDBRANCH  11  15
ENDBRANCH   6   9
ENDBRANCH   2   5
BRANCH   1  20
HETATM   20  C   UNL     1      40.753 -14.343   3.960  1.00  0.00     0.145 C 
BRANCH  20  21
HETATM   21  C   UNL     1      41.647 -15.455   3.510  1.00  0.00    -0.021 A 
HETATM   22  C   UNL     1      42.330 -16.466   4.273  1.00  0.00    -0.001 A 
HETATM   23  C   UNL     1      42.367 -16.842   5.633  1.00  0.00     0.014 A 
HETATM   24  C   UNL     1      43.142 -17.177   3.385  1.00  0.00     0.042 A 
HETATM   25  C   UNL     1      43.206 -17.884   6.050  1.00  0.00     0.001 A 
HETATM   26  C   UNL     1      44.011 -18.558   5.137  1.00  0.00     0.002 A 
HETATM   27  C   UNL     1      43.990 -18.218   3.784  1.00  0.00     0.030 A 
HETATM   28  N   UNL     1      42.935 -16.656   2.131  1.00  0.00    -0.365 N 
HETATM   29  H   UNL     1      43.395 -16.982   1.293  1.00  0.00     0.165 HD
HETATM   30  C   UNL     1      42.047 -15.621   2.194  1.00  0.00     0.097 A 
ENDBRANCH  20  21
ENDBRANCH   1  20
TORSDOF 5
ENDMDL
MODEL 7
REMARK VINA RESULT:      -8.6      2.017      2.693
REMARK  5 active torsions:
REMARK  status: ('A' for Active; 'I' for Inactive)
REMARK    1  A    between atoms: C_8  and  C_9 
REMARK    2  A    between atoms: C_9  and  C_10 
REMARK       I    between atoms: C_10  and  N_11 
REMARK    3  A    between atoms: N_11  and  N_12 
REMARK       I    between atoms: N_12  and  C_13 
REMARK    4  A    between atoms: C_13  and  C_14 
REMARK    5  A    between atoms: C_16  and  C_17 
ROOT
HETATM    1  C   UNL     1      42.840 -14.170   6.046  1.00  0.00     0.240 C 
HETATM    2  N   UNL     1      43.946 -13.601   6.655  1.00  0.00    -0.267 N 
HETATM    3  O   UNL     1      41.696 -13.750   6.214  1.00  0.00    -0.272 OA
HETATM    4  H   UNL     1      44.813 -14.126   6.767  1.00  0.00     0.190 HD
ENDROOT
BRANCH   2   5
HETATM    5  N   UNL     1      43.755 -12.534   7.531  1.00  0.00    -0.263 N 
HETATM    6  C   UNL     1      44.658 -11.492   7.512  1.00  0.00     0.270 C 
HETATM    7  O   UNL     1      45.678 -11.485   6.830  1.00  0.00    -0.266 OA
HETATM    8  H   UNL     1      43.072 -12.662   8.276  1.00  0.00     0.190 HD
BRANCH   6   9
HETATM    9  C   UNL     1      44.301 -10.335   8.364  1.00  0.00     0.034 A 
HETATM   10  C   UNL     1      43.421 -10.510   9.441  1.00  0.00     0.029 A 
HETATM   11  C   UNL     1      43.006  -9.412  10.204  1.00  0.00    -0.023 A 
HETATM   12  C   UNL     1      43.511  -8.142   9.886  1.00  0.00     0.012 A 
HETATM   13  C   UNL     1      44.388  -7.969   8.808  1.00  0.00     0.002 A 
HETATM   14  C   UNL     1      44.772  -9.063   8.035  1.00  0.00     0.017 A 
BRANCH  11  15
HETATM   15  C   UNL     1      42.047  -9.602  11.281  1.00  0.00    -0.002 A 
HETATM   16  C   UNL     1      42.372 -10.034  12.552  1.00  0.00     0.153 A 
HETATM   17  O   UNL     1      41.271 -10.070  13.348  1.00  0.00    -0.334 OA
HETATM   18  C   UNL     1      40.226  -9.652  12.593  1.00  0.00     0.142 A 
HETATM   19  C   UNL     1      40.645  -9.349  11.319  1.00  0.00     0.038 A 
ENDBRANCH  11  15
ENDBRANCH   6   9
ENDBRANCH   2   5
BRANCH   1  20
HETATM   20  C   UNL     1      43.201 -15.259   5.060  1.00  0.00     0.145 C 
BRANCH  20  21
HETATM   21  C   UNL     1      43.383 -16.637   5.611  1.00  0.00    -0.021 A 
HETATM   22  C   UNL     1      43.624 -17.884   4.935  1.00  0.00    -0.001 A 
HETATM   23  C   UNL     1      43.851 -18.273   3.597  1.00  0.00     0.014 A 
HETATM   24  C   UNL     1      43.582 -18.894   5.901  1.00  0.00     0.042 A 
HETATM   25  C   UNL     1      44.010 -19.628   3.277  1.00  0.00     0.001 A 
HETATM   26  C   UNL     1      43.946 -20.605   4.266  1.00  0.00     0.002 A 
HETATM   27  C   UNL     1      43.734 -20.254   5.600  1.00  0.00     0.030 A 
HETATM   28  N   UNL     1      43.367 -18.291   7.116  1.00  0.00    -0.365 N 
HETATM   29  H   UNL     1      43.292 -18.785   7.995  1.00  0.00     0.165 HD
HETATM   30  C   UNL     1      43.241 -16.942   6.955  1.00  0.00     0.097 A 
ENDBRANCH  20  21
ENDBRANCH   1  20
TORSDOF 5
ENDMDL
MODEL 8
REMARK VINA RESULT:      -8.5      2.587      9.418
REMARK  5 active torsions:
REMARK  status: ('A' for Active; 'I' for Inactive)
REMARK    1  A    between atoms: C_8  and  C_9 
REMARK    2  A    between atoms: C_9  and  C_10 
REMARK       I    between atoms: C_10  and  N_11 
REMARK    3  A    between atoms: N_11  and  N_12 
REMARK       I    between atoms: N_12  and  C_13 
REMARK    4  A    between atoms: C_13  and  C_14 
REMARK    5  A    between atoms: C_16  and  C_17 
ROOT
HETATM    1  C   UNL     1      41.228 -11.016   5.637  1.00  0.00     0.240 C 
HETATM    2  N   UNL     1      41.592 -12.323   5.914  1.00  0.00    -0.267 N 
HETATM    3  O   UNL     1      41.109 -10.585   4.491  1.00  0.00    -0.272 OA
HETATM    4  H   UNL     1      41.989 -12.578   6.818  1.00  0.00     0.190 HD
ENDROOT
BRANCH   2   5
HETATM    5  N   UNL     1      41.879 -13.179   4.852  1.00  0.00    -0.263 N 
HETATM    6  C   UNL     1      42.818 -14.172   5.039  1.00  0.00     0.270 C 
HETATM    7  O   UNL     1      43.487 -14.296   6.059  1.00  0.00    -0.266 OA
HETATM    8  H   UNL     1      41.529 -12.913   3.933  1.00  0.00     0.190 HD
BRANCH   6   9
HETATM    9  C   UNL     1      42.954 -15.127   3.915  1.00  0.00     0.034 A 
HETATM   10  C   UNL     1      43.194 -16.482   4.180  1.00  0.00     0.029 A 
HETATM   11  C   UNL     1      43.410 -17.383   3.131  1.00  0.00    -0.023 A 
HETATM   12  C   UNL     1      43.354 -16.907   1.812  1.00  0.00     0.012 A 
HETATM   13  C   UNL     1      43.117 -15.552   1.550  1.00  0.00     0.002 A 
HETATM   14  C   UNL     1      42.933 -14.656   2.602  1.00  0.00     0.017 A 
BRANCH  11  15
HETATM   15  C   UNL     1      43.715 -18.775   3.425  1.00  0.00    -0.002 A 
HETATM   16  C   UNL     1      44.180 -19.235   4.642  1.00  0.00     0.153 A 
HETATM   17  O   UNL     1      44.328 -20.585   4.626  1.00  0.00    -0.334 OA
HETATM   18  C   UNL     1      43.950 -21.008   3.394  1.00  0.00     0.142 A 
HETATM   19  C   UNL     1      43.561 -19.940   2.619  1.00  0.00     0.038 A 
ENDBRANCH  11  15
ENDBRANCH   6   9
ENDBRANCH   2   5
BRANCH   1  20
HETATM   20  C   UNL     1      40.865 -10.226   6.875  1.00  0.00     0.145 C 
BRANCH  20  21
HETATM   21  C   UNL     1      41.898  -9.284   7.404  1.00  0.00    -0.021 A 
HETATM   22  C   UNL     1      43.256  -9.528   7.813  1.00  0.00    -0.001 A 
HETATM   23  C   UNL     1      44.121 -10.643   7.806  1.00  0.00     0.014 A 
HETATM   24  C   UNL     1      43.746  -8.336   8.356  1.00  0.00     0.042 A 
HETATM   25  C   UNL     1      45.412 -10.534   8.341  1.00  0.00     0.001 A 
HETATM   26  C   UNL     1      45.857  -9.333   8.885  1.00  0.00     0.002 A 
HETATM   27  C   UNL     1      45.031  -8.209   8.899  1.00  0.00     0.030 A 
HETATM   28  N   UNL     1      42.751  -7.395   8.246  1.00  0.00    -0.365 N 
HETATM   29  H   UNL     1      42.832  -6.438   8.559  1.00  0.00     0.165 HD
HETATM   30  C   UNL     1      41.639  -7.952   7.684  1.00  0.00     0.097 A 
ENDBRANCH  20  21
ENDBRANCH   1  20
TORSDOF 5
ENDMDL
MODEL 9
REMARK VINA RESULT:      -8.4     17.147     18.764
REMARK  5 active torsions:
REMARK  status: ('A' for Active; 'I' for Inactive)
REMARK    1  A    between atoms: C_8  and  C_9 
REMARK    2  A    between atoms: C_9  and  C_10 
REMARK       I    between atoms: C_10  and  N_11 
REMARK    3  A    between atoms: N_11  and  N_12 
REMARK       I    between atoms: N_12  and  C_13 
REMARK    4  A    between atoms: C_13  and  C_14 
REMARK    5  A    between atoms: C_16  and  C_17 
ROOT
HETATM    1  C   UNL     1      45.686 -29.237   1.847  1.00  0.00     0.240 C 
HETATM    2  N   UNL     1      44.577 -28.629   2.409  1.00  0.00    -0.267 N 
HETATM    3  O   UNL     1      45.826 -30.459   1.802  1.00  0.00    -0.272 OA
HETATM    4  H   UNL     1      44.611 -27.659   2.723  1.00  0.00     0.190 HD
ENDROOT
BRANCH   2   5
HETATM    5  N   UNL     1      43.594 -29.429   2.990  1.00  0.00    -0.263 N 
HETATM    6  C   UNL     1      42.388 -29.573   2.338  1.00  0.00     0.270 C 
HETATM    7  O   UNL     1      42.088 -28.968   1.315  1.00  0.00    -0.266 OA
HETATM    8  H   UNL     1      43.738 -29.711   3.958  1.00  0.00     0.190 HD
BRANCH   6   9
HETATM    9  C   UNL     1      41.459 -30.554   2.945  1.00  0.00     0.034 A 
HETATM   10  C   UNL     1      41.439 -30.724   4.336  1.00  0.00     0.029 A 
HETATM   11  C   UNL     1      40.630 -31.707   4.919  1.00  0.00    -0.023 A 
HETATM   12  C   UNL     1      39.821 -32.495   4.086  1.00  0.00     0.012 A 
HETATM   13  C   UNL     1      39.846 -32.325   2.696  1.00  0.00     0.002 A 
HETATM   14  C   UNL     1      40.677 -31.365   2.122  1.00  0.00     0.017 A 
BRANCH  11  15
HETATM   15  C   UNL     1      40.664 -31.908   6.360  1.00  0.00    -0.002 A 
HETATM   16  C   UNL     1      41.736 -31.590   7.170  1.00  0.00     0.153 A 
HETATM   17  O   UNL     1      41.454 -31.851   8.474  1.00  0.00    -0.334 OA
HETATM   18  C   UNL     1      40.187 -32.334   8.512  1.00  0.00     0.142 A 
HETATM   19  C   UNL     1      39.655 -32.386   7.245  1.00  0.00     0.038 A 
ENDBRANCH  11  15
ENDBRANCH   6   9
ENDBRANCH   2   5
BRANCH   1  20
HETATM   20  C   UNL     1      46.627 -28.257   1.181  1.00  0.00     0.145 C 
BRANCH  20  21
HETATM   21  C   UNL     1      46.697 -28.295  -0.312  1.00  0.00    -0.021 A 
HETATM   22  C   UNL     1      45.695 -28.651  -1.281  1.00  0.00    -0.001 A 
HETATM   23  C   UNL     1      44.328 -29.002  -1.229  1.00  0.00     0.014 A 
HETATM   24  C   UNL     1      46.313 -28.650  -2.536  1.00  0.00     0.042 A 
HETATM   25  C   UNL     1      43.646 -29.343  -2.405  1.00  0.00     0.001 A 
HETATM   26  C   UNL     1      44.300 -29.344  -3.632  1.00  0.00     0.002 A 
HETATM   27  C   UNL     1      45.648 -28.993  -3.720  1.00  0.00     0.030 A 
HETATM   28  N   UNL     1      47.619 -28.270  -2.350  1.00  0.00    -0.365 N 
HETATM   29  H   UNL     1      48.300 -28.183  -3.091  1.00  0.00     0.165 HD
HETATM   30  C   UNL     1      47.863 -28.061  -1.023  1.00  0.00     0.097 A 
ENDBRANCH  20  21
ENDBRANCH   1  20
TORSDOF 5
ENDMDL
MODEL 10
REMARK VINA RESULT:      -8.4      1.562      2.598
REMARK  5 active torsions:
REMARK  status: ('A' for Active; 'I' for Inactive)
REMARK    1  A    between atoms: C_8  and  C_9 
REMARK    2  A    between atoms: C_9  and  C_10 
REMARK       I    between atoms: C_10  and  N_11 
REMARK    3  A    between atoms: N_11  and  N_12 
REMARK       I    between atoms: N_12  and  C_13 
REMARK    4  A    between atoms: C_13  and  C_14 
REMARK    5  A    between atoms: C_16  and  C_17 
ROOT
HETATM    1  C   UNL     1      42.238 -15.278   6.995  1.00  0.00     0.240 C 
HETATM    2  N   UNL     1      42.413 -13.951   6.642  1.00  0.00    -0.267 N 
HETATM    3  O   UNL     1      42.722 -15.768   8.015  1.00  0.00    -0.272 OA
HETATM    4  H   UNL     1      42.291 -13.643   5.678  1.00  0.00     0.190 HD
ENDROOT
BRANCH   2   5
HETATM    5  N   UNL     1      43.209 -13.141   7.451  1.00  0.00    -0.263 N 
HETATM    6  C   UNL     1      43.561 -11.890   6.991  1.00  0.00     0.270 C 
HETATM    7  O   UNL     1      43.290 -11.473   5.869  1.00  0.00    -0.266 OA
HETATM    8  H   UNL     1      43.654 -13.582   8.254  1.00  0.00     0.190 HD
BRANCH   6   9
HETATM    9  C   UNL     1      44.278 -11.040   7.968  1.00  0.00     0.034 A 
HETATM   10  C   UNL     1      43.673 -10.729   9.194  1.00  0.00     0.029 A 
HETATM   11  C   UNL     1      44.300  -9.858  10.094  1.00  0.00    -0.023 A 
HETATM   12  C   UNL     1      45.555  -9.328   9.755  1.00  0.00     0.012 A 
HETATM   13  C   UNL     1      46.155  -9.638   8.528  1.00  0.00     0.002 A 
HETATM   14  C   UNL     1      45.510 -10.482   7.626  1.00  0.00     0.017 A 
BRANCH  11  15
HETATM   15  C   UNL     1      43.632  -9.500  11.336  1.00  0.00    -0.002 A 
HETATM   16  C   UNL     1      43.012 -10.400  12.179  1.00  0.00     0.153 A 
HETATM   17  O   UNL     1      42.519  -9.774  13.280  1.00  0.00    -0.334 OA
HETATM   18  C   UNL     1      42.829  -8.460  13.156  1.00  0.00     0.142 A 
HETATM   19  C   UNL     1      43.514  -8.237  11.985  1.00  0.00     0.038 A 
ENDBRANCH  11  15
ENDBRANCH   6   9
ENDBRANCH   2   5
BRANCH   1  20
HETATM   20  C   UNL     1      41.286 -16.016   6.078  1.00  0.00     0.145 C 
BRANCH  20  21
HETATM   21  C   UNL     1      41.646 -16.064   4.628  1.00  0.00    -0.021 A 
HETATM   22  C   UNL     1      41.110 -15.331   3.512  1.00  0.00    -0.001 A 
HETATM   23  C   UNL     1      40.164 -14.295   3.353  1.00  0.00     0.014 A 
HETATM   24  C   UNL     1      41.700 -15.848   2.354  1.00  0.00     0.042 A 
HETATM   25  C   UNL     1      39.839 -13.832   2.071  1.00  0.00     0.001 A 
HETATM   26  C   UNL     1      40.437 -14.383   0.942  1.00  0.00     0.002 A 
HETATM   27  C   UNL     1      41.383 -15.402   1.065  1.00  0.00     0.030 A 
HETATM   28  N   UNL     1      42.586 -16.822   2.744  1.00  0.00    -0.365 N 
HETATM   29  H   UNL     1      43.154 -17.366   2.110  1.00  0.00     0.165 HD
HETATM   30  C   UNL     1      42.558 -16.965   4.102  1.00  0.00     0.097 A 
ENDBRANCH  20  21
ENDBRANCH   1  20
TORSDOF 5
ENDMDL
