MODEL 1
REMARK VINA RESULT:      -8.5      0.000      0.000
REMARK  7 active torsions:
REMARK  status: ('A' for Active; 'I' for Inactive)
REMARK    1  A    between atoms: O_2  and  C_3 
REMARK    2  A    between atoms: C_6  and  C_7 
REMARK    3  A    between atoms: C_7  and  N_8 
REMARK    4  A    between atoms: C_7  and  C_23 
REMARK       I    between atoms: N_8  and  C_9 
REMARK    5  A    between atoms: C_9  and  C_10 
REMARK    6  A    between atoms: C_10  and  S_11 
REMARK    7  A    between atoms: S_11  and  C_12 
ROOT
HETATM    1  N   UNL     1      43.243 -16.725   5.165  1.00  0.00    -0.348 N 
HETATM    2  C   UNL     1      44.261 -16.515   6.072  1.00  0.00     0.228 C 
HETATM    3  O   UNL     1      45.442 -16.418   5.756  1.00  0.00    -0.273 OA
HETATM    4  H   UNL     1      42.321 -16.952   5.510  1.00  0.00     0.163 HD
ENDROOT
BRANCH   1   5
HETATM    5  C   UNL     1      43.506 -16.949   3.753  1.00  0.00     0.151 C 
BRANCH   5   6
HETATM    6  C   UNL     1      42.480 -16.292   2.835  1.00  0.00    -0.031 A 
HETATM    7  C   UNL     1      42.932 -15.515   1.755  1.00  0.00     0.012 A 
HETATM    8  C   UNL     1      42.026 -14.949   0.854  1.00  0.00     0.037 A 
HETATM    9  C   UNL     1      40.655 -15.158   1.000  1.00  0.00     0.068 A 
HETATM   10  C   UNL     1      40.191 -15.912   2.078  1.00  0.00     0.037 A 
HETATM   11  C   UNL     1      41.097 -16.474   2.987  1.00  0.00     0.012 A 
BRANCH   9  12
HETATM   12  O   UNL     1      39.880 -14.571   0.038  1.00  0.00    -0.356 OA
HETATM   13  C   UNL     1      40.418 -13.413  -0.589  1.00  0.00     0.210 C 
ENDBRANCH   9  12
ENDBRANCH   5   6
BRANCH   5  14
HETATM   14  C   UNL     1      43.646 -18.446   3.495  1.00  0.00    -0.031 A 
HETATM   15  C   UNL     1      44.010 -19.306   4.543  1.00  0.00     0.009 A 
HETATM   16  C   UNL     1      44.136 -20.680   4.326  1.00  0.00     0.001 A 
HETATM   17  C   UNL     1      43.893 -21.214   3.063  1.00  0.00     0.000 A 
HETATM   18  C   UNL     1      43.521 -20.377   2.014  1.00  0.00     0.001 A 
HETATM   19  C   UNL     1      43.397 -19.003   2.227  1.00  0.00     0.009 A 
ENDBRANCH   5  14
ENDBRANCH   1   5
BRANCH   2  20
HETATM   20  C   UNL     1      43.794 -16.446   7.514  1.00  0.00     0.185 C 
BRANCH  20  21
HETATM   21  S   UNL     1      42.374 -15.313   7.605  1.00  0.00    -0.081 SA
BRANCH  21  22
HETATM   22  C   UNL     1      43.073 -13.882   6.936  1.00  0.00     0.192 A 
HETATM   23  N   UNL     1      42.586 -13.238   5.828  1.00  0.00    -0.311 N 
HETATM   24  C   UNL     1      43.486 -12.227   5.573  1.00  0.00     0.130 A 
HETATM   25  C   UNL     1      41.409 -13.601   5.064  1.00  0.00     0.133 C 
HETATM   26  C   UNL     1      43.446 -11.281   4.422  1.00  0.00     0.081 C 
HETATM   27  N   UNL     1      44.414 -12.238   6.511  1.00  0.00    -0.134 NA
HETATM   28  C   UNL     1      43.021 -11.948   3.119  1.00  0.00     0.008 C 
HETATM   29  C   UNL     1      41.508 -12.115   2.981  1.00  0.00     0.002 C 
HETATM   30  C   UNL     1      40.762 -12.473   4.267  1.00  0.00     0.020 C 
HETATM   31  N   UNL     1      44.155 -13.280   7.363  1.00  0.00    -0.123 NA
ENDBRANCH  21  22
ENDBRANCH  20  21
ENDBRANCH   2  20
TORSDOF 7
ENDMDL
MODEL 2
REMARK VINA RESULT:      -8.3      2.327      6.030
REMARK  7 active torsions:
REMARK  status: ('A' for Active; 'I' for Inactive)
REMARK    1  A    between atoms: O_2  and  C_3 
REMARK    2  A    between atoms: C_6  and  C_7 
REMARK    3  A    between atoms: C_7  and  N_8 
REMARK    4  A    between atoms: C_7  and  C_23 
REMARK       I    between atoms: N_8  and  C_9 
REMARK    5  A    between atoms: C_9  and  C_10 
REMARK    6  A    between atoms: C_10  and  S_11 
REMARK    7  A    between atoms: S_11  and  C_12 
ROOT
HETATM    1  N   UNL     1      40.844 -12.507   1.873  1.00  0.00    -0.348 N 
HETATM    2  C   UNL     1      39.926 -11.696   2.507  1.00  0.00     0.228 C 
HETATM    3  O   UNL     1      38.731 -11.963   2.592  1.00  0.00    -0.273 OA
HETATM    4  H   UNL     1      41.775 -12.151   1.705  1.00  0.00     0.163 HD
ENDROOT
BRANCH   1   5
HETATM    5  C   UNL     1      40.446 -13.710   1.161  1.00  0.00     0.151 C 
BRANCH   5   6
HETATM    6  C   UNL     1      41.317 -14.920   1.483  1.00  0.00    -0.031 A 
HETATM    7  C   UNL     1      42.714 -14.777   1.461  1.00  0.00     0.012 A 
HETATM    8  C   UNL     1      43.546 -15.844   1.811  1.00  0.00     0.037 A 
HETATM    9  C   UNL     1      43.006 -17.067   2.206  1.00  0.00     0.068 A 
HETATM   10  C   UNL     1      41.621 -17.229   2.215  1.00  0.00     0.037 A 
HETATM   11  C   UNL     1      40.784 -16.163   1.857  1.00  0.00     0.012 A 
BRANCH   9  12
HETATM   12  O   UNL     1      43.927 -18.018   2.547  1.00  0.00    -0.356 OA
HETATM   13  C   UNL     1      43.488 -19.370   2.507  1.00  0.00     0.210 C 
ENDBRANCH   9  12
ENDBRANCH   5   6
BRANCH   5  14
HETATM   14  C   UNL     1      40.384 -13.416  -0.335  1.00  0.00    -0.031 A 
HETATM   15  C   UNL     1      40.992 -12.257  -0.846  1.00  0.00     0.009 A 
HETATM   16  C   UNL     1      40.951 -11.976  -2.213  1.00  0.00     0.001 A 
HETATM   17  C   UNL     1      40.311 -12.850  -3.089  1.00  0.00     0.000 A 
HETATM   18  C   UNL     1      39.711 -14.008  -2.600  1.00  0.00     0.001 A 
HETATM   19  C   UNL     1      39.749 -14.291  -1.234  1.00  0.00     0.009 A 
ENDBRANCH   5  14
ENDBRANCH   1   5
BRANCH   2  20
HETATM   20  C   UNL     1      40.518 -10.418   3.068  1.00  0.00     0.185 C 
BRANCH  20  21
HETATM   21  S   UNL     1      41.819 -10.861   4.260  1.00  0.00    -0.081 SA
BRANCH  21  22
HETATM   22  C   UNL     1      40.960 -11.977   5.260  1.00  0.00     0.192 A 
HETATM   23  N   UNL     1      41.358 -13.269   5.484  1.00  0.00    -0.311 N 
HETATM   24  C   UNL     1      40.350 -13.834   6.233  1.00  0.00     0.130 A 
HETATM   25  C   UNL     1      42.556 -13.905   4.974  1.00  0.00     0.133 C 
HETATM   26  C   UNL     1      40.270 -15.255   6.676  1.00  0.00     0.081 C 
HETATM   27  N   UNL     1      39.441 -12.911   6.487  1.00  0.00    -0.134 NA
HETATM   28  C   UNL     1      40.746 -16.236   5.611  1.00  0.00     0.008 C 
HETATM   29  C   UNL     1      42.267 -16.383   5.551  1.00  0.00     0.002 C 
HETATM   30  C   UNL     1      43.065 -15.099   5.775  1.00  0.00     0.020 C 
HETATM   31  N   UNL     1      39.824 -11.747   5.872  1.00  0.00    -0.123 NA
ENDBRANCH  21  22
ENDBRANCH  20  21
ENDBRANCH   2  20
TORSDOF 7
ENDMDL
MODEL 3
REMARK VINA RESULT:      -8.0      2.731      4.885
REMARK  7 active torsions:
REMARK  status: ('A' for Active; 'I' for Inactive)
REMARK    1  A    between atoms: O_2  and  C_3 
REMARK    2  A    between atoms: C_6  and  C_7 
REMARK    3  A    between atoms: C_7  and  N_8 
REMARK    4  A    between atoms: C_7  and  C_23 
REMARK       I    between atoms: N_8  and  C_9 
REMARK    5  A    between atoms: C_9  and  C_10 
REMARK    6  A    between atoms: C_10  and  S_11 
REMARK    7  A    between atoms: S_11  and  C_12 
ROOT
HETATM    1  N   UNL     1      41.702 -15.281   2.486  1.00  0.00    -0.348 N 
HETATM    2  C   UNL     1      40.479 -15.208   1.851  1.00  0.00     0.228 C 
HETATM    3  O   UNL     1      39.445 -15.674   2.317  1.00  0.00    -0.273 OA
HETATM    4  H   UNL     1      42.533 -15.017   1.975  1.00  0.00     0.163 HD
ENDROOT
BRANCH   1   5
HETATM    5  C   UNL     1      41.880 -16.016   3.727  1.00  0.00     0.151 C 
BRANCH   5   6
HETATM    6  C   UNL     1      42.466 -15.168   4.852  1.00  0.00    -0.031 A 
HETATM    7  C   UNL     1      43.137 -13.977   4.529  1.00  0.00     0.012 A 
HETATM    8  C   UNL     1      43.631 -13.141   5.533  1.00  0.00     0.037 A 
HETATM    9  C   UNL     1      43.454 -13.464   6.879  1.00  0.00     0.068 A 
HETATM   10  C   UNL     1      42.805 -14.652   7.214  1.00  0.00     0.037 A 
HETATM   11  C   UNL     1      42.314 -15.496   6.209  1.00  0.00     0.012 A 
BRANCH   9  12
HETATM   12  O   UNL     1      43.962 -12.550   7.759  1.00  0.00    -0.356 OA
HETATM   13  C   UNL     1      44.700 -11.471   7.198  1.00  0.00     0.210 C 
ENDBRANCH   9  12
ENDBRANCH   5   6
BRANCH   5  14
HETATM   14  C   UNL     1      42.700 -17.274   3.458  1.00  0.00    -0.031 A 
HETATM   15  C   UNL     1      43.695 -17.668   4.366  1.00  0.00     0.009 A 
HETATM   16  C   UNL     1      44.451 -18.821   4.140  1.00  0.00     0.001 A 
HETATM   17  C   UNL     1      44.218 -19.599   3.007  1.00  0.00     0.000 A 
HETATM   18  C   UNL     1      43.228 -19.227   2.101  1.00  0.00     0.001 A 
HETATM   19  C   UNL     1      42.473 -18.075   2.324  1.00  0.00     0.009 A 
ENDBRANCH   5  14
ENDBRANCH   1   5
BRANCH   2  20
HETATM   20  C   UNL     1      40.529 -14.520   0.500  1.00  0.00     0.185 C 
BRANCH  20  21
HETATM   21  S   UNL     1      39.593 -12.964   0.612  1.00  0.00    -0.081 SA
BRANCH  21  22
HETATM   22  C   UNL     1      40.674 -12.017   1.569  1.00  0.00     0.192 A 
HETATM   23  N   UNL     1      40.527 -11.813   2.916  1.00  0.00    -0.311 N 
HETATM   24  C   UNL     1      41.522 -10.925   3.259  1.00  0.00     0.130 A 
HETATM   25  C   UNL     1      39.496 -12.372   3.767  1.00  0.00     0.133 C 
HETATM   26  C   UNL     1      41.744 -10.326   4.606  1.00  0.00     0.081 C 
HETATM   27  N   UNL     1      42.249 -10.668   2.188  1.00  0.00    -0.134 NA
HETATM   28  C   UNL     1      40.445  -9.959   5.314  1.00  0.00     0.008 C 
HETATM   29  C   UNL     1      39.766 -11.145   5.999  1.00  0.00     0.002 C 
HETATM   30  C   UNL     1      39.843 -12.475   5.249  1.00  0.00     0.020 C 
HETATM   31  N   UNL     1      41.713 -11.351   1.128  1.00  0.00    -0.123 NA
ENDBRANCH  21  22
ENDBRANCH  20  21
ENDBRANCH   2  20
TORSDOF 7
ENDMDL
MODEL 4
REMARK VINA RESULT:      -8.0      3.406      5.808
REMARK  7 active torsions:
REMARK  status: ('A' for Active; 'I' for Inactive)
REMARK    1  A    between atoms: O_2  and  C_3 
REMARK    2  A    between atoms: C_6  and  C_7 
REMARK    3  A    between atoms: C_7  and  N_8 
REMARK    4  A    between atoms: C_7  and  C_23 
REMARK       I    between atoms: N_8  and  C_9 
REMARK    5  A    between atoms: C_9  and  C_10 
REMARK    6  A    between atoms: C_10  and  S_11 
REMARK    7  A    between atoms: S_11  and  C_12 
ROOT
HETATM    1  N   UNL     1      43.017 -13.939   4.523  1.00  0.00    -0.348 N 
HETATM    2  C   UNL     1      43.162 -13.313   5.744  1.00  0.00     0.228 C 
HETATM    3  O   UNL     1      42.593 -13.681   6.766  1.00  0.00    -0.273 OA
HETATM    4  H   UNL     1      43.389 -13.490   3.697  1.00  0.00     0.163 HD
ENDROOT
BRANCH   1   5
HETATM    5  C   UNL     1      42.086 -15.038   4.329  1.00  0.00     0.151 C 
BRANCH   5   6
HETATM    6  C   UNL     1      42.715 -16.410   4.554  1.00  0.00    -0.031 A 
HETATM    7  C   UNL     1      43.371 -17.041   3.485  1.00  0.00     0.012 A 
HETATM    8  C   UNL     1      44.015 -18.268   3.665  1.00  0.00     0.037 A 
HETATM    9  C   UNL     1      44.033 -18.883   4.917  1.00  0.00     0.068 A 
HETATM   10  C   UNL     1      43.371 -18.276   5.984  1.00  0.00     0.037 A 
HETATM   11  C   UNL     1      42.718 -17.050   5.803  1.00  0.00     0.012 A 
BRANCH   9  12
HETATM   12  O   UNL     1      44.718 -20.065   4.965  1.00  0.00    -0.356 OA
HETATM   13  C   UNL     1      43.949 -21.234   5.224  1.00  0.00     0.210 C 
ENDBRANCH   9  12
ENDBRANCH   5   6
BRANCH   5  14
HETATM   14  C   UNL     1      41.434 -14.914   2.955  1.00  0.00    -0.031 A 
HETATM   15  C   UNL     1      41.855 -13.908   2.070  1.00  0.00     0.009 A 
HETATM   16  C   UNL     1      41.274 -13.784   0.806  1.00  0.00     0.001 A 
HETATM   17  C   UNL     1      40.271 -14.665   0.407  1.00  0.00     0.000 A 
HETATM   18  C   UNL     1      39.848 -15.673   1.269  1.00  0.00     0.001 A 
HETATM   19  C   UNL     1      40.426 -15.799   2.533  1.00  0.00     0.009 A 
ENDBRANCH   5  14
ENDBRANCH   1   5
BRANCH   2  20
HETATM   20  C   UNL     1      44.072 -12.100   5.708  1.00  0.00     0.185 C 
BRANCH  20  21
HETATM   21  S   UNL     1      43.160 -10.677   6.379  1.00  0.00    -0.081 SA
BRANCH  21  22
HETATM   22  C   UNL     1      43.792 -10.629   7.986  1.00  0.00     0.192 A 
HETATM   23  N   UNL     1      43.180  -9.988   9.031  1.00  0.00    -0.311 N 
HETATM   24  C   UNL     1      44.057 -10.099  10.087  1.00  0.00     0.130 A 
HETATM   25  C   UNL     1      41.910  -9.291   8.994  1.00  0.00     0.133 C 
HETATM   26  C   UNL     1      43.887  -9.498  11.441  1.00  0.00     0.081 C 
HETATM   27  N   UNL     1      45.096 -10.815   9.702  1.00  0.00    -0.134 NA
HETATM   28  C   UNL     1      43.290  -8.097  11.398  1.00  0.00     0.008 C 
HETATM   29  C   UNL     1      41.769  -8.085  11.248  1.00  0.00     0.002 C 
HETATM   30  C   UNL     1      41.186  -9.159  10.330  1.00  0.00     0.020 C 
HETATM   31  N   UNL     1      44.930 -11.144   8.383  1.00  0.00    -0.123 NA
ENDBRANCH  21  22
ENDBRANCH  20  21
ENDBRANCH   2  20
TORSDOF 7
ENDMDL
MODEL 5
REMARK VINA RESULT:      -7.9      2.658      5.898
REMARK  7 active torsions:
REMARK  status: ('A' for Active; 'I' for Inactive)
REMARK    1  A    between atoms: O_2  and  C_3 
REMARK    2  A    between atoms: C_6  and  C_7 
REMARK    3  A    between atoms: C_7  and  N_8 
REMARK    4  A    between atoms: C_7  and  C_23 
REMARK       I    between atoms: N_8  and  C_9 
REMARK    5  A    between atoms: C_9  and  C_10 
REMARK    6  A    between atoms: C_10  and  S_11 
REMARK    7  A    between atoms: S_11  and  C_12 
ROOT
HETATM    1  N   UNL     1      41.085 -12.646   2.620  1.00  0.00    -0.348 N 
HETATM    2  C   UNL     1      40.429 -12.086   3.696  1.00  0.00     0.228 C 
HETATM    3  O   UNL     1      39.487 -12.624   4.271  1.00  0.00    -0.273 OA
HETATM    4  H   UNL     1      41.743 -12.080   2.102  1.00  0.00     0.163 HD
ENDROOT
BRANCH   1   5
HETATM    5  C   UNL     1      40.642 -13.889   2.012  1.00  0.00     0.151 C 
BRANCH   5   6
HETATM    6  C   UNL     1      41.550 -15.074   2.326  1.00  0.00    -0.031 A 
HETATM    7  C   UNL     1      41.301 -15.834   3.481  1.00  0.00     0.012 A 
HETATM    8  C   UNL     1      42.070 -16.964   3.771  1.00  0.00     0.037 A 
HETATM    9  C   UNL     1      43.089 -17.371   2.910  1.00  0.00     0.068 A 
HETATM   10  C   UNL     1      43.359 -16.616   1.769  1.00  0.00     0.037 A 
HETATM   11  C   UNL     1      42.595 -15.477   1.480  1.00  0.00     0.012 A 
BRANCH   9  12
HETATM   12  O   UNL     1      43.747 -18.506   3.296  1.00  0.00    -0.356 OA
HETATM   13  C   UNL     1      43.570 -19.652   2.473  1.00  0.00     0.210 C 
ENDBRANCH   9  12
ENDBRANCH   5   6
BRANCH   5  14
HETATM   14  C   UNL     1      40.454 -13.680   0.511  1.00  0.00    -0.031 A 
HETATM   15  C   UNL     1      39.754 -14.633  -0.245  1.00  0.00     0.009 A 
HETATM   16  C   UNL     1      39.567 -14.455  -1.618  1.00  0.00     0.001 A 
HETATM   17  C   UNL     1      40.071 -13.320  -2.251  1.00  0.00     0.000 A 
HETATM   18  C   UNL     1      40.760 -12.361  -1.514  1.00  0.00     0.001 A 
HETATM   19  C   UNL     1      40.949 -12.538  -0.142  1.00  0.00     0.009 A 
ENDBRANCH   5  14
ENDBRANCH   1   5
BRANCH   2  20
HETATM   20  C   UNL     1      40.955 -10.721   4.095  1.00  0.00     0.185 C 
BRANCH  20  21
HETATM   21  S   UNL     1      41.218 -10.708   5.894  1.00  0.00    -0.081 SA
BRANCH  21  22
HETATM   22  C   UNL     1      42.929 -10.939   5.962  1.00  0.00     0.192 A 
HETATM   23  N   UNL     1      43.700 -10.637   7.054  1.00  0.00    -0.311 N 
HETATM   24  C   UNL     1      44.998 -10.863   6.654  1.00  0.00     0.130 A 
HETATM   25  C   UNL     1      43.234 -10.126   8.327  1.00  0.00     0.133 C 
HETATM   26  C   UNL     1      46.227 -10.610   7.460  1.00  0.00     0.081 C 
HETATM   27  N   UNL     1      44.987 -11.329   5.419  1.00  0.00    -0.134 NA
HETATM   28  C   UNL     1      46.146  -9.328   8.280  1.00  0.00     0.008 C 
HETATM   29  C   UNL     1      45.369  -9.486   9.587  1.00  0.00     0.002 C 
HETATM   30  C   UNL     1      44.142 -10.395   9.523  1.00  0.00     0.020 C 
HETATM   31  N   UNL     1      43.688 -11.372   4.985  1.00  0.00    -0.123 NA
ENDBRANCH  21  22
ENDBRANCH  20  21
ENDBRANCH   2  20
TORSDOF 7
ENDMDL
MODEL 6
REMARK VINA RESULT:      -7.9      2.775      4.652
REMARK  7 active torsions:
REMARK  status: ('A' for Active; 'I' for Inactive)
REMARK    1  A    between atoms: O_2  and  C_3 
REMARK    2  A    between atoms: C_6  and  C_7 
REMARK    3  A    between atoms: C_7  and  N_8 
REMARK    4  A    between atoms: C_7  and  C_23 
REMARK       I    between atoms: N_8  and  C_9 
REMARK    5  A    between atoms: C_9  and  C_10 
REMARK    6  A    between atoms: C_10  and  S_11 
REMARK    7  A    between atoms: S_11  and  C_12 
ROOT
HETATM    1  N   UNL     1      41.508 -12.256   2.496  1.00  0.00    -0.348 N 
HETATM    2  C   UNL     1      42.415 -11.463   3.167  1.00  0.00     0.228 C 
HETATM    3  O   UNL     1      43.621 -11.470   2.939  1.00  0.00    -0.273 OA
HETATM    4  H   UNL     1      40.560 -12.313   2.843  1.00  0.00     0.163 HD
ENDROOT
BRANCH   1   5
HETATM    5  C   UNL     1      41.928 -13.248   1.520  1.00  0.00     0.151 C 
BRANCH   5   6
HETATM    6  C   UNL     1      40.990 -13.352   0.321  1.00  0.00    -0.031 A 
HETATM    7  C   UNL     1      40.941 -12.291  -0.598  1.00  0.00     0.012 A 
HETATM    8  C   UNL     1      40.144 -12.374  -1.742  1.00  0.00     0.037 A 
HETATM    9  C   UNL     1      39.392 -13.520  -2.004  1.00  0.00     0.068 A 
HETATM   10  C   UNL     1      39.418 -14.573  -1.091  1.00  0.00     0.037 A 
HETATM   11  C   UNL     1      40.210 -14.490   0.062  1.00  0.00     0.012 A 
BRANCH   9  12
HETATM   12  O   UNL     1      38.677 -13.483  -3.168  1.00  0.00    -0.356 OA
HETATM   13  C   UNL     1      38.177 -14.726  -3.645  1.00  0.00     0.210 C 
ENDBRANCH   9  12
ENDBRANCH   5   6
BRANCH   5  14
HETATM   14  C   UNL     1      42.133 -14.590   2.218  1.00  0.00    -0.031 A 
HETATM   15  C   UNL     1      43.108 -15.482   1.745  1.00  0.00     0.009 A 
HETATM   16  C   UNL     1      43.314 -16.711   2.375  1.00  0.00     0.001 A 
HETATM   17  C   UNL     1      42.555 -17.063   3.489  1.00  0.00     0.000 A 
HETATM   18  C   UNL     1      41.590 -16.185   3.977  1.00  0.00     0.001 A 
HETATM   19  C   UNL     1      41.380 -14.957   3.348  1.00  0.00     0.009 A 
ENDBRANCH   5  14
ENDBRANCH   1   5
BRANCH   2  20
HETATM   20  C   UNL     1      41.794 -10.595   4.245  1.00  0.00     0.185 C 
BRANCH  20  21
HETATM   21  S   UNL     1      41.339 -11.658   5.649  1.00  0.00    -0.081 SA
BRANCH  21  22
HETATM   22  C   UNL     1      42.866 -11.795   6.445  1.00  0.00     0.192 A 
HETATM   23  N   UNL     1      43.388 -10.832   7.270  1.00  0.00    -0.311 N 
HETATM   24  C   UNL     1      44.647 -11.283   7.599  1.00  0.00     0.130 A 
HETATM   25  C   UNL     1      42.760  -9.583   7.647  1.00  0.00     0.133 C 
HETATM   26  C   UNL     1      45.657 -10.557   8.421  1.00  0.00     0.081 C 
HETATM   27  N   UNL     1      44.831 -12.469   7.050  1.00  0.00    -0.134 NA
HETATM   28  C   UNL     1      45.694  -9.061   8.131  1.00  0.00     0.008 C 
HETATM   29  C   UNL     1      44.600  -8.271   8.851  1.00  0.00     0.002 C 
HETATM   30  C   UNL     1      43.243  -8.966   8.956  1.00  0.00     0.020 C 
HETATM   31  N   UNL     1      43.713 -12.787   6.324  1.00  0.00    -0.123 NA
ENDBRANCH  21  22
ENDBRANCH  20  21
ENDBRANCH   2  20
TORSDOF 7
ENDMDL
MODEL 7
REMARK VINA RESULT:      -7.8      2.867      4.741
REMARK  7 active torsions:
REMARK  status: ('A' for Active; 'I' for Inactive)
REMARK    1  A    between atoms: O_2  and  C_3 
REMARK    2  A    between atoms: C_6  and  C_7 
REMARK    3  A    between atoms: C_7  and  N_8 
REMARK    4  A    between atoms: C_7  and  C_23 
REMARK       I    between atoms: N_8  and  C_9 
REMARK    5  A    between atoms: C_9  and  C_10 
REMARK    6  A    between atoms: C_10  and  S_11 
REMARK    7  A    between atoms: S_11  and  C_12 
ROOT
HETATM    1  N   UNL     1      40.274 -12.825   2.432  1.00  0.00    -0.348 N 
HETATM    2  C   UNL     1      40.099 -11.484   2.701  1.00  0.00     0.228 C 
HETATM    3  O   UNL     1      40.684 -10.589   2.098  1.00  0.00    -0.273 OA
HETATM    4  H   UNL     1      39.883 -13.505   3.069  1.00  0.00     0.163 HD
ENDROOT
BRANCH   1   5
HETATM    5  C   UNL     1      41.253 -13.293   1.465  1.00  0.00     0.151 C 
BRANCH   5   6
HETATM    6  C   UNL     1      40.710 -13.370   0.042  1.00  0.00    -0.031 A 
HETATM    7  C   UNL     1      39.923 -14.473  -0.327  1.00  0.00     0.012 A 
HETATM    8  C   UNL     1      39.354 -14.550  -1.601  1.00  0.00     0.037 A 
HETATM    9  C   UNL     1      39.541 -13.524  -2.527  1.00  0.00     0.068 A 
HETATM   10  C   UNL     1      40.335 -12.431  -2.180  1.00  0.00     0.037 A 
HETATM   11  C   UNL     1      40.913 -12.355  -0.906  1.00  0.00     0.012 A 
BRANCH   9  12
HETATM   12  O   UNL     1      38.910 -13.710  -3.725  1.00  0.00    -0.356 OA
HETATM   13  C   UNL     1      37.998 -14.799  -3.798  1.00  0.00     0.210 C 
ENDBRANCH   9  12
ENDBRANCH   5   6
BRANCH   5  14
HETATM   14  C   UNL     1      41.838 -14.621   1.939  1.00  0.00    -0.031 A 
HETATM   15  C   UNL     1      41.045 -15.508   2.685  1.00  0.00     0.009 A 
HETATM   16  C   UNL     1      41.561 -16.730   3.121  1.00  0.00     0.001 A 
HETATM   17  C   UNL     1      42.872 -17.086   2.812  1.00  0.00     0.000 A 
HETATM   18  C   UNL     1      43.669 -16.222   2.066  1.00  0.00     0.001 A 
HETATM   19  C   UNL     1      43.157 -15.000   1.630  1.00  0.00     0.009 A 
ENDBRANCH   5  14
ENDBRANCH   1   5
BRANCH   2  20
HETATM   20  C   UNL     1      39.136 -11.206   3.839  1.00  0.00     0.185 C 
BRANCH  20  21
HETATM   21  S   UNL     1      40.100 -10.725   5.305  1.00  0.00    -0.081 SA
BRANCH  21  22
HETATM   22  C   UNL     1      41.463 -11.773   5.141  1.00  0.00     0.192 A 
HETATM   23  N   UNL     1      41.498 -13.063   5.604  1.00  0.00    -0.311 N 
HETATM   24  C   UNL     1      42.784 -13.496   5.371  1.00  0.00     0.130 A 
HETATM   25  C   UNL     1      40.419 -13.777   6.257  1.00  0.00     0.133 C 
HETATM   26  C   UNL     1      43.355 -14.816   5.764  1.00  0.00     0.081 C 
HETATM   27  N   UNL     1      43.449 -12.539   4.752  1.00  0.00    -0.134 NA
HETATM   28  C   UNL     1      42.884 -15.282   7.137  1.00  0.00     0.008 C 
HETATM   29  C   UNL     1      41.500 -15.931   7.121  1.00  0.00     0.002 C 
HETATM   30  C   UNL     1      40.483 -15.298   6.172  1.00  0.00     0.020 C 
HETATM   31  N   UNL     1      42.619 -11.458   4.612  1.00  0.00    -0.123 NA
ENDBRANCH  21  22
ENDBRANCH  20  21
ENDBRANCH   2  20
TORSDOF 7
ENDMDL
MODEL 8
REMARK VINA RESULT:      -7.7      3.096      5.821
REMARK  7 active torsions:
REMARK  status: ('A' for Active; 'I' for Inactive)
REMARK    1  A    between atoms: O_2  and  C_3 
REMARK    2  A    between atoms: C_6  and  C_7 
REMARK    3  A    between atoms: C_7  and  N_8 
REMARK    4  A    between atoms: C_7  and  C_23 
REMARK       I    between atoms: N_8  and  C_9 
REMARK    5  A    between atoms: C_9  and  C_10 
REMARK    6  A    between atoms: C_10  and  S_11 
REMARK    7  A    between atoms: S_11  and  C_12 
ROOT
HETATM    1  N   UNL     1      41.180 -13.915   4.650  1.00  0.00    -0.348 N 
HETATM    2  C   UNL     1      40.494 -13.611   5.807  1.00  0.00     0.228 C 
HETATM    3  O   UNL     1      39.683 -14.366   6.333  1.00  0.00    -0.273 OA
HETATM    4  H   UNL     1      41.710 -13.186   4.191  1.00  0.00     0.163 HD
ENDROOT
BRANCH   1   5
HETATM    5  C   UNL     1      40.919 -15.131   3.898  1.00  0.00     0.151 C 
BRANCH   5   6
HETATM    6  C   UNL     1      41.992 -16.199   4.084  1.00  0.00    -0.031 A 
HETATM    7  C   UNL     1      42.294 -16.643   5.382  1.00  0.00     0.012 A 
HETATM    8  C   UNL     1      43.224 -17.664   5.590  1.00  0.00     0.037 A 
HETATM    9  C   UNL     1      43.860 -18.277   4.510  1.00  0.00     0.068 A 
HETATM   10  C   UNL     1      43.584 -17.834   3.217  1.00  0.00     0.037 A 
HETATM   11  C   UNL     1      42.657 -16.805   3.006  1.00  0.00     0.012 A 
BRANCH   9  12
HETATM   12  O   UNL     1      44.727 -19.278   4.849  1.00  0.00    -0.356 OA
HETATM   13  C   UNL     1      44.154 -20.557   5.092  1.00  0.00     0.210 C 
ENDBRANCH   9  12
ENDBRANCH   5   6
BRANCH   5  14
HETATM   14  C   UNL     1      40.693 -14.780   2.430  1.00  0.00    -0.031 A 
HETATM   15  C   UNL     1      41.242 -13.603   1.900  1.00  0.00     0.009 A 
HETATM   16  C   UNL     1      41.051 -13.270   0.557  1.00  0.00     0.001 A 
HETATM   17  C   UNL     1      40.315 -14.111  -0.275  1.00  0.00     0.000 A 
HETATM   18  C   UNL     1      39.770 -15.287   0.233  1.00  0.00     0.001 A 
HETATM   19  C   UNL     1      39.958 -15.622   1.575  1.00  0.00     0.009 A 
ENDBRANCH   5  14
ENDBRANCH   1   5
BRANCH   2  20
HETATM   20  C   UNL     1      40.807 -12.235   6.364  1.00  0.00     0.185 C 
BRANCH  20  21
HETATM   21  S   UNL     1      42.406 -11.691   5.688  1.00  0.00    -0.081 SA
BRANCH  21  22
HETATM   22  C   UNL     1      42.596 -10.183   6.510  1.00  0.00     0.192 A 
HETATM   23  N   UNL     1      43.470  -9.980   7.546  1.00  0.00    -0.311 N 
HETATM   24  C   UNL     1      43.227  -8.695   7.976  1.00  0.00     0.130 A 
HETATM   25  C   UNL     1      44.397 -10.947   8.098  1.00  0.00     0.133 C 
HETATM   26  C   UNL     1      43.872  -8.017   9.138  1.00  0.00     0.081 C 
HETATM   27  N   UNL     1      42.308  -8.153   7.200  1.00  0.00    -0.134 NA
HETATM   28  C   UNL     1      44.068  -8.944  10.332  1.00  0.00     0.008 C 
HETATM   29  C   UNL     1      45.304  -9.836  10.218  1.00  0.00     0.002 C 
HETATM   30  C   UNL     1      45.610 -10.368   8.819  1.00  0.00     0.020 C 
HETATM   31  N   UNL     1      41.910  -9.090   6.283  1.00  0.00    -0.123 NA
ENDBRANCH  21  22
ENDBRANCH  20  21
ENDBRANCH   2  20
TORSDOF 7
ENDMDL
MODEL 9
REMARK VINA RESULT:      -7.4     14.521     16.663
REMARK  7 active torsions:
REMARK  status: ('A' for Active; 'I' for Inactive)
REMARK    1  A    between atoms: O_2  and  C_3 
REMARK    2  A    between atoms: C_6  and  C_7 
REMARK    3  A    between atoms: C_7  and  N_8 
REMARK    4  A    between atoms: C_7  and  C_23 
REMARK       I    between atoms: N_8  and  C_9 
REMARK    5  A    between atoms: C_9  and  C_10 
REMARK    6  A    between atoms: C_10  and  S_11 
REMARK    7  A    between atoms: S_11  and  C_12 
ROOT
HETATM    1  N   UNL     1      47.060 -30.403   2.552  1.00  0.00    -0.348 N 
HETATM    2  C   UNL     1      45.974 -29.554   2.566  1.00  0.00     0.228 C 
HETATM    3  O   UNL     1      46.066 -28.334   2.474  1.00  0.00    -0.273 OA
HETATM    4  H   UNL     1      46.922 -31.376   2.789  1.00  0.00     0.163 HD
ENDROOT
BRANCH   1   5
HETATM    5  C   UNL     1      48.425 -29.905   2.526  1.00  0.00     0.151 C 
BRANCH   5   6
HETATM    6  C   UNL     1      49.071 -29.980   1.146  1.00  0.00    -0.031 A 
HETATM    7  C   UNL     1      50.269 -30.697   0.993  1.00  0.00     0.012 A 
HETATM    8  C   UNL     1      50.858 -30.843  -0.266  1.00  0.00     0.037 A 
HETATM    9  C   UNL     1      50.258 -30.295  -1.400  1.00  0.00     0.068 A 
HETATM   10  C   UNL     1      49.078 -29.566  -1.260  1.00  0.00     0.037 A 
HETATM   11  C   UNL     1      48.489 -29.411   0.002  1.00  0.00     0.012 A 
BRANCH   9  12
HETATM   12  O   UNL     1      50.922 -30.533  -2.571  1.00  0.00    -0.356 OA
HETATM   13  C   UNL     1      52.226 -31.090  -2.458  1.00  0.00     0.210 C 
ENDBRANCH   9  12
ENDBRANCH   5   6
BRANCH   5  14
HETATM   14  C   UNL     1      49.247 -30.621   3.594  1.00  0.00    -0.031 A 
HETATM   15  C   UNL     1      48.807 -31.852   4.106  1.00  0.00     0.009 A 
HETATM   16  C   UNL     1      49.550 -32.525   5.079  1.00  0.00     0.001 A 
HETATM   17  C   UNL     1      50.744 -31.982   5.548  1.00  0.00     0.000 A 
HETATM   18  C   UNL     1      51.199 -30.766   5.044  1.00  0.00     0.001 A 
HETATM   19  C   UNL     1      50.458 -30.090   4.073  1.00  0.00     0.009 A 
ENDBRANCH   5  14
ENDBRANCH   1   5
BRANCH   2  20
HETATM   20  C   UNL     1      44.643 -30.261   2.739  1.00  0.00     0.185 C 
BRANCH  20  21
HETATM   21  S   UNL     1      43.433 -29.490   1.621  1.00  0.00    -0.081 SA
BRANCH  21  22
HETATM   22  C   UNL     1      43.765 -30.349   0.160  1.00  0.00     0.192 A 
HETATM   23  N   UNL     1      44.289 -29.770  -0.967  1.00  0.00    -0.311 N 
HETATM   24  C   UNL     1      44.289 -30.766  -1.918  1.00  0.00     0.130 A 
HETATM   25  C   UNL     1      44.689 -28.386  -1.122  1.00  0.00     0.133 C 
HETATM   26  C   UNL     1      44.697 -30.622  -3.345  1.00  0.00     0.081 C 
HETATM   27  N   UNL     1      43.848 -31.881  -1.367  1.00  0.00    -0.134 NA
HETATM   28  C   UNL     1      44.242 -29.305  -3.963  1.00  0.00     0.008 C 
HETATM   29  C   UNL     1      45.153 -28.125  -3.626  1.00  0.00     0.002 C 
HETATM   30  C   UNL     1      45.724 -28.112  -2.208  1.00  0.00     0.020 C 
HETATM   31  N   UNL     1      43.516 -31.616  -0.064  1.00  0.00    -0.123 NA
ENDBRANCH  21  22
ENDBRANCH  20  21
ENDBRANCH   2  20
TORSDOF 7
ENDMDL
MODEL 10
REMARK VINA RESULT:      -7.3      3.065      6.965
REMARK  7 active torsions:
REMARK  status: ('A' for Active; 'I' for Inactive)
REMARK    1  A    between atoms: O_2  and  C_3 
REMARK    2  A    between atoms: C_6  and  C_7 
REMARK    3  A    between atoms: C_7  and  N_8 
REMARK    4  A    between atoms: C_7  and  C_23 
REMARK       I    between atoms: N_8  and  C_9 
REMARK    5  A    between atoms: C_9  and  C_10 
REMARK    6  A    between atoms: C_10  and  S_11 
REMARK    7  A    between atoms: S_11  and  C_12 
ROOT
HETATM    1  N   UNL     1      41.805 -11.248   3.472  1.00  0.00    -0.348 N 
HETATM    2  C   UNL     1      41.470 -10.584   2.310  1.00  0.00     0.228 C 
HETATM    3  O   UNL     1      42.199 -10.532   1.325  1.00  0.00    -0.273 OA
HETATM    4  H   UNL     1      41.229 -11.117   4.292  1.00  0.00     0.163 HD
ENDROOT
BRANCH   1   5
HETATM    5  C   UNL     1      43.109 -11.863   3.657  1.00  0.00     0.151 C 
BRANCH   5   6
HETATM    6  C   UNL     1      43.104 -13.372   3.430  1.00  0.00    -0.031 A 
HETATM    7  C   UNL     1      43.378 -13.868   2.145  1.00  0.00     0.012 A 
HETATM    8  C   UNL     1      43.445 -15.244   1.910  1.00  0.00     0.037 A 
HETATM    9  C   UNL     1      43.258 -16.153   2.952  1.00  0.00     0.068 A 
HETATM   10  C   UNL     1      42.967 -15.675   4.229  1.00  0.00     0.037 A 
HETATM   11  C   UNL     1      42.891 -14.296   4.466  1.00  0.00     0.012 A 
BRANCH   9  12
HETATM   12  O   UNL     1      43.376 -17.467   2.594  1.00  0.00    -0.356 OA
HETATM   13  C   UNL     1      43.805 -18.365   3.610  1.00  0.00     0.210 C 
ENDBRANCH   9  12
ENDBRANCH   5   6
BRANCH   5  14
HETATM   14  C   UNL     1      43.660 -11.481   5.028  1.00  0.00    -0.031 A 
HETATM   15  C   UNL     1      42.784 -11.053   6.038  1.00  0.00     0.009 A 
HETATM   16  C   UNL     1      43.270 -10.706   7.301  1.00  0.00     0.001 A 
HETATM   17  C   UNL     1      44.634 -10.788   7.573  1.00  0.00     0.000 A 
HETATM   18  C   UNL     1      45.514 -11.220   6.585  1.00  0.00     0.001 A 
HETATM   19  C   UNL     1      45.032 -11.566   5.322  1.00  0.00     0.009 A 
ENDBRANCH   5  14
ENDBRANCH   1   5
BRANCH   2  20
HETATM   20  C   UNL     1      40.123  -9.890   2.366  1.00  0.00     0.185 C 
BRANCH  20  21
HETATM   21  S   UNL     1      38.855 -11.126   2.780  1.00  0.00    -0.081 SA
BRANCH  21  22
HETATM   22  C   UNL     1      39.346 -12.432   1.761  1.00  0.00     0.192 A 
HETATM   23  N   UNL     1      39.227 -12.426   0.396  1.00  0.00    -0.311 N 
HETATM   24  C   UNL     1      39.625 -13.680  -0.008  1.00  0.00     0.130 A 
HETATM   25  C   UNL     1      38.722 -11.342  -0.423  1.00  0.00     0.133 C 
HETATM   26  C   UNL     1      39.608 -14.205  -1.403  1.00  0.00     0.081 C 
HETATM   27  N   UNL     1      40.015 -14.364   1.052  1.00  0.00    -0.134 NA
HETATM   28  C   UNL     1      38.375 -13.768  -2.187  1.00  0.00     0.008 C 
HETATM   29  C   UNL     1      38.486 -12.356  -2.762  1.00  0.00     0.002 C 
HETATM   30  C   UNL     1      39.192 -11.332  -1.874  1.00  0.00     0.020 C 
HETATM   31  N   UNL     1      39.836 -13.580   2.161  1.00  0.00    -0.123 NA
ENDBRANCH  21  22
ENDBRANCH  20  21
ENDBRANCH   2  20
TORSDOF 7
ENDMDL
