MODEL 1
REMARK VINA RESULT:      -7.2      0.000      0.000
REMARK  5 active torsions:
REMARK  status: ('A' for Active; 'I' for Inactive)
REMARK    1  A    between atoms: C_3  and  N_4 
REMARK       I    between atoms: N_4  and  C_5 
REMARK       I    between atoms: C_5  and  N_6 
REMARK    2  A    between atoms: N_6  and  C_7 
REMARK    3  A    between atoms: C_8  and  O_9 
REMARK    4  A    between atoms: O_9  and  C_10 
REMARK    5  A    between atoms: C_10  and  C_11 
ROOT
HETATM    1  N   UNL     1      42.266 -14.589   3.307  1.00  0.00    -0.307 N 
HETATM    2  C   UNL     1      42.001 -15.941   3.432  1.00  0.00     0.325 C 
HETATM    3  N   UNL     1      43.178 -16.652   3.293  1.00  0.00    -0.306 N 
HETATM    4  O   UNL     1      40.901 -16.430   3.642  1.00  0.00    -0.247 OA
HETATM    5  H   UNL     1      43.179 -14.333   3.658  1.00  0.00     0.170 HD
HETATM    6  H   UNL     1      44.004 -16.133   3.025  1.00  0.00     0.171 HD
ENDROOT
BRANCH   3   7
HETATM    7  C   UNL     1      43.379 -18.048   3.276  1.00  0.00     0.069 A 
HETATM    8  C   UNL     1      43.947 -18.609   4.440  1.00  0.00     0.095 A 
HETATM    9  C   UNL     1      44.203 -19.980   4.503  1.00  0.00     0.039 A 
HETATM   10  C   UNL     1      43.903 -20.793   3.409  1.00  0.00     0.003 A 
HETATM   11  C   UNL     1      43.342 -20.240   2.258  1.00  0.00     0.002 A 
HETATM   12  C   UNL     1      43.077 -18.870   2.190  1.00  0.00     0.032 A 
BRANCH   8  13
HETATM   13  O   UNL     1      44.182 -17.720   5.463  1.00  0.00    -0.348 OA
BRANCH  13  14
HETATM   14  C   UNL     1      43.332 -17.815   6.606  1.00  0.00     0.180 C 
BRANCH  14  15
HETATM   15  C   UNL     1      42.708 -16.478   6.901  1.00  0.00     0.010 A 
HETATM   16  C   UNL     1      43.088 -15.647   8.102  1.00  0.00     0.007 A 
HETATM   17  C   UNL     1      43.488 -15.199   6.722  1.00  0.00     0.007 A 
ENDBRANCH  14  15
ENDBRANCH  13  14
ENDBRANCH   8  13
ENDBRANCH   3   7
BRANCH   1  18
HETATM   18  C   UNL     1      41.373 -13.515   3.089  1.00  0.00     0.059 A 
HETATM   19  C   UNL     1      40.530 -12.906   4.030  1.00  0.00    -0.032 A 
HETATM   20  C   UNL     1      40.420 -13.295   5.476  1.00  0.00     0.050 C 
HETATM   21  C   UNL     1      39.697 -11.858   3.594  1.00  0.00     0.028 A 
HETATM   22  C   UNL     1      39.687 -11.491   2.258  1.00  0.00     0.117 A 
HETATM   23  N   UNL     1      40.447 -12.083   1.323  1.00  0.00    -0.271 NA
HETATM   24  C   UNL     1      41.263 -13.071   1.763  1.00  0.00     0.146 A 
ENDBRANCH   1  18
TORSDOF 5
ENDMDL
MODEL 2
REMARK VINA RESULT:      -7.1      2.819      4.168
REMARK  5 active torsions:
REMARK  status: ('A' for Active; 'I' for Inactive)
REMARK    1  A    between atoms: C_3  and  N_4 
REMARK       I    between atoms: N_4  and  C_5 
REMARK       I    between atoms: C_5  and  N_6 
REMARK    2  A    between atoms: N_6  and  C_7 
REMARK    3  A    between atoms: C_8  and  O_9 
REMARK    4  A    between atoms: O_9  and  C_10 
REMARK    5  A    between atoms: C_10  and  C_11 
ROOT
HETATM    1  N   UNL     1      40.982 -13.943  -0.143  1.00  0.00    -0.307 N 
HETATM    2  C   UNL     1      40.981 -14.885   0.872  1.00  0.00     0.325 C 
HETATM    3  N   UNL     1      42.279 -15.108   1.290  1.00  0.00    -0.306 N 
HETATM    4  O   UNL     1      39.987 -15.427   1.332  1.00  0.00    -0.247 OA
HETATM    5  H   UNL     1      41.718 -13.258  -0.041  1.00  0.00     0.170 HD
HETATM    6  H   UNL     1      43.019 -14.668   0.759  1.00  0.00     0.171 HD
ENDROOT
BRANCH   3   7
HETATM    7  C   UNL     1      42.761 -16.029   2.243  1.00  0.00     0.069 A 
HETATM    8  C   UNL     1      43.053 -15.506   3.521  1.00  0.00     0.095 A 
HETATM    9  C   UNL     1      43.557 -16.340   4.521  1.00  0.00     0.039 A 
HETATM   10  C   UNL     1      43.779 -17.691   4.250  1.00  0.00     0.003 A 
HETATM   11  C   UNL     1      43.492 -18.210   2.988  1.00  0.00     0.002 A 
HETATM   12  C   UNL     1      42.981 -17.382   1.984  1.00  0.00     0.032 A 
BRANCH   8  13
HETATM   13  O   UNL     1      42.776 -14.168   3.683  1.00  0.00    -0.348 OA
BRANCH  13  14
HETATM   14  C   UNL     1      42.167 -13.782   4.915  1.00  0.00     0.180 C 
BRANCH  14  15
HETATM   15  C   UNL     1      40.670 -13.884   4.809  1.00  0.00     0.010 A 
HETATM   16  C   UNL     1      39.738 -12.847   5.389  1.00  0.00     0.007 A 
HETATM   17  C   UNL     1      39.890 -12.970   3.896  1.00  0.00     0.007 A 
ENDBRANCH  14  15
ENDBRANCH  13  14
ENDBRANCH   8  13
ENDBRANCH   3   7
BRANCH   1  18
HETATM   18  C   UNL     1      39.961 -13.612  -1.063  1.00  0.00     0.059 A 
HETATM   19  C   UNL     1      38.885 -12.736  -0.859  1.00  0.00    -0.032 A 
HETATM   20  C   UNL     1      38.615 -11.974   0.406  1.00  0.00     0.050 C 
HETATM   21  C   UNL     1      37.962 -12.564  -1.908  1.00  0.00     0.028 A 
HETATM   22  C   UNL     1      38.102 -13.290  -3.080  1.00  0.00     0.117 A 
HETATM   23  N   UNL     1      39.095 -14.170  -3.290  1.00  0.00    -0.271 NA
HETATM   24  C   UNL     1      39.990 -14.304  -2.283  1.00  0.00     0.146 A 
ENDBRANCH   1  18
TORSDOF 5
ENDMDL
MODEL 3
REMARK VINA RESULT:      -7.0      1.921      6.345
REMARK  5 active torsions:
REMARK  status: ('A' for Active; 'I' for Inactive)
REMARK    1  A    between atoms: C_3  and  N_4 
REMARK       I    between atoms: N_4  and  C_5 
REMARK       I    between atoms: C_5  and  N_6 
REMARK    2  A    between atoms: N_6  and  C_7 
REMARK    3  A    between atoms: C_8  and  O_9 
REMARK    4  A    between atoms: O_9  and  C_10 
REMARK    5  A    between atoms: C_10  and  C_11 
ROOT
HETATM    1  N   UNL     1      43.321 -17.328   2.128  1.00  0.00    -0.307 N 
HETATM    2  C   UNL     1      42.220 -16.489   2.107  1.00  0.00     0.325 C 
HETATM    3  N   UNL     1      42.545 -15.326   1.435  1.00  0.00    -0.306 N 
HETATM    4  O   UNL     1      41.130 -16.741   2.597  1.00  0.00    -0.247 OA
HETATM    5  H   UNL     1      43.898 -17.239   1.303  1.00  0.00     0.170 HD
HETATM    6  H   UNL     1      43.512 -15.201   1.163  1.00  0.00     0.171 HD
ENDROOT
BRANCH   3   7
HETATM    7  C   UNL     1      41.766 -14.168   1.232  1.00  0.00     0.069 A 
HETATM    8  C   UNL     1      42.150 -13.023   1.964  1.00  0.00     0.095 A 
HETATM    9  C   UNL     1      41.421 -11.838   1.843  1.00  0.00     0.039 A 
HETATM   10  C   UNL     1      40.308 -11.792   1.002  1.00  0.00     0.003 A 
HETATM   11  C   UNL     1      39.928 -12.921   0.279  1.00  0.00     0.002 A 
HETATM   12  C   UNL     1      40.656 -14.108   0.390  1.00  0.00     0.032 A 
BRANCH   8  13
HETATM   13  O   UNL     1      43.272 -13.177   2.743  1.00  0.00    -0.348 OA
BRANCH  13  14
HETATM   14  C   UNL     1      43.141 -12.862   4.130  1.00  0.00     0.180 C 
BRANCH  14  15
HETATM   15  C   UNL     1      42.710 -14.081   4.900  1.00  0.00     0.010 A 
HETATM   16  C   UNL     1      42.231 -14.015   6.330  1.00  0.00     0.007 A 
HETATM   17  C   UNL     1      41.256 -14.322   5.224  1.00  0.00     0.007 A 
ENDBRANCH  14  15
ENDBRANCH  13  14
ENDBRANCH   8  13
ENDBRANCH   3   7
BRANCH   1  18
HETATM   18  C   UNL     1      43.566 -18.469   2.925  1.00  0.00     0.059 A 
HETATM   19  C   UNL     1      43.991 -18.498   4.261  1.00  0.00    -0.032 A 
HETATM   20  C   UNL     1      44.273 -17.290   5.108  1.00  0.00     0.050 C 
HETATM   21  C   UNL     1      44.198 -19.753   4.865  1.00  0.00     0.028 A 
HETATM   22  C   UNL     1      44.030 -20.913   4.126  1.00  0.00     0.117 A 
HETATM   23  N   UNL     1      43.668 -20.920   2.833  1.00  0.00    -0.271 NA
HETATM   24  C   UNL     1      43.446 -19.706   2.274  1.00  0.00     0.146 A 
ENDBRANCH   1  18
TORSDOF 5
ENDMDL
MODEL 4
REMARK VINA RESULT:      -7.0      2.527      7.682
REMARK  5 active torsions:
REMARK  status: ('A' for Active; 'I' for Inactive)
REMARK    1  A    between atoms: C_3  and  N_4 
REMARK       I    between atoms: N_4  and  C_5 
REMARK       I    between atoms: C_5  and  N_6 
REMARK    2  A    between atoms: N_6  and  C_7 
REMARK    3  A    between atoms: C_8  and  O_9 
REMARK    4  A    between atoms: O_9  and  C_10 
REMARK    5  A    between atoms: C_10  and  C_11 
ROOT
HETATM    1  N   UNL     1      43.374 -17.207   2.272  1.00  0.00    -0.307 N 
HETATM    2  C   UNL     1      42.550 -16.140   2.586  1.00  0.00     0.325 C 
HETATM    3  N   UNL     1      42.915 -15.043   1.829  1.00  0.00    -0.306 N 
HETATM    4  O   UNL     1      41.638 -16.166   3.399  1.00  0.00    -0.247 OA
HETATM    5  H   UNL     1      43.670 -17.203   1.306  1.00  0.00     0.170 HD
HETATM    6  H   UNL     1      43.751 -15.126   1.264  1.00  0.00     0.171 HD
ENDROOT
BRANCH   3   7
HETATM    7  C   UNL     1      42.406 -13.728   1.864  1.00  0.00     0.069 A 
HETATM    8  C   UNL     1      41.383 -13.432   0.938  1.00  0.00     0.095 A 
HETATM    9  C   UNL     1      40.836 -12.148   0.885  1.00  0.00     0.039 A 
HETATM   10  C   UNL     1      41.310 -11.157   1.746  1.00  0.00     0.003 A 
HETATM   11  C   UNL     1      42.321 -11.448   2.660  1.00  0.00     0.002 A 
HETATM   12  C   UNL     1      42.869 -12.732   2.723  1.00  0.00     0.032 A 
BRANCH   8  13
HETATM   13  O   UNL     1      40.978 -14.489   0.155  1.00  0.00    -0.348 OA
BRANCH  13  14
HETATM   14  C   UNL     1      39.726 -14.350  -0.516  1.00  0.00     0.180 C 
BRANCH  14  15
HETATM   15  C   UNL     1      39.941 -14.279  -2.004  1.00  0.00     0.010 A 
HETATM   16  C   UNL     1      38.849 -14.585  -3.001  1.00  0.00     0.007 A 
HETATM   17  C   UNL     1      39.331 -13.169  -2.825  1.00  0.00     0.007 A 
ENDBRANCH  14  15
ENDBRANCH  13  14
ENDBRANCH   8  13
ENDBRANCH   3   7
BRANCH   1  18
HETATM   18  C   UNL     1      43.577 -18.421   2.968  1.00  0.00     0.059 A 
HETATM   19  C   UNL     1      44.038 -18.579   4.283  1.00  0.00    -0.032 A 
HETATM   20  C   UNL     1      44.410 -17.459   5.213  1.00  0.00     0.050 C 
HETATM   21  C   UNL     1      44.192 -19.888   4.779  1.00  0.00     0.028 A 
HETATM   22  C   UNL     1      43.940 -20.974   3.957  1.00  0.00     0.117 A 
HETATM   23  N   UNL     1      43.542 -20.858   2.680  1.00  0.00    -0.271 NA
HETATM   24  C   UNL     1      43.372 -19.593   2.226  1.00  0.00     0.146 A 
ENDBRANCH   1  18
TORSDOF 5
ENDMDL
MODEL 5
REMARK VINA RESULT:      -6.9      1.952      6.452
REMARK  5 active torsions:
REMARK  status: ('A' for Active; 'I' for Inactive)
REMARK    1  A    between atoms: C_3  and  N_4 
REMARK       I    between atoms: N_4  and  C_5 
REMARK       I    between atoms: C_5  and  N_6 
REMARK    2  A    between atoms: N_6  and  C_7 
REMARK    3  A    between atoms: C_8  and  O_9 
REMARK    4  A    between atoms: O_9  and  C_10 
REMARK    5  A    between atoms: C_10  and  C_11 
ROOT
HETATM    1  N   UNL     1      43.284 -17.433   2.268  1.00  0.00    -0.307 N 
HETATM    2  C   UNL     1      42.199 -16.574   2.254  1.00  0.00     0.325 C 
HETATM    3  N   UNL     1      42.469 -15.512   1.412  1.00  0.00    -0.306 N 
HETATM    4  O   UNL     1      41.162 -16.734   2.881  1.00  0.00    -0.247 OA
HETATM    5  H   UNL     1      43.773 -17.463   1.384  1.00  0.00     0.170 HD
HETATM    6  H   UNL     1      43.404 -15.448   1.030  1.00  0.00     0.171 HD
ENDROOT
BRANCH   3   7
HETATM    7  C   UNL     1      41.689 -14.367   1.145  1.00  0.00     0.069 A 
HETATM    8  C   UNL     1      42.062 -13.188   1.827  1.00  0.00     0.095 A 
HETATM    9  C   UNL     1      41.332 -12.012   1.643  1.00  0.00     0.039 A 
HETATM   10  C   UNL     1      40.229 -12.008   0.788  1.00  0.00     0.003 A 
HETATM   11  C   UNL     1      39.859 -13.171   0.114  1.00  0.00     0.002 A 
HETATM   12  C   UNL     1      40.589 -14.350   0.290  1.00  0.00     0.032 A 
BRANCH   8  13
HETATM   13  O   UNL     1      43.176 -13.301   2.626  1.00  0.00    -0.348 OA
BRANCH  13  14
HETATM   14  C   UNL     1      43.032 -12.913   3.992  1.00  0.00     0.180 C 
BRANCH  14  15
HETATM   15  C   UNL     1      42.923 -14.132   4.868  1.00  0.00     0.010 A 
HETATM   16  C   UNL     1      43.222 -14.101   6.348  1.00  0.00     0.007 A 
HETATM   17  C   UNL     1      41.804 -14.271   5.871  1.00  0.00     0.007 A 
ENDBRANCH  14  15
ENDBRANCH  13  14
ENDBRANCH   8  13
ENDBRANCH   3   7
BRANCH   1  18
HETATM   18  C   UNL     1      43.594 -18.474   3.173  1.00  0.00     0.059 A 
HETATM   19  C   UNL     1      43.691 -19.844   2.892  1.00  0.00    -0.032 A 
HETATM   20  C   UNL     1      43.476 -20.470   1.544  1.00  0.00     0.050 C 
HETATM   21  C   UNL     1      43.991 -20.720   3.953  1.00  0.00     0.028 A 
HETATM   22  C   UNL     1      44.131 -20.226   5.240  1.00  0.00     0.117 A 
HETATM   23  N   UNL     1      43.999 -18.927   5.551  1.00  0.00    -0.271 NA
HETATM   24  C   UNL     1      43.738 -18.093   4.516  1.00  0.00     0.146 A 
ENDBRANCH   1  18
TORSDOF 5
ENDMDL
MODEL 6
REMARK VINA RESULT:      -6.8      2.972      4.020
REMARK  5 active torsions:
REMARK  status: ('A' for Active; 'I' for Inactive)
REMARK    1  A    between atoms: C_3  and  N_4 
REMARK       I    between atoms: N_4  and  C_5 
REMARK       I    between atoms: C_5  and  N_6 
REMARK    2  A    between atoms: N_6  and  C_7 
REMARK    3  A    between atoms: C_8  and  O_9 
REMARK    4  A    between atoms: O_9  and  C_10 
REMARK    5  A    between atoms: C_10  and  C_11 
ROOT
HETATM    1  N   UNL     1      41.063 -13.740  -0.065  1.00  0.00    -0.307 N 
HETATM    2  C   UNL     1      41.061 -14.760   0.871  1.00  0.00     0.325 C 
HETATM    3  N   UNL     1      42.342 -14.935   1.360  1.00  0.00    -0.306 N 
HETATM    4  O   UNL     1      40.078 -15.398   1.218  1.00  0.00    -0.247 OA
HETATM    5  H   UNL     1      41.743 -13.021   0.140  1.00  0.00     0.170 HD
HETATM    6  H   UNL     1      43.083 -14.407   0.917  1.00  0.00     0.171 HD
ENDROOT
BRANCH   3   7
HETATM    7  C   UNL     1      42.823 -15.899   2.270  1.00  0.00     0.069 A 
HETATM    8  C   UNL     1      43.047 -15.451   3.590  1.00  0.00     0.095 A 
HETATM    9  C   UNL     1      43.546 -16.331   4.552  1.00  0.00     0.039 A 
HETATM   10  C   UNL     1      43.829 -17.653   4.203  1.00  0.00     0.003 A 
HETATM   11  C   UNL     1      43.609 -18.096   2.900  1.00  0.00     0.002 A 
HETATM   12  C   UNL     1      43.104 -17.223   1.933  1.00  0.00     0.032 A 
BRANCH   8  13
HETATM   13  O   UNL     1      42.713 -14.138   3.826  1.00  0.00    -0.348 OA
BRANCH  13  14
HETATM   14  C   UNL     1      42.538 -13.755   5.190  1.00  0.00     0.180 C 
BRANCH  14  15
HETATM   15  C   UNL     1      43.603 -12.772   5.594  1.00  0.00     0.010 A 
HETATM   16  C   UNL     1      43.285 -11.430   6.209  1.00  0.00     0.007 A 
HETATM   17  C   UNL     1      43.910 -12.513   7.049  1.00  0.00     0.007 A 
ENDBRANCH  14  15
ENDBRANCH  13  14
ENDBRANCH   8  13
ENDBRANCH   3   7
BRANCH   1  18
HETATM   18  C   UNL     1      40.083 -13.399  -1.025  1.00  0.00     0.059 A 
HETATM   19  C   UNL     1      38.978 -12.554  -0.847  1.00  0.00    -0.032 A 
HETATM   20  C   UNL     1      38.625 -11.843   0.427  1.00  0.00     0.050 C 
HETATM   21  C   UNL     1      38.106 -12.366  -1.937  1.00  0.00     0.028 A 
HETATM   22  C   UNL     1      38.323 -13.047  -3.123  1.00  0.00     0.117 A 
HETATM   23  N   UNL     1      39.345 -13.897  -3.312  1.00  0.00    -0.271 NA
HETATM   24  C   UNL     1      40.191 -14.047  -2.264  1.00  0.00     0.146 A 
ENDBRANCH   1  18
TORSDOF 5
ENDMDL
MODEL 7
REMARK VINA RESULT:      -6.8      3.456      7.650
REMARK  5 active torsions:
REMARK  status: ('A' for Active; 'I' for Inactive)
REMARK    1  A    between atoms: C_3  and  N_4 
REMARK       I    between atoms: N_4  and  C_5 
REMARK       I    between atoms: C_5  and  N_6 
REMARK    2  A    between atoms: N_6  and  C_7 
REMARK    3  A    between atoms: C_8  and  O_9 
REMARK    4  A    between atoms: O_9  and  C_10 
REMARK    5  A    between atoms: C_10  and  C_11 
ROOT
HETATM    1  N   UNL     1      42.182 -15.016   1.347  1.00  0.00    -0.307 N 
HETATM    2  C   UNL     1      40.901 -15.056   0.824  1.00  0.00     0.325 C 
HETATM    3  N   UNL     1      40.848 -14.275  -0.315  1.00  0.00    -0.306 N 
HETATM    4  O   UNL     1      39.966 -15.690   1.290  1.00  0.00    -0.247 OA
HETATM    5  H   UNL     1      42.894 -14.924   0.635  1.00  0.00     0.170 HD
HETATM    6  H   UNL     1      41.667 -13.724  -0.538  1.00  0.00     0.171 HD
ENDROOT
BRANCH   3   7
HETATM    7  C   UNL     1      39.740 -13.964  -1.131  1.00  0.00     0.069 A 
HETATM    8  C   UNL     1      39.033 -12.788  -0.799  1.00  0.00     0.095 A 
HETATM    9  C   UNL     1      37.909 -12.415  -1.538  1.00  0.00     0.039 A 
HETATM   10  C   UNL     1      37.481 -13.213  -2.600  1.00  0.00     0.003 A 
HETATM   11  C   UNL     1      38.177 -14.375  -2.928  1.00  0.00     0.002 A 
HETATM   12  C   UNL     1      39.307 -14.752  -2.197  1.00  0.00     0.032 A 
BRANCH   8  13
HETATM   13  O   UNL     1      39.556 -12.068   0.250  1.00  0.00    -0.348 OA
BRANCH  13  14
HETATM   14  C   UNL     1      39.910 -10.710  -0.014  1.00  0.00     0.180 C 
BRANCH  14  15
HETATM   15  C   UNL     1      41.169 -10.653  -0.837  1.00  0.00     0.010 A 
HETATM   16  C   UNL     1      41.195 -10.126  -2.251  1.00  0.00     0.007 A 
HETATM   17  C   UNL     1      41.838  -9.336  -1.143  1.00  0.00     0.007 A 
ENDBRANCH  14  15
ENDBRANCH  13  14
ENDBRANCH   8  13
ENDBRANCH   3   7
BRANCH   1  18
HETATM   18  C   UNL     1      42.643 -15.405   2.625  1.00  0.00     0.059 A 
HETATM   19  C   UNL     1      43.012 -16.693   3.041  1.00  0.00    -0.032 A 
HETATM   20  C   UNL     1      42.982 -17.923   2.181  1.00  0.00     0.050 C 
HETATM   21  C   UNL     1      43.425 -16.866   4.376  1.00  0.00     0.028 A 
HETATM   22  C   UNL     1      43.408 -15.792   5.251  1.00  0.00     0.117 A 
HETATM   23  N   UNL     1      43.017 -14.557   4.898  1.00  0.00    -0.271 NA
HETATM   24  C   UNL     1      42.649 -14.400   3.604  1.00  0.00     0.146 A 
ENDBRANCH   1  18
TORSDOF 5
ENDMDL
MODEL 8
REMARK VINA RESULT:      -6.6      1.809      2.259
REMARK  5 active torsions:
REMARK  status: ('A' for Active; 'I' for Inactive)
REMARK    1  A    between atoms: C_3  and  N_4 
REMARK       I    between atoms: N_4  and  C_5 
REMARK       I    between atoms: C_5  and  N_6 
REMARK    2  A    between atoms: N_6  and  C_7 
REMARK    3  A    between atoms: C_8  and  O_9 
REMARK    4  A    between atoms: O_9  and  C_10 
REMARK    5  A    between atoms: C_10  and  C_11 
ROOT
HETATM    1  N   UNL     1      40.266 -15.004   1.296  1.00  0.00    -0.307 N 
HETATM    2  C   UNL     1      41.537 -15.437   1.630  1.00  0.00     0.325 C 
HETATM    3  N   UNL     1      41.447 -16.636   2.313  1.00  0.00    -0.306 N 
HETATM    4  O   UNL     1      42.577 -14.856   1.356  1.00  0.00    -0.247 OA
HETATM    5  H   UNL     1      39.627 -15.766   1.112  1.00  0.00     0.170 HD
HETATM    6  H   UNL     1      40.521 -16.960   2.560  1.00  0.00     0.171 HD
ENDROOT
BRANCH   3   7
HETATM    7  C   UNL     1      42.473 -17.402   2.905  1.00  0.00     0.069 A 
HETATM    8  C   UNL     1      42.868 -17.015   4.204  1.00  0.00     0.095 A 
HETATM    9  C   UNL     1      43.892 -17.703   4.858  1.00  0.00     0.039 A 
HETATM   10  C   UNL     1      44.529 -18.768   4.220  1.00  0.00     0.003 A 
HETATM   11  C   UNL     1      44.140 -19.151   2.937  1.00  0.00     0.002 A 
HETATM   12  C   UNL     1      43.112 -18.472   2.279  1.00  0.00     0.032 A 
BRANCH   8  13
HETATM   13  O   UNL     1      42.158 -15.968   4.743  1.00  0.00    -0.348 OA
BRANCH  13  14
HETATM   14  C   UNL     1      41.449 -16.228   5.955  1.00  0.00     0.180 C 
BRANCH  14  15
HETATM   15  C   UNL     1      41.927 -15.305   7.044  1.00  0.00     0.010 A 
HETATM   16  C   UNL     1      43.064 -15.659   7.972  1.00  0.00     0.007 A 
HETATM   17  C   UNL     1      43.250 -14.588   6.930  1.00  0.00     0.007 A 
ENDBRANCH  14  15
ENDBRANCH  13  14
ENDBRANCH   8  13
ENDBRANCH   3   7
BRANCH   1  18
HETATM   18  C   UNL     1      39.835 -13.729   0.865  1.00  0.00     0.059 A 
HETATM   19  C   UNL     1      39.382 -12.670   1.665  1.00  0.00    -0.032 A 
HETATM   20  C   UNL     1      39.267 -12.700   3.162  1.00  0.00     0.050 C 
HETATM   21  C   UNL     1      38.976 -11.482   1.026  1.00  0.00     0.028 A 
HETATM   22  C   UNL     1      38.983 -11.403  -0.357  1.00  0.00     0.117 A 
HETATM   23  N   UNL     1      39.367 -12.414  -1.154  1.00  0.00    -0.271 NA
HETATM   24  C   UNL     1      39.781 -13.539  -0.524  1.00  0.00     0.146 A 
ENDBRANCH   1  18
TORSDOF 5
ENDMDL
MODEL 9
REMARK VINA RESULT:      -6.5      1.931      4.083
REMARK  5 active torsions:
REMARK  status: ('A' for Active; 'I' for Inactive)
REMARK    1  A    between atoms: C_3  and  N_4 
REMARK       I    between atoms: N_4  and  C_5 
REMARK       I    between atoms: C_5  and  N_6 
REMARK    2  A    between atoms: N_6  and  C_7 
REMARK    3  A    between atoms: C_8  and  O_9 
REMARK    4  A    between atoms: O_9  and  C_10 
REMARK    5  A    between atoms: C_10  and  C_11 
ROOT
HETATM    1  N   UNL     1      40.315 -14.988   1.851  1.00  0.00    -0.307 N 
HETATM    2  C   UNL     1      41.322 -14.911   2.798  1.00  0.00     0.325 C 
HETATM    3  N   UNL     1      41.180 -15.947   3.702  1.00  0.00    -0.306 N 
HETATM    4  O   UNL     1      42.204 -14.066   2.825  1.00  0.00    -0.247 OA
HETATM    5  H   UNL     1      40.035 -15.939   1.652  1.00  0.00     0.170 HD
HETATM    6  H   UNL     1      40.350 -16.520   3.623  1.00  0.00     0.171 HD
ENDROOT
BRANCH   3   7
HETATM    7  C   UNL     1      41.928 -16.222   4.866  1.00  0.00     0.069 A 
HETATM    8  C   UNL     1      43.140 -16.920   4.675  1.00  0.00     0.095 A 
HETATM    9  C   UNL     1      43.934 -17.256   5.774  1.00  0.00     0.039 A 
HETATM   10  C   UNL     1      43.521 -16.906   7.060  1.00  0.00     0.003 A 
HETATM   11  C   UNL     1      42.324 -16.216   7.250  1.00  0.00     0.002 A 
HETATM   12  C   UNL     1      41.528 -15.872   6.155  1.00  0.00     0.032 A 
BRANCH   8  13
HETATM   13  O   UNL     1      43.458 -17.194   3.366  1.00  0.00    -0.348 OA
BRANCH  13  14
HETATM   14  C   UNL     1      44.259 -18.351   3.127  1.00  0.00     0.180 C 
BRANCH  14  15
HETATM   15  C   UNL     1      43.382 -19.543   2.855  1.00  0.00     0.010 A 
HETATM   16  C   UNL     1      43.679 -20.542   1.762  1.00  0.00     0.007 A 
HETATM   17  C   UNL     1      43.835 -20.939   3.206  1.00  0.00     0.007 A 
ENDBRANCH  14  15
ENDBRANCH  13  14
ENDBRANCH   8  13
ENDBRANCH   3   7
BRANCH   1  18
HETATM   18  C   UNL     1      39.878 -14.016   0.923  1.00  0.00     0.059 A 
HETATM   19  C   UNL     1      39.311 -12.765   1.206  1.00  0.00    -0.032 A 
HETATM   20  C   UNL     1      39.058 -12.219   2.582  1.00  0.00     0.050 C 
HETATM   21  C   UNL     1      38.922 -11.953   0.124  1.00  0.00     0.028 A 
HETATM   22  C   UNL     1      39.055 -12.418  -1.174  1.00  0.00     0.117 A 
HETATM   23  N   UNL     1      39.551 -13.629  -1.479  1.00  0.00    -0.271 NA
HETATM   24  C   UNL     1      39.947 -14.387  -0.428  1.00  0.00     0.146 A 
ENDBRANCH   1  18
TORSDOF 5
ENDMDL
MODEL 10
REMARK VINA RESULT:      -6.5      2.662      7.768
REMARK  5 active torsions:
REMARK  status: ('A' for Active; 'I' for Inactive)
REMARK    1  A    between atoms: C_3  and  N_4 
REMARK       I    between atoms: N_4  and  C_5 
REMARK       I    between atoms: C_5  and  N_6 
REMARK    2  A    between atoms: N_6  and  C_7 
REMARK    3  A    between atoms: C_8  and  O_9 
REMARK    4  A    between atoms: O_9  and  C_10 
REMARK    5  A    between atoms: C_10  and  C_11 
ROOT
HETATM    1  N   UNL     1      42.654 -16.050   2.557  1.00  0.00    -0.307 N 
HETATM    2  C   UNL     1      41.384 -15.500   2.583  1.00  0.00     0.325 C 
HETATM    3  N   UNL     1      41.443 -14.193   2.140  1.00  0.00    -0.306 N 
HETATM    4  O   UNL     1      40.368 -16.083   2.933  1.00  0.00    -0.247 OA
HETATM    5  H   UNL     1      43.225 -15.684   1.809  1.00  0.00     0.170 HD
HETATM    6  H   UNL     1      42.361 -13.800   1.973  1.00  0.00     0.171 HD
ENDROOT
BRANCH   3   7
HETATM    7  C   UNL     1      40.415 -13.230   2.065  1.00  0.00     0.069 A 
HETATM    8  C   UNL     1      39.905 -12.963   0.775  1.00  0.00     0.095 A 
HETATM    9  C   UNL     1      38.902 -12.008   0.603  1.00  0.00     0.039 A 
HETATM   10  C   UNL     1      38.409 -11.313   1.709  1.00  0.00     0.003 A 
HETATM   11  C   UNL     1      38.911 -11.575   2.983  1.00  0.00     0.002 A 
HETATM   12  C   UNL     1      39.912 -12.534   3.163  1.00  0.00     0.032 A 
BRANCH   8  13
HETATM   13  O   UNL     1      40.448 -13.721  -0.236  1.00  0.00    -0.348 OA
BRANCH  13  14
HETATM   14  C   UNL     1      39.573 -14.639  -0.892  1.00  0.00     0.180 C 
BRANCH  14  15
HETATM   15  C   UNL     1      39.324 -14.197  -2.309  1.00  0.00     0.010 A 
HETATM   16  C   UNL     1      38.395 -14.935  -3.242  1.00  0.00     0.007 A 
HETATM   17  C   UNL     1      38.007 -13.581  -2.711  1.00  0.00     0.007 A 
ENDBRANCH  14  15
ENDBRANCH  13  14
ENDBRANCH   8  13
ENDBRANCH   3   7
BRANCH   1  18
HETATM   18  C   UNL     1      43.136 -17.227   3.174  1.00  0.00     0.059 A 
HETATM   19  C   UNL     1      43.647 -17.358   4.473  1.00  0.00    -0.032 A 
HETATM   20  C   UNL     1      43.781 -16.242   5.469  1.00  0.00     0.050 C 
HETATM   21  C   UNL     1      44.098 -18.627   4.884  1.00  0.00     0.028 A 
HETATM   22  C   UNL     1      44.076 -19.690   3.997  1.00  0.00     0.117 A 
HETATM   23  N   UNL     1      43.635 -19.589   2.732  1.00  0.00    -0.271 NA
HETATM   24  C   UNL     1      43.180 -18.369   2.361  1.00  0.00     0.146 A 
ENDBRANCH   1  18
TORSDOF 5
ENDMDL
