MODEL 1
REMARK VINA RESULT:      -7.4      0.000      0.000
REMARK  3 active torsions:
REMARK  status: ('A' for Active; 'I' for Inactive)
REMARK    1  A    between atoms: N_6  and  C_7 
REMARK    2  A    between atoms: C_10  and  S_11 
REMARK    3  A    between atoms: S_11  and  N_12 
ROOT
HETATM    1  C   UNL     1      40.329 -13.829  -0.695  1.00  0.00     0.030 A 
HETATM    2  C   UNL     1      41.072 -13.016   0.179  1.00  0.00     0.031 A 
HETATM    3  C   UNL     1      41.339 -13.398   1.503  1.00  0.00     0.027 A 
HETATM    4  C   UNL     1      40.835 -14.599   1.992  1.00  0.00     0.079 A 
HETATM    5  C   UNL     1      40.077 -15.421   1.165  1.00  0.00     0.027 A 
HETATM    6  C   UNL     1      39.815 -15.023  -0.152  1.00  0.00     0.031 A 
ENDROOT
BRANCH   4   7
HETATM    7  S   UNL     1      41.261 -15.142   3.633  1.00  0.00     0.260 S 
HETATM    8  O   UNL     1      41.433 -13.948   4.433  1.00  0.00    -0.200 OA
HETATM    9  O   UNL     1      40.289 -16.150   4.001  1.00  0.00    -0.200 OA
BRANCH   7  10
HETATM   10  N   UNL     1      42.756 -15.880   3.424  1.00  0.00    -0.307 N 
HETATM   11  C   UNL     1      43.562 -16.293   4.586  1.00  0.00     0.135 C 
HETATM   12  C   UNL     1      43.593 -17.811   4.723  1.00  0.00     0.021 C 
HETATM   13  C   UNL     1      44.034 -18.478   3.425  1.00  0.00     0.003 C 
HETATM   14  C   UNL     1      43.146 -18.034   2.268  1.00  0.00     0.021 C 
HETATM   15  C   UNL     1      43.110 -16.515   2.142  1.00  0.00     0.135 C 
ENDBRANCH   7  10
ENDBRANCH   4   7
BRANCH   1  16
HETATM   16  N   UNL     1      40.066 -13.485  -2.026  1.00  0.00    -0.378 N 
HETATM   17  C   UNL     1      40.267 -12.068  -2.413  1.00  0.00     0.150 C 
HETATM   18  C   UNL     1      38.967 -11.260  -2.204  1.00  0.00     0.254 C 
HETATM   19  N   UNL     1      37.812 -11.901  -2.980  1.00  0.00    -0.072 N 
HETATM   20  C   UNL     1      36.539 -11.125  -2.829  1.00  0.00     0.269 C 
HETATM   21  H   UNL     1      38.073 -11.880  -3.975  1.00  0.00     0.279 HD
HETATM   22  C   UNL     1      37.638 -13.373  -2.594  1.00  0.00     0.254 C 
HETATM   23  C   UNL     1      38.969 -14.139  -2.768  1.00  0.00     0.150 C 
ENDBRANCH   1  16
TORSDOF 3
ENDMDL
MODEL 2
REMARK VINA RESULT:      -7.2      5.522      8.177
REMARK  3 active torsions:
REMARK  status: ('A' for Active; 'I' for Inactive)
REMARK    1  A    between atoms: N_6  and  C_7 
REMARK    2  A    between atoms: C_10  and  S_11 
REMARK    3  A    between atoms: S_11  and  N_12 
ROOT
HETATM    1  C   UNL     1      43.370 -11.609   6.690  1.00  0.00     0.030 A 
HETATM    2  C   UNL     1      42.109 -11.908   6.146  1.00  0.00     0.031 A 
HETATM    3  C   UNL     1      41.734 -13.219   5.814  1.00  0.00     0.027 A 
HETATM    4  C   UNL     1      42.636 -14.263   5.992  1.00  0.00     0.079 A 
HETATM    5  C   UNL     1      43.903 -14.004   6.508  1.00  0.00     0.027 A 
HETATM    6  C   UNL     1      44.263 -12.690   6.828  1.00  0.00     0.031 A 
ENDROOT
BRANCH   4   7
HETATM    7  S   UNL     1      42.132 -15.941   5.678  1.00  0.00     0.260 S 
HETATM    8  O   UNL     1      42.256 -16.652   6.933  1.00  0.00    -0.200 OA
HETATM    9  O   UNL     1      40.863 -15.870   4.986  1.00  0.00    -0.200 OA
BRANCH   7  10
HETATM   10  N   UNL     1      43.302 -16.507   4.612  1.00  0.00    -0.307 N 
HETATM   11  C   UNL     1      44.307 -17.492   5.049  1.00  0.00     0.135 C 
HETATM   12  C   UNL     1      44.048 -18.857   4.421  1.00  0.00     0.021 C 
HETATM   13  C   UNL     1      43.930 -18.758   2.905  1.00  0.00     0.003 C 
HETATM   14  C   UNL     1      42.858 -17.747   2.517  1.00  0.00     0.021 C 
HETATM   15  C   UNL     1      43.114 -16.386   3.155  1.00  0.00     0.135 C 
ENDBRANCH   7  10
ENDBRANCH   4   7
BRANCH   1  16
HETATM   16  N   UNL     1      43.763 -10.315   7.050  1.00  0.00    -0.378 N 
HETATM   17  C   UNL     1      45.064 -10.170   7.746  1.00  0.00     0.150 C 
HETATM   18  C   UNL     1      44.874 -10.274   9.275  1.00  0.00     0.254 C 
HETATM   19  N   UNL     1      43.856  -9.234   9.756  1.00  0.00    -0.072 N 
HETATM   20  C   UNL     1      43.669  -9.281  11.242  1.00  0.00     0.269 C 
HETATM   21  H   UNL     1      44.239  -8.310   9.520  1.00  0.00     0.279 HD
HETATM   22  C   UNL     1      42.529  -9.374   9.005  1.00  0.00     0.254 C 
HETATM   23  C   UNL     1      42.762  -9.316   7.478  1.00  0.00     0.150 C 
ENDBRANCH   1  16
TORSDOF 3
ENDMDL
MODEL 3
REMARK VINA RESULT:      -7.0      5.853      8.892
REMARK  3 active torsions:
REMARK  status: ('A' for Active; 'I' for Inactive)
REMARK    1  A    between atoms: N_6  and  C_7 
REMARK    2  A    between atoms: C_10  and  S_11 
REMARK    3  A    between atoms: S_11  and  N_12 
ROOT
HETATM    1  C   UNL     1      43.823 -10.694   7.316  1.00  0.00     0.030 A 
HETATM    2  C   UNL     1      42.576 -10.579   6.679  1.00  0.00     0.031 A 
HETATM    3  C   UNL     1      41.969 -11.665   6.029  1.00  0.00     0.027 A 
HETATM    4  C   UNL     1      42.622 -12.892   5.978  1.00  0.00     0.079 A 
HETATM    5  C   UNL     1      43.868 -13.041   6.578  1.00  0.00     0.027 A 
HETATM    6  C   UNL     1      44.462 -11.946   7.217  1.00  0.00     0.031 A 
ENDROOT
BRANCH   4   7
HETATM    7  S   UNL     1      41.812 -14.303   5.253  1.00  0.00     0.260 S 
HETATM    8  O   UNL     1      41.644 -15.273   6.314  1.00  0.00    -0.200 OA
HETATM    9  O   UNL     1      40.671 -13.795   4.521  1.00  0.00    -0.200 OA
BRANCH   7  10
HETATM   10  N   UNL     1      42.947 -14.883   4.157  1.00  0.00    -0.307 N 
HETATM   11  C   UNL     1      43.444 -16.266   4.248  1.00  0.00     0.135 C 
HETATM   12  C   UNL     1      42.908 -17.121   3.106  1.00  0.00     0.021 C 
HETATM   13  C   UNL     1      43.183 -16.477   1.752  1.00  0.00     0.003 C 
HETATM   14  C   UNL     1      42.620 -15.061   1.710  1.00  0.00     0.021 C 
HETATM   15  C   UNL     1      43.152 -14.213   2.860  1.00  0.00     0.135 C 
ENDBRANCH   7  10
ENDBRANCH   4   7
BRANCH   1  16
HETATM   16  N   UNL     1      44.442  -9.635   7.990  1.00  0.00    -0.378 N 
HETATM   17  C   UNL     1      45.429  -9.982   9.040  1.00  0.00     0.150 C 
HETATM   18  C   UNL     1      44.733 -10.124  10.411  1.00  0.00     0.254 C 
HETATM   19  N   UNL     1      43.969  -8.841  10.755  1.00  0.00    -0.072 N 
HETATM   20  C   UNL     1      43.306  -8.927  12.096  1.00  0.00     0.269 C 
HETATM   21  H   UNL     1      44.663  -8.084  10.799  1.00  0.00     0.279 HD
HETATM   22  C   UNL     1      42.978  -8.476   9.645  1.00  0.00     0.254 C 
HETATM   23  C   UNL     1      43.699  -8.392   8.281  1.00  0.00     0.150 C 
ENDBRANCH   1  16
TORSDOF 3
ENDMDL
MODEL 4
REMARK VINA RESULT:      -6.7      3.073      7.665
REMARK  3 active torsions:
REMARK  status: ('A' for Active; 'I' for Inactive)
REMARK    1  A    between atoms: N_6  and  C_7 
REMARK    2  A    between atoms: C_10  and  S_11 
REMARK    3  A    between atoms: S_11  and  N_12 
ROOT
HETATM    1  C   UNL     1      40.866 -13.916   1.674  1.00  0.00     0.030 A 
HETATM    2  C   UNL     1      40.134 -14.871   0.948  1.00  0.00     0.031 A 
HETATM    3  C   UNL     1      39.802 -14.684  -0.403  1.00  0.00     0.027 A 
HETATM    4  C   UNL     1      40.174 -13.511  -1.051  1.00  0.00     0.079 A 
HETATM    5  C   UNL     1      40.881 -12.531  -0.360  1.00  0.00     0.027 A 
HETATM    6  C   UNL     1      41.199 -12.731   0.989  1.00  0.00     0.031 A 
ENDROOT
BRANCH   4   7
HETATM    7  S   UNL     1      39.855 -13.313  -2.791  1.00  0.00     0.260 S 
HETATM    8  O   UNL     1      41.095 -12.869  -3.391  1.00  0.00    -0.200 OA
HETATM    9  O   UNL     1      39.208 -14.530  -3.234  1.00  0.00    -0.200 OA
BRANCH   7  10
HETATM   10  N   UNL     1      38.741 -12.056  -2.843  1.00  0.00    -0.307 N 
HETATM   11  C   UNL     1      37.464 -12.149  -2.114  1.00  0.00     0.135 C 
HETATM   12  C   UNL     1      37.446 -11.210  -0.913  1.00  0.00     0.021 C 
HETATM   13  C   UNL     1      37.798  -9.783  -1.318  1.00  0.00     0.003 C 
HETATM   14  C   UNL     1      39.140  -9.749  -2.040  1.00  0.00     0.021 C 
HETATM   15  C   UNL     1      39.157 -10.697  -3.234  1.00  0.00     0.135 C 
ENDBRANCH   7  10
ENDBRANCH   4   7
BRANCH   1  16
HETATM   16  N   UNL     1      41.230 -14.084   3.016  1.00  0.00    -0.378 N 
HETATM   17  C   UNL     1      42.667 -13.949   3.351  1.00  0.00     0.150 C 
HETATM   18  C   UNL     1      43.379 -15.314   3.242  1.00  0.00     0.254 C 
HETATM   19  N   UNL     1      42.685 -16.349   4.134  1.00  0.00    -0.072 N 
HETATM   20  C   UNL     1      43.369 -17.681   4.081  1.00  0.00     0.269 C 
HETATM   21  H   UNL     1      42.753 -16.003   5.100  1.00  0.00     0.279 HD
HETATM   22  C   UNL     1      41.194 -16.453   3.799  1.00  0.00     0.254 C 
HETATM   23  C   UNL     1      40.524 -15.062   3.868  1.00  0.00     0.150 C 
ENDBRANCH   1  16
TORSDOF 3
ENDMDL
MODEL 5
REMARK VINA RESULT:      -6.7      1.923      2.750
REMARK  3 active torsions:
REMARK  status: ('A' for Active; 'I' for Inactive)
REMARK    1  A    between atoms: N_6  and  C_7 
REMARK    2  A    between atoms: C_10  and  S_11 
REMARK    3  A    between atoms: S_11  and  N_12 
ROOT
HETATM    1  C   UNL     1      40.796 -12.671   2.137  1.00  0.00     0.030 A 
HETATM    2  C   UNL     1      42.128 -12.555   2.570  1.00  0.00     0.031 A 
HETATM    3  C   UNL     1      42.697 -13.462   3.478  1.00  0.00     0.027 A 
HETATM    4  C   UNL     1      41.924 -14.494   4.000  1.00  0.00     0.079 A 
HETATM    5  C   UNL     1      40.594 -14.629   3.614  1.00  0.00     0.027 A 
HETATM    6  C   UNL     1      40.040 -13.713   2.712  1.00  0.00     0.031 A 
ENDROOT
BRANCH   4   7
HETATM    7  S   UNL     1      42.666 -15.713   5.066  1.00  0.00     0.260 S 
HETATM    8  O   UNL     1      43.541 -14.995   5.968  1.00  0.00    -0.200 OA
HETATM    9  O   UNL     1      41.586 -16.532   5.573  1.00  0.00    -0.200 OA
BRANCH   7  10
HETATM   10  N   UNL     1      43.599 -16.633   4.015  1.00  0.00    -0.307 N 
HETATM   11  C   UNL     1      44.516 -17.666   4.528  1.00  0.00     0.135 C 
HETATM   12  C   UNL     1      44.001 -19.065   4.213  1.00  0.00     0.021 C 
HETATM   13  C   UNL     1      43.696 -19.224   2.728  1.00  0.00     0.003 C 
HETATM   14  C   UNL     1      42.722 -18.147   2.264  1.00  0.00     0.021 C 
HETATM   15  C   UNL     1      43.236 -16.750   2.591  1.00  0.00     0.135 C 
ENDBRANCH   7  10
ENDBRANCH   4   7
BRANCH   1  16
HETATM   16  N   UNL     1      40.208 -11.795   1.217  1.00  0.00    -0.378 N 
HETATM   17  C   UNL     1      38.941 -12.228   0.581  1.00  0.00     0.150 C 
HETATM   18  C   UNL     1      39.228 -13.011  -0.719  1.00  0.00     0.254 C 
HETATM   19  N   UNL     1      40.079 -12.165  -1.672  1.00  0.00    -0.072 N 
HETATM   20  C   UNL     1      40.351 -12.879  -2.961  1.00  0.00     0.269 C 
HETATM   21  H   UNL     1      39.532 -11.323  -1.892  1.00  0.00     0.279 HD
HETATM   22  C   UNL     1      41.368 -11.697  -0.990  1.00  0.00     0.254 C 
HETATM   23  C   UNL     1      41.047 -10.962   0.331  1.00  0.00     0.150 C 
ENDBRANCH   1  16
TORSDOF 3
ENDMDL
MODEL 6
REMARK VINA RESULT:      -6.7      6.004      8.713
REMARK  3 active torsions:
REMARK  status: ('A' for Active; 'I' for Inactive)
REMARK    1  A    between atoms: N_6  and  C_7 
REMARK    2  A    between atoms: C_10  and  S_11 
REMARK    3  A    between atoms: S_11  and  N_12 
ROOT
HETATM    1  C   UNL     1      43.316 -10.758   6.988  1.00  0.00     0.030 A 
HETATM    2  C   UNL     1      44.233 -11.776   6.675  1.00  0.00     0.031 A 
HETATM    3  C   UNL     1      43.875 -12.888   5.898  1.00  0.00     0.027 A 
HETATM    4  C   UNL     1      42.567 -13.020   5.441  1.00  0.00     0.079 A 
HETATM    5  C   UNL     1      41.623 -12.045   5.749  1.00  0.00     0.027 A 
HETATM    6  C   UNL     1      41.996 -10.945   6.530  1.00  0.00     0.031 A 
ENDROOT
BRANCH   4   7
HETATM    7  S   UNL     1      42.130 -14.369   4.365  1.00  0.00     0.260 S 
HETATM    8  O   UNL     1      40.720 -14.226   4.073  1.00  0.00    -0.200 OA
HETATM    9  O   UNL     1      43.112 -14.384   3.301  1.00  0.00    -0.200 OA
BRANCH   7  10
HETATM   10  N   UNL     1      42.354 -15.727   5.329  1.00  0.00    -0.307 N 
HETATM   11  C   UNL     1      43.479 -16.647   5.087  1.00  0.00     0.135 C 
HETATM   12  C   UNL     1      44.531 -16.533   6.184  1.00  0.00     0.021 C 
HETATM   13  C   UNL     1      43.912 -16.699   7.567  1.00  0.00     0.003 C 
HETATM   14  C   UNL     1      42.776 -15.703   7.768  1.00  0.00     0.021 C 
HETATM   15  C   UNL     1      41.732 -15.814   6.663  1.00  0.00     0.135 C 
ENDBRANCH   7  10
ENDBRANCH   4   7
BRANCH   1  16
HETATM   16  N   UNL     1      43.650  -9.628   7.742  1.00  0.00    -0.378 N 
HETATM   17  C   UNL     1      44.855  -9.716   8.601  1.00  0.00     0.150 C 
HETATM   18  C   UNL     1      44.481 -10.240  10.005  1.00  0.00     0.254 C 
HETATM   19  N   UNL     1      43.402  -9.351  10.633  1.00  0.00    -0.072 N 
HETATM   20  C   UNL     1      43.036  -9.807  12.013  1.00  0.00     0.269 C 
HETATM   21  H   UNL     1      43.803  -8.408  10.714  1.00  0.00     0.279 HD
HETATM   22  C   UNL     1      42.178  -9.242   9.720  1.00  0.00     0.254 C 
HETATM   23  C   UNL     1      42.595  -8.764   8.310  1.00  0.00     0.150 C 
ENDBRANCH   1  16
TORSDOF 3
ENDMDL
MODEL 7
REMARK VINA RESULT:      -6.5      2.266      2.960
REMARK  3 active torsions:
REMARK  status: ('A' for Active; 'I' for Inactive)
REMARK    1  A    between atoms: N_6  and  C_7 
REMARK    2  A    between atoms: C_10  and  S_11 
REMARK    3  A    between atoms: S_11  and  N_12 
ROOT
HETATM    1  C   UNL     1      40.754 -12.937   1.059  1.00  0.00     0.030 A 
HETATM    2  C   UNL     1      39.784 -13.651   1.784  1.00  0.00     0.031 A 
HETATM    3  C   UNL     1      39.710 -13.594   3.184  1.00  0.00     0.027 A 
HETATM    4  C   UNL     1      40.636 -12.839   3.896  1.00  0.00     0.079 A 
HETATM    5  C   UNL     1      41.626 -12.135   3.216  1.00  0.00     0.027 A 
HETATM    6  C   UNL     1      41.689 -12.206   1.819  1.00  0.00     0.031 A 
ENDROOT
BRANCH   4   7
HETATM    7  S   UNL     1      40.483 -12.673   5.662  1.00  0.00     0.260 S 
HETATM    8  O   UNL     1      41.299 -11.539   6.043  1.00  0.00    -0.200 OA
HETATM    9  O   UNL     1      39.067 -12.703   5.960  1.00  0.00    -0.200 OA
BRANCH   7  10
HETATM   10  N   UNL     1      41.192 -14.079   6.248  1.00  0.00    -0.307 N 
HETATM   11  C   UNL     1      40.391 -15.298   6.452  1.00  0.00     0.135 C 
HETATM   12  C   UNL     1      40.738 -16.364   5.419  1.00  0.00     0.021 C 
HETATM   13  C   UNL     1      42.238 -16.635   5.382  1.00  0.00     0.003 C 
HETATM   14  C   UNL     1      43.009 -15.343   5.140  1.00  0.00     0.021 C 
HETATM   15  C   UNL     1      42.651 -14.277   6.169  1.00  0.00     0.135 C 
ENDBRANCH   7  10
ENDBRANCH   4   7
BRANCH   1  16
HETATM   16  N   UNL     1      40.838 -12.956  -0.338  1.00  0.00    -0.378 N 
HETATM   17  C   UNL     1      40.995 -11.653  -1.027  1.00  0.00     0.150 C 
HETATM   18  C   UNL     1      39.614 -11.050  -1.364  1.00  0.00     0.254 C 
HETATM   19  N   UNL     1      38.793 -12.037  -2.200  1.00  0.00    -0.072 N 
HETATM   20  C   UNL     1      37.456 -11.472  -2.576  1.00  0.00     0.269 C 
HETATM   21  H   UNL     1      39.317 -12.200  -3.069  1.00  0.00     0.279 HD
HETATM   22  C   UNL     1      38.667 -13.388  -1.491  1.00  0.00     0.254 C 
HETATM   23  C   UNL     1      40.064 -13.939  -1.124  1.00  0.00     0.150 C 
ENDBRANCH   1  16
TORSDOF 3
ENDMDL
MODEL 8
REMARK VINA RESULT:      -6.5      5.153      7.085
REMARK  3 active torsions:
REMARK  status: ('A' for Active; 'I' for Inactive)
REMARK    1  A    between atoms: N_6  and  C_7 
REMARK    2  A    between atoms: C_10  and  S_11 
REMARK    3  A    between atoms: S_11  and  N_12 
ROOT
HETATM    1  C   UNL     1      41.112 -11.436   6.098  1.00  0.00     0.030 A 
HETATM    2  C   UNL     1      42.379 -12.046   6.121  1.00  0.00     0.031 A 
HETATM    3  C   UNL     1      42.534 -13.440   6.094  1.00  0.00     0.027 A 
HETATM    4  C   UNL     1      41.411 -14.261   6.076  1.00  0.00     0.079 A 
HETATM    5  C   UNL     1      40.140 -13.697   6.075  1.00  0.00     0.027 A 
HETATM    6  C   UNL     1      40.002 -12.304   6.108  1.00  0.00     0.031 A 
ENDROOT
BRANCH   4   7
HETATM    7  S   UNL     1      41.599 -16.026   5.931  1.00  0.00     0.260 S 
HETATM    8  O   UNL     1      42.214 -16.479   7.160  1.00  0.00    -0.200 OA
HETATM    9  O   UNL     1      40.316 -16.545   5.506  1.00  0.00    -0.200 OA
BRANCH   7  10
HETATM   10  N   UNL     1      42.699 -16.199   4.672  1.00  0.00    -0.307 N 
HETATM   11  C   UNL     1      43.938 -16.975   4.855  1.00  0.00     0.135 C 
HETATM   12  C   UNL     1      43.883 -18.288   4.084  1.00  0.00     0.021 C 
HETATM   13  C   UNL     1      43.536 -18.058   2.618  1.00  0.00     0.003 C 
HETATM   14  C   UNL     1      42.232 -17.277   2.494  1.00  0.00     0.021 C 
HETATM   15  C   UNL     1      42.288 -15.969   3.275  1.00  0.00     0.135 C 
ENDBRANCH   7  10
ENDBRANCH   4   7
BRANCH   1  16
HETATM   16  N   UNL     1      40.927 -10.049   6.102  1.00  0.00    -0.378 N 
HETATM   17  C   UNL     1      42.070  -9.213   6.540  1.00  0.00     0.150 C 
HETATM   18  C   UNL     1      42.014  -8.978   8.065  1.00  0.00     0.254 C 
HETATM   19  N   UNL     1      40.672  -8.353   8.458  1.00  0.00    -0.072 N 
HETATM   20  C   UNL     1      40.593  -8.078   9.929  1.00  0.00     0.269 C 
HETATM   21  H   UNL     1      40.609  -7.450   7.970  1.00  0.00     0.279 HD
HETATM   22  C   UNL     1      39.501  -9.210   7.970  1.00  0.00     0.254 C 
HETATM   23  C   UNL     1      39.615  -9.467   6.450  1.00  0.00     0.150 C 
ENDBRANCH   1  16
TORSDOF 3
ENDMDL
MODEL 9
REMARK VINA RESULT:      -6.5      7.349      9.407
REMARK  3 active torsions:
REMARK  status: ('A' for Active; 'I' for Inactive)
REMARK    1  A    between atoms: N_6  and  C_7 
REMARK    2  A    between atoms: C_10  and  S_11 
REMARK    3  A    between atoms: S_11  and  N_12 
ROOT
HETATM    1  C   UNL     1      43.464 -12.241   6.188  1.00  0.00     0.030 A 
HETATM    2  C   UNL     1      44.769 -12.191   6.707  1.00  0.00     0.031 A 
HETATM    3  C   UNL     1      45.188 -11.169   7.572  1.00  0.00     0.027 A 
HETATM    4  C   UNL     1      44.307 -10.147   7.913  1.00  0.00     0.079 A 
HETATM    5  C   UNL     1      43.013 -10.148   7.402  1.00  0.00     0.027 A 
HETATM    6  C   UNL     1      42.613 -11.173   6.535  1.00  0.00     0.031 A 
ENDROOT
BRANCH   4   7
HETATM    7  S   UNL     1      44.793  -8.908   9.095  1.00  0.00     0.260 S 
HETATM    8  O   UNL     1      45.813  -9.509   9.929  1.00  0.00    -0.200 OA
HETATM    9  O   UNL     1      45.064  -7.701   8.343  1.00  0.00    -0.200 OA
BRANCH   7  10
HETATM   10  N   UNL     1      43.404  -8.677  10.012  1.00  0.00    -0.307 N 
HETATM   11  C   UNL     1      43.242  -9.342  11.316  1.00  0.00     0.135 C 
HETATM   12  C   UNL     1      43.344  -8.341  12.461  1.00  0.00     0.021 C 
HETATM   13  C   UNL     1      42.385  -7.172  12.265  1.00  0.00     0.003 C 
HETATM   14  C   UNL     1      42.620  -6.509  10.912  1.00  0.00     0.021 C 
HETATM   15  C   UNL     1      42.527  -7.516   9.772  1.00  0.00     0.135 C 
ENDBRANCH   7  10
ENDBRANCH   4   7
BRANCH   1  16
HETATM   16  N   UNL     1      43.012 -13.259   5.340  1.00  0.00    -0.378 N 
HETATM   17  C   UNL     1      43.058 -12.999   3.882  1.00  0.00     0.150 C 
HETATM   18  C   UNL     1      41.739 -12.353   3.405  1.00  0.00     0.254 C 
HETATM   19  N   UNL     1      40.547 -13.237   3.785  1.00  0.00    -0.072 N 
HETATM   20  C   UNL     1      39.249 -12.659   3.309  1.00  0.00     0.269 C 
HETATM   21  H   UNL     1      40.680 -14.138   3.308  1.00  0.00     0.279 HD
HETATM   22  C   UNL     1      40.531 -13.525   5.289  1.00  0.00     0.254 C 
HETATM   23  C   UNL     1      41.882 -14.123   5.740  1.00  0.00     0.150 C 
ENDBRANCH   1  16
TORSDOF 3
ENDMDL
MODEL 10
REMARK VINA RESULT:      -6.4      6.825      9.940
REMARK  3 active torsions:
REMARK  status: ('A' for Active; 'I' for Inactive)
REMARK    1  A    between atoms: N_6  and  C_7 
REMARK    2  A    between atoms: C_10  and  S_11 
REMARK    3  A    between atoms: S_11  and  N_12 
ROOT
HETATM    1  C   UNL     1      44.005  -9.743   8.298  1.00  0.00     0.030 A 
HETATM    2  C   UNL     1      44.888 -10.572   7.584  1.00  0.00     0.031 A 
HETATM    3  C   UNL     1      44.576 -11.070   6.310  1.00  0.00     0.027 A 
HETATM    4  C   UNL     1      43.345 -10.772   5.733  1.00  0.00     0.079 A 
HETATM    5  C   UNL     1      42.435  -9.972   6.417  1.00  0.00     0.027 A 
HETATM    6  C   UNL     1      42.760  -9.488   7.690  1.00  0.00     0.031 A 
ENDROOT
BRANCH   4   7
HETATM    7  S   UNL     1      42.985 -11.307   4.074  1.00  0.00     0.260 S 
HETATM    8  O   UNL     1      42.067 -10.337   3.517  1.00  0.00    -0.200 OA
HETATM    9  O   UNL     1      44.258 -11.577   3.440  1.00  0.00    -0.200 OA
BRANCH   7  10
HETATM   10  N   UNL     1      42.172 -12.761   4.302  1.00  0.00    -0.307 N 
HETATM   11  C   UNL     1      42.875 -13.943   4.830  1.00  0.00     0.135 C 
HETATM   12  C   UNL     1      42.432 -14.255   6.255  1.00  0.00     0.021 C 
HETATM   13  C   UNL     1      40.915 -14.371   6.352  1.00  0.00     0.003 C 
HETATM   14  C   UNL     1      40.248 -13.109   5.818  1.00  0.00     0.021 C 
HETATM   15  C   UNL     1      40.702 -12.795   4.397  1.00  0.00     0.135 C 
ENDBRANCH   7  10
ENDBRANCH   4   7
BRANCH   1  16
HETATM   16  N   UNL     1      44.299  -9.214   9.560  1.00  0.00    -0.378 N 
HETATM   17  C   UNL     1      44.741 -10.164  10.608  1.00  0.00     0.150 C 
HETATM   18  C   UNL     1      43.526 -10.709  11.391  1.00  0.00     0.254 C 
HETATM   19  N   UNL     1      42.712  -9.554  11.981  1.00  0.00    -0.072 N 
HETATM   20  C   UNL     1      41.541 -10.045  12.778  1.00  0.00     0.269 C 
HETATM   21  H   UNL     1      43.334  -9.048  12.624  1.00  0.00     0.279 HD
HETATM   22  C   UNL     1      42.291  -8.563  10.891  1.00  0.00     0.254 C 
HETATM   23  C   UNL     1      43.524  -8.076  10.096  1.00  0.00     0.150 C 
ENDBRANCH   1  16
TORSDOF 3
ENDMDL
