MODEL 1
REMARK VINA RESULT:      -7.1      0.000      0.000
REMARK  5 active torsions:
REMARK  status: ('A' for Active; 'I' for Inactive)
REMARK    1  A    between atoms: C_8  and  O_9 
REMARK    2  A    between atoms: O_9  and  C_10 
REMARK    3  A    between atoms: C_17  and  C_18 
REMARK       I    between atoms: C_18  and  N_19 
REMARK    4  A    between atoms: N_19  and  C_20 
REMARK    5  A    between atoms: C_20  and  C_21 
ROOT
HETATM    1  C   UNL     1      43.559 -18.994   6.799  1.00  0.00     0.051 C 
HETATM    2  C   UNL     1      43.587 -18.660   5.329  1.00  0.00    -0.018 A 
HETATM    3  C   UNL     1      43.722 -19.665   4.351  1.00  0.00     0.065 A 
HETATM    4 CL   UNL     1      43.889 -21.331   4.802  1.00  0.00    -0.082 Cl
HETATM    5  C   UNL     1      43.733 -19.308   2.995  1.00  0.00     0.056 A 
HETATM    6  C   UNL     1      43.858 -20.329   1.899  1.00  0.00     0.072 C 
HETATM    7  N   UNL     1      43.643 -18.020   2.578  1.00  0.00    -0.227 NA
HETATM    8  C   UNL     1      43.573 -17.055   3.524  1.00  0.00     0.186 A 
HETATM    9  C   UNL     1      43.524 -17.318   4.892  1.00  0.00     0.092 A 
ENDROOT
BRANCH   8  10
HETATM   10  O   UNL     1      43.491 -15.736   3.096  1.00  0.00    -0.291 OA
BRANCH  10  11
HETATM   11  C   UNL     1      42.387 -15.403   2.348  1.00  0.00     0.078 A 
HETATM   12  C   UNL     1      42.468 -14.267   1.540  1.00  0.00     0.040 A 
HETATM   13  C   UNL     1      41.388 -13.923   0.726  1.00  0.00     0.045 A 
HETATM   14  C   UNL     1      40.252 -14.726   0.717  1.00  0.00     0.116 A 
HETATM   15  F   UNL     1      39.218 -14.396  -0.067  1.00  0.00    -0.206 F 
HETATM   16  C   UNL     1      40.176 -15.873   1.503  1.00  0.00     0.045 A 
HETATM   17  C   UNL     1      41.253 -16.220   2.318  1.00  0.00     0.040 A 
ENDBRANCH  10  11
ENDBRANCH   8  10
BRANCH   9  18
HETATM   18  C   UNL     1      43.491 -16.197   5.864  1.00  0.00     0.256 C 
HETATM   19  N   UNL     1      42.282 -15.555   6.022  1.00  0.00    -0.353 N 
HETATM   20  H   UNL     1      41.562 -15.699   5.325  1.00  0.00     0.163 HD
HETATM   21  O   UNL     1      44.507 -15.895   6.478  1.00  0.00    -0.267 OA
BRANCH  19  22
HETATM   22  C   UNL     1      42.198 -14.360   6.823  1.00  0.00     0.149 C 
BRANCH  22  23
HETATM   23  C   UNL     1      42.314 -13.126   5.980  1.00  0.00    -0.018 C 
HETATM   24  C   UNL     1      41.610 -12.796   4.887  1.00  0.00     0.008 C 
ENDBRANCH  22  23
ENDBRANCH  19  22
ENDBRANCH   9  18
TORSDOF 5
ENDMDL
MODEL 2
REMARK VINA RESULT:      -7.0      1.867      2.310
REMARK  5 active torsions:
REMARK  status: ('A' for Active; 'I' for Inactive)
REMARK    1  A    between atoms: C_8  and  O_9 
REMARK    2  A    between atoms: O_9  and  C_10 
REMARK    3  A    between atoms: C_17  and  C_18 
REMARK       I    between atoms: C_18  and  N_19 
REMARK    4  A    between atoms: N_19  and  C_20 
REMARK    5  A    between atoms: C_20  and  C_21 
ROOT
HETATM    1  C   UNL     1      44.509 -16.440   6.345  1.00  0.00     0.051 C 
HETATM    2  C   UNL     1      43.600 -16.646   5.160  1.00  0.00    -0.018 A 
HETATM    3  C   UNL     1      43.807 -17.702   4.250  1.00  0.00     0.065 A 
HETATM    4 CL   UNL     1      45.138 -18.795   4.444  1.00  0.00    -0.082 Cl
HETATM    5  C   UNL     1      42.930 -17.860   3.168  1.00  0.00     0.056 A 
HETATM    6  C   UNL     1      43.082 -18.973   2.170  1.00  0.00     0.072 C 
HETATM    7  N   UNL     1      41.891 -17.018   2.941  1.00  0.00    -0.227 NA
HETATM    8  C   UNL     1      41.733 -15.970   3.783  1.00  0.00     0.186 A 
HETATM    9  C   UNL     1      42.535 -15.752   4.902  1.00  0.00     0.092 A 
ENDROOT
BRANCH   8  10
HETATM   10  O   UNL     1      40.674 -15.103   3.543  1.00  0.00    -0.291 OA
BRANCH  10  11
HETATM   11  C   UNL     1      40.599 -14.562   2.283  1.00  0.00     0.078 A 
HETATM   12  C   UNL     1      41.265 -13.357   2.052  1.00  0.00     0.040 A 
HETATM   13  C   UNL     1      41.257 -12.800   0.772  1.00  0.00     0.045 A 
HETATM   14  C   UNL     1      40.601 -13.463  -0.260  1.00  0.00     0.116 A 
HETATM   15  F   UNL     1      40.598 -12.928  -1.488  1.00  0.00    -0.206 F 
HETATM   16  C   UNL     1      39.957 -14.678  -0.041  1.00  0.00     0.045 A 
HETATM   17  C   UNL     1      39.962 -15.237   1.237  1.00  0.00     0.040 A 
ENDBRANCH  10  11
ENDBRANCH   8  10
BRANCH   9  18
HETATM   18  C   UNL     1      42.318 -14.555   5.751  1.00  0.00     0.256 C 
HETATM   19  N   UNL     1      42.914 -13.386   5.331  1.00  0.00    -0.353 N 
HETATM   20  H   UNL     1      43.645 -13.439   4.633  1.00  0.00     0.163 HD
HETATM   21  O   UNL     1      41.632 -14.643   6.762  1.00  0.00    -0.267 OA
BRANCH  19  22
HETATM   22  C   UNL     1      42.888 -12.218   6.175  1.00  0.00     0.149 C 
BRANCH  22  23
HETATM   23  C   UNL     1      44.129 -12.118   7.011  1.00  0.00    -0.018 C 
HETATM   24  C   UNL     1      45.336 -11.653   6.655  1.00  0.00     0.008 C 
ENDBRANCH  22  23
ENDBRANCH  19  22
ENDBRANCH   9  18
TORSDOF 5
ENDMDL
MODEL 3
REMARK VINA RESULT:      -7.0     13.453     14.471
REMARK  5 active torsions:
REMARK  status: ('A' for Active; 'I' for Inactive)
REMARK    1  A    between atoms: C_8  and  O_9 
REMARK    2  A    between atoms: O_9  and  C_10 
REMARK    3  A    between atoms: C_17  and  C_18 
REMARK       I    between atoms: C_18  and  N_19 
REMARK    4  A    between atoms: N_19  and  C_20 
REMARK    5  A    between atoms: C_20  and  C_21 
ROOT
HETATM    1  C   UNL     1      49.020 -30.808   2.507  1.00  0.00     0.051 C 
HETATM    2  C   UNL     1      48.908 -30.264   1.105  1.00  0.00    -0.018 A 
HETATM    3  C   UNL     1      49.872 -30.565   0.122  1.00  0.00     0.065 A 
HETATM    4 CL   UNL     1      51.244 -31.556   0.495  1.00  0.00    -0.082 Cl
HETATM    5  C   UNL     1      49.720 -30.044  -1.171  1.00  0.00     0.056 A 
HETATM    6  C   UNL     1      50.701 -30.338  -2.272  1.00  0.00     0.072 C 
HETATM    7  N   UNL     1      48.689 -29.235  -1.517  1.00  0.00    -0.227 NA
HETATM    8  C   UNL     1      47.799 -28.901  -0.553  1.00  0.00     0.186 A 
HETATM    9  C   UNL     1      47.851 -29.395   0.749  1.00  0.00     0.092 A 
ENDROOT
BRANCH   8  10
HETATM   10  O   UNL     1      46.748 -28.064  -0.906  1.00  0.00    -0.291 OA
BRANCH  10  11
HETATM   11  C   UNL     1      45.911 -28.516  -1.897  1.00  0.00     0.078 A 
HETATM   12  C   UNL     1      45.009 -29.531  -1.573  1.00  0.00     0.040 A 
HETATM   13  C   UNL     1      44.106 -29.984  -2.536  1.00  0.00     0.045 A 
HETATM   14  C   UNL     1      44.105 -29.404  -3.800  1.00  0.00     0.116 A 
HETATM   15  F   UNL     1      43.235 -29.838  -4.722  1.00  0.00    -0.206 F 
HETATM   16  C   UNL     1      44.985 -28.375  -4.122  1.00  0.00     0.045 A 
HETATM   17  C   UNL     1      45.890 -27.921  -3.162  1.00  0.00     0.040 A 
ENDBRANCH  10  11
ENDBRANCH   8  10
BRANCH   9  18
HETATM   18  C   UNL     1      46.859 -28.945   1.756  1.00  0.00     0.256 C 
HETATM   19  N   UNL     1      45.698 -29.682   1.848  1.00  0.00    -0.353 N 
HETATM   20  H   UNL     1      45.467 -30.317   1.095  1.00  0.00     0.163 HD
HETATM   21  O   UNL     1      47.102 -27.968   2.454  1.00  0.00    -0.267 OA
BRANCH  19  22
HETATM   22  C   UNL     1      44.616 -29.224   2.684  1.00  0.00     0.149 C 
BRANCH  22  23
HETATM   23  C   UNL     1      43.297 -29.761   2.216  1.00  0.00    -0.018 C 
HETATM   24  C   UNL     1      42.427 -29.201   1.362  1.00  0.00     0.008 C 
ENDBRANCH  22  23
ENDBRANCH  19  22
ENDBRANCH   9  18
TORSDOF 5
ENDMDL
MODEL 4
REMARK VINA RESULT:      -6.9      2.923      5.338
REMARK  5 active torsions:
REMARK  status: ('A' for Active; 'I' for Inactive)
REMARK    1  A    between atoms: C_8  and  O_9 
REMARK    2  A    between atoms: O_9  and  C_10 
REMARK    3  A    between atoms: C_17  and  C_18 
REMARK       I    between atoms: C_18  and  N_19 
REMARK    4  A    between atoms: N_19  and  C_20 
REMARK    5  A    between atoms: C_20  and  C_21 
ROOT
HETATM    1  C   UNL     1      43.270 -16.139   1.492  1.00  0.00     0.051 C 
HETATM    2  C   UNL     1      43.040 -16.180   2.982  1.00  0.00    -0.018 A 
HETATM    3  C   UNL     1      43.425 -17.294   3.754  1.00  0.00     0.065 A 
HETATM    4 CL   UNL     1      44.159 -18.679   3.014  1.00  0.00    -0.082 Cl
HETATM    5  C   UNL     1      43.199 -17.282   5.138  1.00  0.00     0.056 A 
HETATM    6  C   UNL     1      43.599 -18.429   6.023  1.00  0.00     0.072 C 
HETATM    7  N   UNL     1      42.598 -16.245   5.771  1.00  0.00    -0.227 NA
HETATM    8  C   UNL     1      42.176 -15.204   5.016  1.00  0.00     0.186 A 
HETATM    9  C   UNL     1      42.385 -15.114   3.641  1.00  0.00     0.092 A 
ENDROOT
BRANCH   8  10
HETATM   10  O   UNL     1      41.552 -14.147   5.665  1.00  0.00    -0.291 OA
BRANCH  10  11
HETATM   11  C   UNL     1      42.359 -13.109   6.063  1.00  0.00     0.078 A 
HETATM   12  C   UNL     1      41.845 -11.814   5.975  1.00  0.00     0.040 A 
HETATM   13  C   UNL     1      42.613 -10.736   6.417  1.00  0.00     0.045 A 
HETATM   14  C   UNL     1      43.874 -10.969   6.957  1.00  0.00     0.116 A 
HETATM   15  F   UNL     1      44.608  -9.933   7.384  1.00  0.00    -0.206 F 
HETATM   16  C   UNL     1      44.382 -12.260   7.071  1.00  0.00     0.045 A 
HETATM   17  C   UNL     1      43.617 -13.340   6.629  1.00  0.00     0.040 A 
ENDBRANCH  10  11
ENDBRANCH   8  10
BRANCH   9  18
HETATM   18  C   UNL     1      41.853 -13.956   2.882  1.00  0.00     0.256 C 
HETATM   19  N   UNL     1      40.508 -13.979   2.586  1.00  0.00    -0.353 N 
HETATM   20  H   UNL     1      40.008 -14.855   2.673  1.00  0.00     0.163 HD
HETATM   21  O   UNL     1      42.605 -13.043   2.560  1.00  0.00    -0.267 OA
BRANCH  19  22
HETATM   22  C   UNL     1      39.941 -12.976   1.719  1.00  0.00     0.149 C 
BRANCH  22  23
HETATM   23  C   UNL     1      39.951 -13.422   0.287  1.00  0.00    -0.018 C 
HETATM   24  C   UNL     1      39.971 -14.674  -0.194  1.00  0.00     0.008 C 
ENDBRANCH  22  23
ENDBRANCH  19  22
ENDBRANCH   9  18
TORSDOF 5
ENDMDL
MODEL 5
REMARK VINA RESULT:      -6.6      3.315      5.261
REMARK  5 active torsions:
REMARK  status: ('A' for Active; 'I' for Inactive)
REMARK    1  A    between atoms: C_8  and  O_9 
REMARK    2  A    between atoms: O_9  and  C_10 
REMARK    3  A    between atoms: C_17  and  C_18 
REMARK       I    between atoms: C_18  and  N_19 
REMARK    4  A    between atoms: N_19  and  C_20 
REMARK    5  A    between atoms: C_20  and  C_21 
ROOT
HETATM    1  C   UNL     1      40.501 -12.236   5.042  1.00  0.00     0.051 C 
HETATM    2  C   UNL     1      40.982 -13.439   4.271  1.00  0.00    -0.018 A 
HETATM    3  C   UNL     1      40.263 -13.939   3.167  1.00  0.00     0.065 A 
HETATM    4 CL   UNL     1      38.777 -13.202   2.665  1.00  0.00    -0.082 Cl
HETATM    5  C   UNL     1      40.755 -15.054   2.474  1.00  0.00     0.056 A 
HETATM    6  C   UNL     1      40.049 -15.629   1.279  1.00  0.00     0.072 C 
HETATM    7  N   UNL     1      41.893 -15.697   2.838  1.00  0.00    -0.227 NA
HETATM    8  C   UNL     1      42.547 -15.249   3.935  1.00  0.00     0.186 A 
HETATM    9  C   UNL     1      42.150 -14.131   4.666  1.00  0.00     0.092 A 
ENDROOT
BRANCH   8  10
HETATM   10  O   UNL     1      43.706 -15.915   4.312  1.00  0.00    -0.291 OA
BRANCH  10  11
HETATM   11  C   UNL     1      43.712 -17.278   4.145  1.00  0.00     0.078 A 
HETATM   12  C   UNL     1      43.657 -17.775   2.841  1.00  0.00     0.040 A 
HETATM   13  C   UNL     1      43.712 -19.152   2.625  1.00  0.00     0.045 A 
HETATM   14  C   UNL     1      43.839 -20.012   3.712  1.00  0.00     0.116 A 
HETATM   15  F   UNL     1      43.896 -21.334   3.502  1.00  0.00    -0.206 F 
HETATM   16  C   UNL     1      43.919 -19.522   5.012  1.00  0.00     0.045 A 
HETATM   17  C   UNL     1      43.863 -18.145   5.232  1.00  0.00     0.040 A 
ENDBRANCH  10  11
ENDBRANCH   8  10
BRANCH   9  18
HETATM   18  C   UNL     1      42.902 -13.732   5.882  1.00  0.00     0.256 C 
HETATM   19  N   UNL     1      43.860 -12.756   5.720  1.00  0.00    -0.353 N 
HETATM   20  H   UNL     1      44.175 -12.536   4.784  1.00  0.00     0.163 HD
HETATM   21  O   UNL     1      42.646 -14.264   6.955  1.00  0.00    -0.267 OA
BRANCH  19  22
HETATM   22  C   UNL     1      44.743 -12.422   6.811  1.00  0.00     0.149 C 
BRANCH  22  23
HETATM   23  C   UNL     1      44.372 -11.109   7.433  1.00  0.00    -0.018 C 
HETATM   24  C   UNL     1      43.196 -10.467   7.381  1.00  0.00     0.008 C 
ENDBRANCH  22  23
ENDBRANCH  19  22
ENDBRANCH   9  18
TORSDOF 5
ENDMDL
MODEL 6
REMARK VINA RESULT:      -6.6      4.414      6.806
REMARK  5 active torsions:
REMARK  status: ('A' for Active; 'I' for Inactive)
REMARK    1  A    between atoms: C_8  and  O_9 
REMARK    2  A    between atoms: O_9  and  C_10 
REMARK    3  A    between atoms: C_17  and  C_18 
REMARK       I    between atoms: C_18  and  N_19 
REMARK    4  A    between atoms: N_19  and  C_20 
REMARK    5  A    between atoms: C_20  and  C_21 
ROOT
HETATM    1  C   UNL     1      41.401  -9.690  -0.610  1.00  0.00     0.051 C 
HETATM    2  C   UNL     1      40.992 -11.141  -0.564  1.00  0.00    -0.018 A 
HETATM    3  C   UNL     1      40.590 -11.828  -1.727  1.00  0.00     0.065 A 
HETATM    4 CL   UNL     1      40.525 -11.021  -3.260  1.00  0.00    -0.082 Cl
HETATM    5  C   UNL     1      40.227 -13.179  -1.637  1.00  0.00     0.056 A 
HETATM    6  C   UNL     1      39.805 -13.976  -2.839  1.00  0.00     0.072 C 
HETATM    7  N   UNL     1      40.223 -13.857  -0.462  1.00  0.00    -0.227 NA
HETATM    8  C   UNL     1      40.552 -13.177   0.660  1.00  0.00     0.186 A 
HETATM    9  C   UNL     1      40.956 -11.843   0.662  1.00  0.00     0.092 A 
ENDROOT
BRANCH   8  10
HETATM   10  O   UNL     1      40.537 -13.870   1.864  1.00  0.00    -0.291 OA
BRANCH  10  11
HETATM   11  C   UNL     1      41.388 -14.944   1.962  1.00  0.00     0.078 A 
HETATM   12  C   UNL     1      42.727 -14.747   1.619  1.00  0.00     0.040 A 
HETATM   13  C   UNL     1      43.635 -15.798   1.754  1.00  0.00     0.045 A 
HETATM   14  C   UNL     1      43.197 -17.024   2.245  1.00  0.00     0.116 A 
HETATM   15  F   UNL     1      44.070 -18.030   2.377  1.00  0.00    -0.206 F 
HETATM   16  C   UNL     1      41.868 -17.219   2.612  1.00  0.00     0.045 A 
HETATM   17  C   UNL     1      40.957 -16.171   2.478  1.00  0.00     0.040 A 
ENDBRANCH  10  11
ENDBRANCH   8  10
BRANCH   9  18
HETATM   18  C   UNL     1      41.259 -11.160   1.944  1.00  0.00     0.256 C 
HETATM   19  N   UNL     1      42.510 -11.381   2.478  1.00  0.00    -0.353 N 
HETATM   20  H   UNL     1      43.056 -12.157   2.126  1.00  0.00     0.163 HD
HETATM   21  O   UNL     1      40.415 -10.439   2.464  1.00  0.00    -0.267 OA
BRANCH  19  22
HETATM   22  C   UNL     1      42.832 -10.887   3.794  1.00  0.00     0.149 C 
BRANCH  22  23
HETATM   23  C   UNL     1      42.476 -11.885   4.855  1.00  0.00    -0.018 C 
HETATM   24  C   UNL     1      42.934 -13.136   5.006  1.00  0.00     0.008 C 
ENDBRANCH  22  23
ENDBRANCH  19  22
ENDBRANCH   9  18
TORSDOF 5
ENDMDL
MODEL 7
REMARK VINA RESULT:      -6.6      3.461      6.247
REMARK  5 active torsions:
REMARK  status: ('A' for Active; 'I' for Inactive)
REMARK    1  A    between atoms: C_8  and  O_9 
REMARK    2  A    between atoms: O_9  and  C_10 
REMARK    3  A    between atoms: C_17  and  C_18 
REMARK       I    between atoms: C_18  and  N_19 
REMARK    4  A    between atoms: N_19  and  C_20 
REMARK    5  A    between atoms: C_20  and  C_21 
ROOT
HETATM    1  C   UNL     1      39.368 -13.139   3.395  1.00  0.00     0.051 C 
HETATM    2  C   UNL     1      40.689 -13.799   3.698  1.00  0.00    -0.018 A 
HETATM    3  C   UNL     1      41.421 -13.479   4.858  1.00  0.00     0.065 A 
HETATM    4 CL   UNL     1      40.841 -12.288   5.976  1.00  0.00    -0.082 Cl
HETATM    5  C   UNL     1      42.641 -14.126   5.102  1.00  0.00     0.056 A 
HETATM    6  C   UNL     1      43.465 -13.844   6.328  1.00  0.00     0.072 C 
HETATM    7  N   UNL     1      43.166 -15.040   4.250  1.00  0.00    -0.227 NA
HETATM    8  C   UNL     1      42.488 -15.300   3.108  1.00  0.00     0.186 A 
HETATM    9  C   UNL     1      41.255 -14.730   2.796  1.00  0.00     0.092 A 
ENDROOT
BRANCH   8  10
HETATM   10  O   UNL     1      43.033 -16.230   2.231  1.00  0.00    -0.291 OA
BRANCH  10  11
HETATM   11  C   UNL     1      43.360 -17.454   2.762  1.00  0.00     0.078 A 
HETATM   12  C   UNL     1      43.921 -17.480   4.040  1.00  0.00     0.040 A 
HETATM   13  C   UNL     1      44.220 -18.705   4.637  1.00  0.00     0.045 A 
HETATM   14  C   UNL     1      43.939 -19.885   3.957  1.00  0.00     0.116 A 
HETATM   15  F   UNL     1      44.223 -21.061   4.533  1.00  0.00    -0.206 F 
HETATM   16  C   UNL     1      43.357 -19.867   2.692  1.00  0.00     0.045 A 
HETATM   17  C   UNL     1      43.057 -18.644   2.092  1.00  0.00     0.040 A 
ENDBRANCH  10  11
ENDBRANCH   8  10
BRANCH   9  18
HETATM   18  C   UNL     1      40.599 -15.038   1.502  1.00  0.00     0.256 C 
HETATM   19  N   UNL     1      40.957 -14.254   0.427  1.00  0.00    -0.353 N 
HETATM   20  H   UNL     1      41.440 -13.382   0.604  1.00  0.00     0.163 HD
HETATM   21  O   UNL     1      39.791 -15.957   1.434  1.00  0.00    -0.267 OA
BRANCH  19  22
HETATM   22  C   UNL     1      40.255 -14.380  -0.825  1.00  0.00     0.149 C 
BRANCH  22  23
HETATM   23  C   UNL     1      39.390 -13.184  -1.091  1.00  0.00    -0.018 C 
HETATM   24  C   UNL     1      38.184 -13.144  -1.677  1.00  0.00     0.008 C 
ENDBRANCH  22  23
ENDBRANCH  19  22
ENDBRANCH   9  18
TORSDOF 5
ENDMDL
MODEL 8
REMARK VINA RESULT:      -6.5      2.351      3.279
REMARK  5 active torsions:
REMARK  status: ('A' for Active; 'I' for Inactive)
REMARK    1  A    between atoms: C_8  and  O_9 
REMARK    2  A    between atoms: O_9  and  C_10 
REMARK    3  A    between atoms: C_17  and  C_18 
REMARK       I    between atoms: C_18  and  N_19 
REMARK    4  A    between atoms: N_19  and  C_20 
REMARK    5  A    between atoms: C_20  and  C_21 
ROOT
HETATM    1  C   UNL     1      43.473 -15.188   6.068  1.00  0.00     0.051 C 
HETATM    2  C   UNL     1      42.788 -15.689   4.821  1.00  0.00    -0.018 A 
HETATM    3  C   UNL     1      43.220 -16.860   4.167  1.00  0.00     0.065 A 
HETATM    4 CL   UNL     1      44.580 -17.759   4.757  1.00  0.00    -0.082 Cl
HETATM    5  C   UNL     1      42.546 -17.293   3.016  1.00  0.00     0.056 A 
HETATM    6  C   UNL     1      42.943 -18.541   2.278  1.00  0.00     0.072 C 
HETATM    7  N   UNL     1      41.499 -16.615   2.485  1.00  0.00    -0.227 NA
HETATM    8  C   UNL     1      41.126 -15.460   3.083  1.00  0.00     0.186 A 
HETATM    9  C   UNL     1      41.716 -14.969   4.246  1.00  0.00     0.092 A 
ENDROOT
BRANCH   8  10
HETATM   10  O   UNL     1      40.060 -14.762   2.531  1.00  0.00    -0.291 OA
BRANCH  10  11
HETATM   11  C   UNL     1      40.302 -14.108   1.348  1.00  0.00     0.078 A 
HETATM   12  C   UNL     1      39.933 -14.750   0.164  1.00  0.00     0.040 A 
HETATM   13  C   UNL     1      40.114 -14.099  -1.058  1.00  0.00     0.045 A 
HETATM   14  C   UNL     1      40.643 -12.813  -1.077  1.00  0.00     0.116 A 
HETATM   15  F   UNL     1      40.813 -12.189  -2.250  1.00  0.00    -0.206 F 
HETATM   16  C   UNL     1      40.990 -12.158   0.102  1.00  0.00     0.045 A 
HETATM   17  C   UNL     1      40.811 -12.806   1.325  1.00  0.00     0.040 A 
ENDBRANCH  10  11
ENDBRANCH   8  10
BRANCH   9  18
HETATM   18  C   UNL     1      41.274 -13.671   4.814  1.00  0.00     0.256 C 
HETATM   19  N   UNL     1      39.950 -13.580   5.183  1.00  0.00    -0.353 N 
HETATM   20  H   UNL     1      39.303 -14.279   4.840  1.00  0.00     0.163 HD
HETATM   21  O   UNL     1      42.079 -12.757   4.938  1.00  0.00    -0.267 OA
BRANCH  19  22
HETATM   22  C   UNL     1      39.400 -12.313   5.594  1.00  0.00     0.149 C 
BRANCH  22  23
HETATM   23  C   UNL     1      39.234 -11.384   4.428  1.00  0.00    -0.018 C 
HETATM   24  C   UNL     1      38.608 -10.198   4.393  1.00  0.00     0.008 C 
ENDBRANCH  22  23
ENDBRANCH  19  22
ENDBRANCH   9  18
TORSDOF 5
ENDMDL
MODEL 9
REMARK VINA RESULT:      -6.5      3.466      6.106
REMARK  5 active torsions:
REMARK  status: ('A' for Active; 'I' for Inactive)
REMARK    1  A    between atoms: C_8  and  O_9 
REMARK    2  A    between atoms: O_9  and  C_10 
REMARK    3  A    between atoms: C_17  and  C_18 
REMARK       I    between atoms: C_18  and  N_19 
REMARK    4  A    between atoms: N_19  and  C_20 
REMARK    5  A    between atoms: C_20  and  C_21 
ROOT
HETATM    1  C   UNL     1      41.398 -16.881   2.105  1.00  0.00     0.051 C 
HETATM    2  C   UNL     1      40.967 -15.579   2.732  1.00  0.00    -0.018 A 
HETATM    3  C   UNL     1      40.259 -14.608   1.996  1.00  0.00     0.065 A 
HETATM    4 CL   UNL     1      39.875 -14.864   0.325  1.00  0.00    -0.082 Cl
HETATM    5  C   UNL     1      39.871 -13.417   2.624  1.00  0.00     0.056 A 
HETATM    6  C   UNL     1      39.099 -12.347   1.904  1.00  0.00     0.072 C 
HETATM    7  N   UNL     1      40.171 -13.142   3.918  1.00  0.00    -0.227 NA
HETATM    8  C   UNL     1      40.903 -14.051   4.603  1.00  0.00     0.186 A 
HETATM    9  C   UNL     1      41.305 -15.275   4.071  1.00  0.00     0.092 A 
ENDROOT
BRANCH   8  10
HETATM   10  O   UNL     1      41.218 -13.764   5.924  1.00  0.00    -0.291 OA
BRANCH  10  11
HETATM   11  C   UNL     1      42.275 -12.911   6.131  1.00  0.00     0.078 A 
HETATM   12  C   UNL     1      43.471 -13.460   6.598  1.00  0.00     0.040 A 
HETATM   13  C   UNL     1      44.585 -12.637   6.772  1.00  0.00     0.045 A 
HETATM   14  C   UNL     1      44.493 -11.284   6.460  1.00  0.00     0.116 A 
HETATM   15  F   UNL     1      45.565 -10.497   6.624  1.00  0.00    -0.206 F 
HETATM   16  C   UNL     1      43.311 -10.737   5.970  1.00  0.00     0.045 A 
HETATM   17  C   UNL     1      42.195 -11.556   5.796  1.00  0.00     0.040 A 
ENDBRANCH  10  11
ENDBRANCH   8  10
BRANCH   9  18
HETATM   18  C   UNL     1      42.142 -16.198   4.877  1.00  0.00     0.256 C 
HETATM   19  N   UNL     1      43.475 -16.275   4.538  1.00  0.00    -0.353 N 
HETATM   20  H   UNL     1      43.768 -15.910   3.640  1.00  0.00     0.163 HD
HETATM   21  O   UNL     1      41.635 -16.834   5.793  1.00  0.00    -0.267 OA
BRANCH  19  22
HETATM   22  C   UNL     1      44.323 -17.259   5.162  1.00  0.00     0.149 C 
BRANCH  22  23
HETATM   23  C   UNL     1      44.303 -18.556   4.409  1.00  0.00    -0.018 C 
HETATM   24  C   UNL     1      44.319 -18.747   3.081  1.00  0.00     0.008 C 
ENDBRANCH  22  23
ENDBRANCH  19  22
ENDBRANCH   9  18
TORSDOF 5
ENDMDL
MODEL 10
REMARK VINA RESULT:      -6.4      4.480      7.595
REMARK  5 active torsions:
REMARK  status: ('A' for Active; 'I' for Inactive)
REMARK    1  A    between atoms: C_8  and  O_9 
REMARK    2  A    between atoms: O_9  and  C_10 
REMARK    3  A    between atoms: C_17  and  C_18 
REMARK       I    between atoms: C_18  and  N_19 
REMARK    4  A    between atoms: N_19  and  C_20 
REMARK    5  A    between atoms: C_20  and  C_21 
ROOT
HETATM    1  C   UNL     1      39.043  -9.621   1.839  1.00  0.00     0.051 C 
HETATM    2  C   UNL     1      39.302 -10.939   2.524  1.00  0.00    -0.018 A 
HETATM    3  C   UNL     1      39.441 -11.024   3.924  1.00  0.00     0.065 A 
HETATM    4 CL   UNL     1      39.343  -9.606   4.916  1.00  0.00    -0.082 Cl
HETATM    5  C   UNL     1      39.671 -12.273   4.518  1.00  0.00     0.056 A 
HETATM    6  C   UNL     1      39.812 -12.439   6.005  1.00  0.00     0.072 C 
HETATM    7  N   UNL     1      39.792 -13.414   3.795  1.00  0.00    -0.227 NA
HETATM    8  C   UNL     1      39.718 -13.318   2.447  1.00  0.00     0.186 A 
HETATM    9  C   UNL     1      39.461 -12.125   1.772  1.00  0.00     0.092 A 
ENDROOT
BRANCH   8  10
HETATM   10  O   UNL     1      39.853 -14.486   1.707  1.00  0.00    -0.291 OA
BRANCH  10  11
HETATM   11  C   UNL     1      40.997 -15.216   1.919  1.00  0.00     0.078 A 
HETATM   12  C   UNL     1      40.865 -16.474   2.510  1.00  0.00     0.040 A 
HETATM   13  C   UNL     1      41.996 -17.271   2.696  1.00  0.00     0.045 A 
HETATM   14  C   UNL     1      43.237 -16.807   2.273  1.00  0.00     0.116 A 
HETATM   15  F   UNL     1      44.321 -17.575   2.449  1.00  0.00    -0.206 F 
HETATM   16  C   UNL     1      43.371 -15.564   1.660  1.00  0.00     0.045 A 
HETATM   17  C   UNL     1      42.243 -14.765   1.474  1.00  0.00     0.040 A 
ENDBRANCH  10  11
ENDBRANCH   8  10
BRANCH   9  18
HETATM   18  C   UNL     1      39.437 -12.100   0.289  1.00  0.00     0.256 C 
HETATM   19  N   UNL     1      38.320 -12.632  -0.319  1.00  0.00    -0.353 N 
HETATM   20  H   UNL     1      37.703 -13.216   0.231  1.00  0.00     0.163 HD
HETATM   21  O   UNL     1      40.380 -11.616  -0.326  1.00  0.00    -0.267 OA
BRANCH  19  22
HETATM   22  C   UNL     1      38.284 -12.792  -1.750  1.00  0.00     0.149 C 
BRANCH  22  23
HETATM   23  C   UNL     1      38.943 -14.071  -2.176  1.00  0.00    -0.018 C 
HETATM   24  C   UNL     1      38.461 -15.024  -2.987  1.00  0.00     0.008 C 
ENDBRANCH  22  23
ENDBRANCH  19  22
ENDBRANCH   9  18
TORSDOF 5
ENDMDL
