MODEL 1
REMARK VINA RESULT:      -9.1      0.000      0.000
REMARK  5 active torsions:
REMARK  status: ('A' for Active; 'I' for Inactive)
REMARK    1  A    between atoms: C_5  and  N_6 
REMARK    2  A    between atoms: C_7  and  N_8 
REMARK    3  A    between atoms: N_8  and  N_9 
REMARK    4  A    between atoms: N_13  and  C_14 
REMARK    5  A    between atoms: C_14  and  N_15 
ROOT
HETATM    1  N   UNL     1      43.678 -13.239   7.493  1.00  0.00    -0.166 NA
HETATM    2  C   UNL     1      43.419 -13.750   6.334  1.00  0.00     0.157 A 
HETATM    3  C   UNL     1      42.956 -13.068   5.049  1.00  0.00     0.281 A 
HETATM    4  O   UNL     1      42.800 -11.868   4.939  1.00  0.00    -0.265 OA
HETATM    5  N   UNL     1      42.798 -14.087   4.127  1.00  0.00    -0.284 N 
HETATM    6  C   UNL     1      43.525 -15.170   6.026  1.00  0.00     0.027 A 
HETATM    7  C   UNL     1      43.152 -15.327   4.694  1.00  0.00     0.052 A 
HETATM    8  C   UNL     1      43.165 -16.582   4.116  1.00  0.00     0.031 A 
HETATM    9  C   UNL     1      43.555 -17.670   4.909  1.00  0.00     0.002 A 
HETATM   10  C   UNL     1      43.930 -17.492   6.255  1.00  0.00     0.001 A 
HETATM   11  C   UNL     1      43.918 -16.223   6.831  1.00  0.00     0.016 A 
ENDROOT
BRANCH   1  12
HETATM   12  N   UNL     1      43.544 -11.889   7.658  1.00  0.00    -0.252 N 
HETATM   13  H   UNL     1      42.621 -11.476   7.528  1.00  0.00     0.191 HD
BRANCH  12  14
HETATM   14  C   UNL     1      44.649 -11.083   7.721  1.00  0.00     0.192 C 
HETATM   15  N   UNL     1      44.715 -10.102   8.665  1.00  0.00    -0.332 N 
HETATM   16  H   UNL     1      45.504  -9.495   8.476  1.00  0.00     0.168 HD
HETATM   17  S   UNL     1      45.965 -11.170   6.672  1.00  0.00    -0.039 SA
BRANCH  15  18
HETATM   18  C   UNL     1      44.033  -9.844   9.876  1.00  0.00     0.040 A 
HETATM   19  C   UNL     1      43.548  -8.526  10.106  1.00  0.00    -0.029 A 
HETATM   20  C   UNL     1      42.947  -8.205  11.349  1.00  0.00    -0.054 A 
HETATM   21  C   UNL     1      43.707  -7.457   9.046  1.00  0.00     0.051 C 
HETATM   22  C   UNL     1      42.469  -6.815  11.675  1.00  0.00     0.049 C 
HETATM   23  C   UNL     1      42.787  -9.206  12.315  1.00  0.00     0.007 A 
HETATM   24  C   UNL     1      43.257 -10.493  12.084  1.00  0.00     0.003 A 
HETATM   25  C   UNL     1      43.895 -10.804  10.884  1.00  0.00     0.030 A 
ENDBRANCH  15  18
ENDBRANCH  12  14
ENDBRANCH   1  12
BRANCH   5  26
HETATM   26  C   UNL     1      42.431 -13.881   2.750  1.00  0.00     0.405 C 
BRANCH  26  27
HETATM   27  N   UNL     1      40.996 -13.614   2.643  1.00  0.00     0.106 N 
HETATM   28  C   UNL     1      40.635 -12.851   1.439  1.00  0.00     0.274 C 
HETATM   29  C   UNL     1      40.689 -13.662   0.140  1.00  0.00     0.030 C 
HETATM   30  C   UNL     1      39.871 -14.944   0.249  1.00  0.00     0.003 C 
HETATM   31  C   UNL     1      40.258 -15.729   1.497  1.00  0.00     0.030 C 
HETATM   32  C   UNL     1      40.197 -14.843   2.742  1.00  0.00     0.274 C 
ENDBRANCH  26  27
ENDBRANCH   5  26
TORSDOF 5
ENDMDL
MODEL 2
REMARK VINA RESULT:      -9.1      1.884      3.925
REMARK  5 active torsions:
REMARK  status: ('A' for Active; 'I' for Inactive)
REMARK    1  A    between atoms: C_5  and  N_6 
REMARK    2  A    between atoms: C_7  and  N_8 
REMARK    3  A    between atoms: N_8  and  N_9 
REMARK    4  A    between atoms: N_13  and  C_14 
REMARK    5  A    between atoms: C_14  and  N_15 
ROOT
HETATM    1  N   UNL     1      42.139 -12.309   6.041  1.00  0.00    -0.166 NA
HETATM    2  C   UNL     1      42.005 -13.467   5.483  1.00  0.00     0.157 A 
HETATM    3  C   UNL     1      42.702 -14.789   5.796  1.00  0.00     0.281 A 
HETATM    4  O   UNL     1      43.500 -14.933   6.702  1.00  0.00    -0.265 OA
HETATM    5  N   UNL     1      42.212 -15.693   4.872  1.00  0.00    -0.284 N 
HETATM    6  C   UNL     1      41.102 -13.737   4.371  1.00  0.00     0.027 A 
HETATM    7  C   UNL     1      41.252 -15.081   4.042  1.00  0.00     0.052 A 
HETATM    8  C   UNL     1      40.505 -15.629   3.017  1.00  0.00     0.031 A 
HETATM    9  C   UNL     1      39.613 -14.794   2.330  1.00  0.00     0.002 A 
HETATM   10  C   UNL     1      39.475 -13.435   2.677  1.00  0.00     0.001 A 
HETATM   11  C   UNL     1      40.229 -12.890   3.715  1.00  0.00     0.016 A 
ENDROOT
BRANCH   1  12
HETATM   12  N   UNL     1      43.018 -12.182   7.080  1.00  0.00    -0.252 N 
HETATM   13  H   UNL     1      42.781 -12.619   7.970  1.00  0.00     0.191 HD
BRANCH  12  14
HETATM   14  C   UNL     1      44.041 -11.273   7.019  1.00  0.00     0.192 C 
HETATM   15  N   UNL     1      43.906 -10.065   7.633  1.00  0.00    -0.332 N 
HETATM   16  H   UNL     1      44.665  -9.452   7.358  1.00  0.00     0.168 HD
HETATM   17  S   UNL     1      45.487 -11.507   6.186  1.00  0.00    -0.039 SA
BRANCH  15  18
HETATM   18  C   UNL     1      43.052  -9.551   8.636  1.00  0.00     0.040 A 
HETATM   19  C   UNL     1      43.589  -9.355   9.940  1.00  0.00    -0.029 A 
HETATM   20  C   UNL     1      42.739  -8.935  10.994  1.00  0.00    -0.054 A 
HETATM   21  C   UNL     1      45.051  -9.631  10.214  1.00  0.00     0.051 C 
HETATM   22  C   UNL     1      43.232  -8.769  12.407  1.00  0.00     0.049 C 
HETATM   23  C   UNL     1      41.391  -8.665  10.725  1.00  0.00     0.007 A 
HETATM   24  C   UNL     1      40.873  -8.851   9.449  1.00  0.00     0.003 A 
HETATM   25  C   UNL     1      41.691  -9.313   8.418  1.00  0.00     0.030 A 
ENDBRANCH  15  18
ENDBRANCH  12  14
ENDBRANCH   1  12
BRANCH   5  26
HETATM   26  C   UNL     1      42.557 -17.091   4.847  1.00  0.00     0.405 C 
BRANCH  26  27
HETATM   27  N   UNL     1      43.796 -17.292   4.094  1.00  0.00     0.106 N 
HETATM   28  C   UNL     1      44.605 -18.414   4.595  1.00  0.00     0.274 C 
HETATM   29  C   UNL     1      44.044 -19.798   4.249  1.00  0.00     0.030 C 
HETATM   30  C   UNL     1      43.775 -19.932   2.754  1.00  0.00     0.003 C 
HETATM   31  C   UNL     1      42.932 -18.767   2.248  1.00  0.00     0.030 C 
HETATM   32  C   UNL     1      43.550 -17.428   2.652  1.00  0.00     0.274 C 
ENDBRANCH  26  27
ENDBRANCH   5  26
TORSDOF 5
ENDMDL
MODEL 3
REMARK VINA RESULT:      -8.5      3.163      5.810
REMARK  5 active torsions:
REMARK  status: ('A' for Active; 'I' for Inactive)
REMARK    1  A    between atoms: C_5  and  N_6 
REMARK    2  A    between atoms: C_7  and  N_8 
REMARK    3  A    between atoms: N_8  and  N_9 
REMARK    4  A    between atoms: N_13  and  C_14 
REMARK    5  A    between atoms: C_14  and  N_15 
ROOT
HETATM    1  N   UNL     1      39.151 -11.280   3.218  1.00  0.00    -0.166 NA
HETATM    2  C   UNL     1      39.592 -12.438   2.847  1.00  0.00     0.157 A 
HETATM    3  C   UNL     1      40.265 -13.535   3.669  1.00  0.00     0.281 A 
HETATM    4  O   UNL     1      40.445 -13.466   4.869  1.00  0.00    -0.265 OA
HETATM    5  N   UNL     1      40.565 -14.539   2.767  1.00  0.00    -0.284 N 
HETATM    6  C   UNL     1      39.528 -12.935   1.479  1.00  0.00     0.027 A 
HETATM    7  C   UNL     1      40.114 -14.198   1.477  1.00  0.00     0.052 A 
HETATM    8  C   UNL     1      40.186 -14.924   0.304  1.00  0.00     0.031 A 
HETATM    9  C   UNL     1      39.664 -14.349  -0.863  1.00  0.00     0.002 A 
HETATM   10  C   UNL     1      39.075 -13.069  -0.842  1.00  0.00     0.001 A 
HETATM   11  C   UNL     1      39.001 -12.343   0.347  1.00  0.00     0.016 A 
ENDROOT
BRANCH   1  12
HETATM   12  N   UNL     1      39.266 -10.927   4.533  1.00  0.00    -0.252 N 
HETATM   13  H   UNL     1      38.849 -11.537   5.235  1.00  0.00     0.191 HD
BRANCH  12  14
HETATM   14  C   UNL     1      39.679  -9.668   4.882  1.00  0.00     0.192 C 
HETATM   15  N   UNL     1      40.945  -9.481   5.350  1.00  0.00    -0.332 N 
HETATM   16  H   UNL     1      41.040  -8.541   5.717  1.00  0.00     0.168 HD
HETATM   17  S   UNL     1      38.715  -8.288   4.820  1.00  0.00    -0.039 SA
BRANCH  15  18
HETATM   18  C   UNL     1      42.140 -10.234   5.308  1.00  0.00     0.040 A 
HETATM   19  C   UNL     1      42.887 -10.377   6.512  1.00  0.00    -0.029 A 
HETATM   20  C   UNL     1      44.138 -11.041   6.488  1.00  0.00    -0.054 A 
HETATM   21  C   UNL     1      42.369  -9.788   7.806  1.00  0.00     0.051 C 
HETATM   22  C   UNL     1      45.003 -11.172   7.714  1.00  0.00     0.049 C 
HETATM   23  C   UNL     1      44.599 -11.599   5.288  1.00  0.00     0.007 A 
HETATM   24  C   UNL     1      43.864 -11.463   4.117  1.00  0.00     0.003 A 
HETATM   25  C   UNL     1      42.656 -10.766   4.122  1.00  0.00     0.030 A 
ENDBRANCH  15  18
ENDBRANCH  12  14
ENDBRANCH   1  12
BRANCH   5  26
HETATM   26  C   UNL     1      41.153 -15.802   3.131  1.00  0.00     0.405 C 
BRANCH  26  27
HETATM   27  N   UNL     1      42.612 -15.729   3.027  1.00  0.00     0.106 N 
HETATM   28  C   UNL     1      43.298 -15.975   4.305  1.00  0.00     0.274 C 
HETATM   29  C   UNL     1      43.297 -17.442   4.748  1.00  0.00     0.030 C 
HETATM   30  C   UNL     1      43.827 -18.356   3.649  1.00  0.00     0.003 C 
HETATM   31  C   UNL     1      43.104 -18.097   2.332  1.00  0.00     0.030 C 
HETATM   32  C   UNL     1      43.135 -16.610   1.975  1.00  0.00     0.274 C 
ENDBRANCH  26  27
ENDBRANCH   5  26
TORSDOF 5
ENDMDL
MODEL 4
REMARK VINA RESULT:      -8.5      2.324      8.817
REMARK  5 active torsions:
REMARK  status: ('A' for Active; 'I' for Inactive)
REMARK    1  A    between atoms: C_5  and  N_6 
REMARK    2  A    between atoms: C_7  and  N_8 
REMARK    3  A    between atoms: N_8  and  N_9 
REMARK    4  A    between atoms: N_13  and  C_14 
REMARK    5  A    between atoms: C_14  and  N_15 
ROOT
HETATM    1  N   UNL     1      42.976 -12.213   5.878  1.00  0.00    -0.166 NA
HETATM    2  C   UNL     1      43.153 -11.192   6.650  1.00  0.00     0.157 A 
HETATM    3  C   UNL     1      42.125 -10.261   7.288  1.00  0.00     0.281 A 
HETATM    4  O   UNL     1      40.923 -10.400   7.172  1.00  0.00    -0.265 OA
HETATM    5  N   UNL     1      42.861  -9.320   7.985  1.00  0.00    -0.284 N 
HETATM    6  C   UNL     1      44.460 -10.708   7.076  1.00  0.00     0.027 A 
HETATM    7  C   UNL     1      44.240  -9.592   7.878  1.00  0.00     0.052 A 
HETATM    8  C   UNL     1      45.310  -8.922   8.439  1.00  0.00     0.031 A 
HETATM    9  C   UNL     1      46.601  -9.396   8.169  1.00  0.00     0.002 A 
HETATM   10  C   UNL     1      46.805 -10.527   7.354  1.00  0.00     0.001 A 
HETATM   11  C   UNL     1      45.720 -11.201   6.795  1.00  0.00     0.016 A 
ENDROOT
BRANCH   1  12
HETATM   12  N   UNL     1      41.698 -12.572   5.550  1.00  0.00    -0.252 N 
HETATM   13  H   UNL     1      41.049 -12.791   6.305  1.00  0.00     0.191 HD
BRANCH  12  14
HETATM   14  C   UNL     1      41.376 -12.896   4.259  1.00  0.00     0.192 C 
HETATM   15  N   UNL     1      41.813 -14.074   3.731  1.00  0.00    -0.332 N 
HETATM   16  H   UNL     1      41.639 -14.089   2.733  1.00  0.00     0.168 HD
HETATM   17  S   UNL     1      40.492 -11.915   3.212  1.00  0.00    -0.039 SA
BRANCH  15  18
HETATM   18  C   UNL     1      42.307 -15.282   4.274  1.00  0.00     0.040 A 
HETATM   19  C   UNL     1      42.991 -16.178   3.406  1.00  0.00    -0.029 A 
HETATM   20  C   UNL     1      43.414 -17.441   3.892  1.00  0.00    -0.054 A 
HETATM   21  C   UNL     1      43.233 -15.806   1.959  1.00  0.00     0.051 C 
HETATM   22  C   UNL     1      44.088 -18.458   3.008  1.00  0.00     0.049 C 
HETATM   23  C   UNL     1      43.202 -17.768   5.237  1.00  0.00     0.007 A 
HETATM   24  C   UNL     1      42.539 -16.887   6.082  1.00  0.00     0.003 A 
HETATM   25  C   UNL     1      42.075 -15.663   5.600  1.00  0.00     0.030 A 
ENDBRANCH  15  18
ENDBRANCH  12  14
ENDBRANCH   1  12
BRANCH   5  26
HETATM   26  C   UNL     1      42.284  -8.280   8.796  1.00  0.00     0.405 C 
BRANCH  26  27
HETATM   27  N   UNL     1      41.641  -8.858   9.977  1.00  0.00     0.106 N 
HETATM   28  C   UNL     1      42.545  -9.697  10.779  1.00  0.00     0.274 C 
HETATM   29  C   UNL     1      43.576  -8.909  11.595  1.00  0.00     0.030 C 
HETATM   30  C   UNL     1      42.909  -7.838  12.450  1.00  0.00     0.003 C 
HETATM   31  C   UNL     1      41.979  -6.972  11.607  1.00  0.00     0.030 C 
HETATM   32  C   UNL     1      40.998  -7.835  10.813  1.00  0.00     0.274 C 
ENDBRANCH  26  27
ENDBRANCH   5  26
TORSDOF 5
ENDMDL
MODEL 5
REMARK VINA RESULT:      -8.4      3.564      5.870
REMARK  5 active torsions:
REMARK  status: ('A' for Active; 'I' for Inactive)
REMARK    1  A    between atoms: C_5  and  N_6 
REMARK    2  A    between atoms: C_7  and  N_8 
REMARK    3  A    between atoms: N_8  and  N_9 
REMARK    4  A    between atoms: N_13  and  C_14 
REMARK    5  A    between atoms: C_14  and  N_15 
ROOT
HETATM    1  N   UNL     1      41.441 -10.716   2.400  1.00  0.00    -0.166 NA
HETATM    2  C   UNL     1      41.591 -11.944   2.026  1.00  0.00     0.157 A 
HETATM    3  C   UNL     1      42.602 -12.989   2.492  1.00  0.00     0.281 A 
HETATM    4  O   UNL     1      43.424 -12.791   3.366  1.00  0.00    -0.265 OA
HETATM    5  N   UNL     1      42.339 -14.118   1.739  1.00  0.00    -0.284 N 
HETATM    6  C   UNL     1      40.768 -12.595   1.016  1.00  0.00     0.027 A 
HETATM    7  C   UNL     1      41.244 -13.897   0.880  1.00  0.00     0.052 A 
HETATM    8  C   UNL     1      40.643 -14.763  -0.012  1.00  0.00     0.031 A 
HETATM    9  C   UNL     1      39.560 -14.289  -0.765  1.00  0.00     0.002 A 
HETATM   10  C   UNL     1      39.092 -12.969  -0.615  1.00  0.00     0.001 A 
HETATM   11  C   UNL     1      39.701 -12.101   0.290  1.00  0.00     0.016 A 
ENDROOT
BRANCH   1  12
HETATM   12  N   UNL     1      42.275 -10.217   3.361  1.00  0.00    -0.252 N 
HETATM   13  H   UNL     1      43.265 -10.454   3.311  1.00  0.00     0.191 HD
BRANCH  12  14
HETATM   14  C   UNL     1      41.766  -9.654   4.501  1.00  0.00     0.192 C 
HETATM   15  N   UNL     1      41.520 -10.438   5.588  1.00  0.00    -0.332 N 
HETATM   16  H   UNL     1      40.997  -9.913   6.278  1.00  0.00     0.168 HD
HETATM   17  S   UNL     1      41.362  -8.027   4.673  1.00  0.00    -0.039 SA
BRANCH  15  18
HETATM   18  C   UNL     1      41.941 -11.723   6.000  1.00  0.00     0.040 A 
HETATM   19  C   UNL     1      41.006 -12.793   5.920  1.00  0.00    -0.029 A 
HETATM   20  C   UNL     1      41.360 -14.073   6.415  1.00  0.00    -0.054 A 
HETATM   21  C   UNL     1      39.625 -12.560   5.347  1.00  0.00     0.051 C 
HETATM   22  C   UNL     1      40.395 -15.230   6.415  1.00  0.00     0.049 C 
HETATM   23  C   UNL     1      42.647 -14.283   6.925  1.00  0.00     0.007 A 
HETATM   24  C   UNL     1      43.559 -13.237   6.995  1.00  0.00     0.003 A 
HETATM   25  C   UNL     1      43.201 -11.962   6.557  1.00  0.00     0.030 A 
ENDBRANCH  15  18
ENDBRANCH  12  14
ENDBRANCH   1  12
BRANCH   5  26
HETATM   26  C   UNL     1      43.022 -15.375   1.901  1.00  0.00     0.405 C 
BRANCH  26  27
HETATM   27  N   UNL     1      42.263 -16.252   2.794  1.00  0.00     0.106 N 
HETATM   28  C   UNL     1      42.009 -17.584   2.222  1.00  0.00     0.274 C 
HETATM   29  C   UNL     1      43.236 -18.501   2.192  1.00  0.00     0.030 C 
HETATM   30  C   UNL     1      43.889 -18.603   3.566  1.00  0.00     0.003 C 
HETATM   31  C   UNL     1      44.154 -17.217   4.145  1.00  0.00     0.030 C 
HETATM   32  C   UNL     1      42.885 -16.363   4.120  1.00  0.00     0.274 C 
ENDBRANCH  26  27
ENDBRANCH   5  26
TORSDOF 5
ENDMDL
MODEL 6
REMARK VINA RESULT:      -8.4     18.020     20.601
REMARK  5 active torsions:
REMARK  status: ('A' for Active; 'I' for Inactive)
REMARK    1  A    between atoms: C_5  and  N_6 
REMARK    2  A    between atoms: C_7  and  N_8 
REMARK    3  A    between atoms: N_8  and  N_9 
REMARK    4  A    between atoms: N_13  and  C_14 
REMARK    5  A    between atoms: C_14  and  N_15 
ROOT
HETATM    1  N   UNL     1      46.530 -29.044   2.120  1.00  0.00    -0.166 NA
HETATM    2  C   UNL     1      47.714 -29.416   1.760  1.00  0.00     0.157 A 
HETATM    3  C   UNL     1      48.316 -29.536   0.363  1.00  0.00     0.281 A 
HETATM    4  O   UNL     1      47.725 -29.237  -0.656  1.00  0.00    -0.265 OA
HETATM    5  N   UNL     1      49.601 -30.012   0.554  1.00  0.00    -0.284 N 
HETATM    6  C   UNL     1      48.760 -29.822   2.690  1.00  0.00     0.027 A 
HETATM    7  C   UNL     1      49.873 -30.163   1.928  1.00  0.00     0.052 A 
HETATM    8  C   UNL     1      51.034 -30.582   2.549  1.00  0.00     0.031 A 
HETATM    9  C   UNL     1      51.045 -30.655   3.949  1.00  0.00     0.002 A 
HETATM   10  C   UNL     1      49.909 -30.305   4.704  1.00  0.00     0.001 A 
HETATM   11  C   UNL     1      48.742 -29.880   4.071  1.00  0.00     0.016 A 
ENDROOT
BRANCH   1  12
HETATM   12  N   UNL     1      45.635 -28.683   1.152  1.00  0.00    -0.252 N 
HETATM   13  H   UNL     1      45.778 -27.798   0.667  1.00  0.00     0.191 HD
BRANCH  12  14
HETATM   14  C   UNL     1      44.441 -29.343   1.029  1.00  0.00     0.192 C 
HETATM   15  N   UNL     1      43.844 -29.432  -0.193  1.00  0.00    -0.332 N 
HETATM   16  H   UNL     1      42.904 -29.795  -0.091  1.00  0.00     0.168 HD
HETATM   17  S   UNL     1      43.592 -30.043   2.305  1.00  0.00    -0.039 SA
BRANCH  15  18
HETATM   18  C   UNL     1      44.283 -29.267  -1.526  1.00  0.00     0.040 A 
HETATM   19  C   UNL     1      44.387 -30.425  -2.348  1.00  0.00    -0.029 A 
HETATM   20  C   UNL     1      44.917 -30.313  -3.657  1.00  0.00    -0.054 A 
HETATM   21  C   UNL     1      43.972 -31.780  -1.815  1.00  0.00     0.051 C 
HETATM   22  C   UNL     1      45.108 -31.508  -4.553  1.00  0.00     0.049 C 
HETATM   23  C   UNL     1      45.280 -29.052  -4.147  1.00  0.00     0.007 A 
HETATM   24  C   UNL     1      45.171 -27.923  -3.344  1.00  0.00     0.003 A 
HETATM   25  C   UNL     1      44.699 -28.033  -2.037  1.00  0.00     0.030 A 
ENDBRANCH  15  18
ENDBRANCH  12  14
ENDBRANCH   1  12
BRANCH   5  26
HETATM   26  C   UNL     1      50.555 -30.213  -0.506  1.00  0.00     0.405 C 
BRANCH  26  27
HETATM   27  N   UNL     1      50.336 -31.511  -1.145  1.00  0.00     0.106 N 
HETATM   28  C   UNL     1      50.707 -31.528  -2.568  1.00  0.00     0.274 C 
HETATM   29  C   UNL     1      52.217 -31.537  -2.825  1.00  0.00     0.030 C 
HETATM   30  C   UNL     1      52.906 -32.661  -2.060  1.00  0.00     0.003 C 
HETATM   31  C   UNL     1      52.519 -32.630  -0.585  1.00  0.00     0.030 C 
HETATM   32  C   UNL     1      50.999 -32.603  -0.419  1.00  0.00     0.274 C 
ENDBRANCH  26  27
ENDBRANCH   5  26
TORSDOF 5
ENDMDL
MODEL 7
REMARK VINA RESULT:      -8.1      2.886      8.924
REMARK  5 active torsions:
REMARK  status: ('A' for Active; 'I' for Inactive)
REMARK    1  A    between atoms: C_5  and  N_6 
REMARK    2  A    between atoms: C_7  and  N_8 
REMARK    3  A    between atoms: N_8  and  N_9 
REMARK    4  A    between atoms: N_13  and  C_14 
REMARK    5  A    between atoms: C_14  and  N_15 
ROOT
HETATM    1  N   UNL     1      41.798 -11.719   5.597  1.00  0.00    -0.166 NA
HETATM    2  C   UNL     1      42.277 -10.893   6.468  1.00  0.00     0.157 A 
HETATM    3  C   UNL     1      41.557  -9.862   7.334  1.00  0.00     0.281 A 
HETATM    4  O   UNL     1      40.352  -9.708   7.340  1.00  0.00    -0.265 OA
HETATM    5  N   UNL     1      42.552  -9.229   8.057  1.00  0.00    -0.284 N 
HETATM    6  C   UNL     1      43.692 -10.787   6.799  1.00  0.00     0.027 A 
HETATM    7  C   UNL     1      43.811  -9.785   7.759  1.00  0.00     0.052 A 
HETATM    8  C   UNL     1      45.053  -9.466   8.275  1.00  0.00     0.031 A 
HETATM    9  C   UNL     1      46.166 -10.172   7.799  1.00  0.00     0.002 A 
HETATM   10  C   UNL     1      46.027 -11.183   6.828  1.00  0.00     0.001 A 
HETATM   11  C   UNL     1      44.770 -11.502   6.315  1.00  0.00     0.016 A 
ENDROOT
BRANCH   1  12
HETATM   12  N   UNL     1      40.449 -11.726   5.374  1.00  0.00    -0.252 N 
HETATM   13  H   UNL     1      39.859 -12.272   6.001  1.00  0.00     0.191 HD
BRANCH  12  14
HETATM   14  C   UNL     1      39.936 -11.251   4.197  1.00  0.00     0.192 C 
HETATM   15  N   UNL     1      40.101 -11.969   3.051  1.00  0.00    -0.332 N 
HETATM   16  H   UNL     1      39.818 -11.413   2.253  1.00  0.00     0.168 HD
HETATM   17  S   UNL     1      39.125  -9.784   4.024  1.00  0.00    -0.039 SA
BRANCH  15  18
HETATM   18  C   UNL     1      40.434 -13.312   2.762  1.00  0.00     0.040 A 
HETATM   19  C   UNL     1      41.795 -13.620   2.477  1.00  0.00    -0.029 A 
HETATM   20  C   UNL     1      42.151 -14.935   2.086  1.00  0.00    -0.054 A 
HETATM   21  C   UNL     1      42.853 -12.541   2.550  1.00  0.00     0.051 C 
HETATM   22  C   UNL     1      43.561 -15.309   1.713  1.00  0.00     0.049 C 
HETATM   23  C   UNL     1      41.166 -15.930   2.040  1.00  0.00     0.007 A 
HETATM   24  C   UNL     1      39.841 -15.627   2.326  1.00  0.00     0.003 A 
HETATM   25  C   UNL     1      39.474 -14.323   2.661  1.00  0.00     0.030 A 
ENDBRANCH  15  18
ENDBRANCH  12  14
ENDBRANCH   1  12
BRANCH   5  26
HETATM   26  C   UNL     1      42.308  -8.220   9.056  1.00  0.00     0.405 C 
BRANCH  26  27
HETATM   27  N   UNL     1      41.680  -8.818  10.235  1.00  0.00     0.106 N 
HETATM   28  C   UNL     1      42.551  -9.777  10.934  1.00  0.00     0.274 C 
HETATM   29  C   UNL     1      43.685  -9.129  11.734  1.00  0.00     0.030 C 
HETATM   30  C   UNL     1      43.156  -8.063  12.688  1.00  0.00     0.003 C 
HETATM   31  C   UNL     1      42.261  -7.073  11.952  1.00  0.00     0.030 C 
HETATM   32  C   UNL     1      41.170  -7.802  11.165  1.00  0.00     0.274 C 
ENDBRANCH  26  27
ENDBRANCH   5  26
TORSDOF 5
ENDMDL
MODEL 8
REMARK VINA RESULT:      -8.0     18.209     20.513
REMARK  5 active torsions:
REMARK  status: ('A' for Active; 'I' for Inactive)
REMARK    1  A    between atoms: C_5  and  N_6 
REMARK    2  A    between atoms: C_7  and  N_8 
REMARK    3  A    between atoms: N_8  and  N_9 
REMARK    4  A    between atoms: N_13  and  C_14 
REMARK    5  A    between atoms: C_14  and  N_15 
ROOT
HETATM    1  N   UNL     1      47.570 -28.829  -1.717  1.00  0.00    -0.166 NA
HETATM    2  C   UNL     1      48.156 -29.590  -0.851  1.00  0.00     0.157 A 
HETATM    3  C   UNL     1      47.685 -30.038   0.530  1.00  0.00     0.281 A 
HETATM    4  O   UNL     1      46.605 -29.746   1.004  1.00  0.00    -0.265 OA
HETATM    5  N   UNL     1      48.714 -30.811   1.038  1.00  0.00    -0.284 N 
HETATM    6  C   UNL     1      49.467 -30.193  -1.050  1.00  0.00     0.027 A 
HETATM    7  C   UNL     1      49.760 -30.921   0.100  1.00  0.00     0.052 A 
HETATM    8  C   UNL     1      50.949 -31.617   0.194  1.00  0.00     0.031 A 
HETATM    9  C   UNL     1      51.836 -31.558  -0.890  1.00  0.00     0.002 A 
HETATM   10  C   UNL     1      51.524 -30.817  -2.047  1.00  0.00     0.001 A 
HETATM   11  C   UNL     1      50.319 -30.120  -2.136  1.00  0.00     0.016 A 
ENDROOT
BRANCH   1  12
HETATM   12  N   UNL     1      46.337 -28.323  -1.415  1.00  0.00    -0.252 N 
HETATM   13  H   UNL     1      46.168 -28.000  -0.464  1.00  0.00     0.191 HD
BRANCH  12  14
HETATM   14  C   UNL     1      45.284 -28.499  -2.273  1.00  0.00     0.192 C 
HETATM   15  N   UNL     1      44.251 -29.312  -1.915  1.00  0.00    -0.332 N 
HETATM   16  H   UNL     1      43.645 -29.468  -2.711  1.00  0.00     0.168 HD
HETATM   17  S   UNL     1      45.166 -27.808  -3.806  1.00  0.00    -0.039 SA
BRANCH  15  18
HETATM   18  C   UNL     1      43.788 -29.846  -0.691  1.00  0.00     0.040 A 
HETATM   19  C   UNL     1      43.866 -31.254  -0.500  1.00  0.00    -0.029 A 
HETATM   20  C   UNL     1      43.322 -31.836   0.672  1.00  0.00    -0.054 A 
HETATM   21  C   UNL     1      44.490 -32.135  -1.561  1.00  0.00     0.051 C 
HETATM   22  C   UNL     1      43.319 -33.324   0.905  1.00  0.00     0.049 C 
HETATM   23  C   UNL     1      42.764 -31.010   1.656  1.00  0.00     0.007 A 
HETATM   24  C   UNL     1      42.696 -29.635   1.469  1.00  0.00     0.003 A 
HETATM   25  C   UNL     1      43.183 -29.060   0.295  1.00  0.00     0.030 A 
ENDBRANCH  15  18
ENDBRANCH  12  14
ENDBRANCH   1  12
BRANCH   5  26
HETATM   26  C   UNL     1      48.663 -31.495   2.304  1.00  0.00     0.405 C 
BRANCH  26  27
HETATM   27  N   UNL     1      48.717 -30.530   3.403  1.00  0.00     0.106 N 
HETATM   28  C   UNL     1      48.542 -31.147   4.727  1.00  0.00     0.274 C 
HETATM   29  C   UNL     1      49.760 -31.936   5.219  1.00  0.00     0.030 C 
HETATM   30  C   UNL     1      51.030 -31.095   5.163  1.00  0.00     0.003 C 
HETATM   31  C   UNL     1      51.203 -30.466   3.785  1.00  0.00     0.030 C 
HETATM   32  C   UNL     1      49.939 -29.716   3.363  1.00  0.00     0.274 C 
ENDBRANCH  26  27
ENDBRANCH   5  26
TORSDOF 5
ENDMDL
MODEL 9
REMARK VINA RESULT:      -7.9      2.008      2.462
REMARK  5 active torsions:
REMARK  status: ('A' for Active; 'I' for Inactive)
REMARK    1  A    between atoms: C_5  and  N_6 
REMARK    2  A    between atoms: C_7  and  N_8 
REMARK    3  A    between atoms: N_8  and  N_9 
REMARK    4  A    between atoms: N_13  and  C_14 
REMARK    5  A    between atoms: C_14  and  N_15 
ROOT
HETATM    1  N   UNL     1      42.560 -11.355   6.804  1.00  0.00    -0.166 NA
HETATM    2  C   UNL     1      42.512 -12.099   5.748  1.00  0.00     0.157 A 
HETATM    3  C   UNL     1      42.021 -11.765   4.341  1.00  0.00     0.281 A 
HETATM    4  O   UNL     1      41.623 -10.667   4.007  1.00  0.00    -0.265 OA
HETATM    5  N   UNL     1      42.161 -12.934   3.615  1.00  0.00    -0.284 N 
HETATM    6  C   UNL     1      42.944 -13.490   5.710  1.00  0.00     0.027 A 
HETATM    7  C   UNL     1      42.723 -13.949   4.414  1.00  0.00     0.052 A 
HETATM    8  C   UNL     1      43.051 -15.248   4.076  1.00  0.00     0.031 A 
HETATM    9  C   UNL     1      43.598 -16.071   5.070  1.00  0.00     0.002 A 
HETATM   10  C   UNL     1      43.814 -15.589   6.376  1.00  0.00     0.001 A 
HETATM   11  C   UNL     1      43.484 -14.276   6.709  1.00  0.00     0.016 A 
ENDROOT
BRANCH   1  12
HETATM   12  N   UNL     1      42.127 -10.062   6.713  1.00  0.00    -0.252 N 
HETATM   13  H   UNL     1      42.773  -9.360   6.353  1.00  0.00     0.191 HD
BRANCH  12  14
HETATM   14  C   UNL     1      40.973  -9.669   7.338  1.00  0.00     0.192 C 
HETATM   15  N   UNL     1      40.962  -9.505   8.691  1.00  0.00    -0.332 N 
HETATM   16  H   UNL     1      40.010  -9.380   9.014  1.00  0.00     0.168 HD
HETATM   17  S   UNL     1      39.502  -9.400   6.562  1.00  0.00    -0.039 SA
BRANCH  15  18
HETATM   18  C   UNL     1      41.960  -9.339   9.678  1.00  0.00     0.040 A 
HETATM   19  C   UNL     1      41.583  -9.476  11.044  1.00  0.00    -0.029 A 
HETATM   20  C   UNL     1      42.533  -9.220  12.065  1.00  0.00    -0.054 A 
HETATM   21  C   UNL     1      40.164  -9.854  11.411  1.00  0.00     0.051 C 
HETATM   22  C   UNL     1      42.180  -9.289  13.527  1.00  0.00     0.049 C 
HETATM   23  C   UNL     1      43.848  -8.890  11.714  1.00  0.00     0.007 A 
HETATM   24  C   UNL     1      44.213  -8.764  10.379  1.00  0.00     0.003 A 
HETATM   25  C   UNL     1      43.271  -8.964   9.370  1.00  0.00     0.030 A 
ENDBRANCH  15  18
ENDBRANCH  12  14
ENDBRANCH   1  12
BRANCH   5  26
HETATM   26  C   UNL     1      41.873 -13.052   2.209  1.00  0.00     0.405 C 
BRANCH  26  27
HETATM   27  N   UNL     1      40.426 -13.076   1.989  1.00  0.00     0.106 N 
HETATM   28  C   UNL     1      40.026 -12.505   0.693  1.00  0.00     0.274 C 
HETATM   29  C   UNL     1      40.332 -13.402  -0.511  1.00  0.00     0.030 C 
HETATM   30  C   UNL     1      39.759 -14.802  -0.322  1.00  0.00     0.003 C 
HETATM   31  C   UNL     1      40.186 -15.386   1.021  1.00  0.00     0.030 C 
HETATM   32  C   UNL     1      39.863 -14.421   2.163  1.00  0.00     0.274 C 
ENDBRANCH  26  27
ENDBRANCH   5  26
TORSDOF 5
ENDMDL
MODEL 10
REMARK VINA RESULT:      -7.9      2.537      3.278
REMARK  5 active torsions:
REMARK  status: ('A' for Active; 'I' for Inactive)
REMARK    1  A    between atoms: C_5  and  N_6 
REMARK    2  A    between atoms: C_7  and  N_8 
REMARK    3  A    between atoms: N_8  and  N_9 
REMARK    4  A    between atoms: N_13  and  C_14 
REMARK    5  A    between atoms: C_14  and  N_15 
ROOT
HETATM    1  N   UNL     1      42.273 -12.559   5.067  1.00  0.00    -0.166 NA
HETATM    2  C   UNL     1      42.129 -13.045   3.878  1.00  0.00     0.157 A 
HETATM    3  C   UNL     1      41.576 -12.389   2.615  1.00  0.00     0.281 A 
HETATM    4  O   UNL     1      41.214 -11.230   2.559  1.00  0.00    -0.265 OA
HETATM    5  N   UNL     1      41.616 -13.370   1.641  1.00  0.00    -0.284 N 
HETATM    6  C   UNL     1      42.488 -14.407   3.505  1.00  0.00     0.027 A 
HETATM    7  C   UNL     1      42.172 -14.557   2.157  1.00  0.00     0.052 A 
HETATM    8  C   UNL     1      42.416 -15.758   1.520  1.00  0.00     0.031 A 
HETATM    9  C   UNL     1      42.977 -16.802   2.269  1.00  0.00     0.002 A 
HETATM   10  C   UNL     1      43.290 -16.632   3.632  1.00  0.00     0.001 A 
HETATM   11  C   UNL     1      43.045 -15.416   4.268  1.00  0.00     0.016 A 
ENDROOT
BRANCH   1  12
HETATM   12  N   UNL     1      41.900 -11.263   5.293  1.00  0.00    -0.252 N 
HETATM   13  H   UNL     1      42.472 -10.520   4.894  1.00  0.00     0.191 HD
BRANCH  12  14
HETATM   14  C   UNL     1      40.961 -10.966   6.245  1.00  0.00     0.192 C 
HETATM   15  N   UNL     1      41.357 -10.462   7.447  1.00  0.00    -0.332 N 
HETATM   16  H   UNL     1      40.576 -10.454   8.091  1.00  0.00     0.168 HD
HETATM   17  S   UNL     1      39.303 -11.215   6.073  1.00  0.00    -0.039 SA
BRANCH  15  18
HETATM   18  C   UNL     1      42.536  -9.845   7.924  1.00  0.00     0.040 A 
HETATM   19  C   UNL     1      42.435  -8.534   8.470  1.00  0.00    -0.029 A 
HETATM   20  C   UNL     1      43.608  -7.845   8.867  1.00  0.00    -0.054 A 
HETATM   21  C   UNL     1      41.086  -7.858   8.590  1.00  0.00     0.051 C 
HETATM   22  C   UNL     1      43.574  -6.435   9.395  1.00  0.00     0.049 C 
HETATM   23  C   UNL     1      44.850  -8.487   8.770  1.00  0.00     0.007 A 
HETATM   24  C   UNL     1      44.943  -9.769   8.243  1.00  0.00     0.003 A 
HETATM   25  C   UNL     1      43.799 -10.434   7.802  1.00  0.00     0.030 A 
ENDBRANCH  15  18
ENDBRANCH  12  14
ENDBRANCH   1  12
BRANCH   5  26
HETATM   26  C   UNL     1      41.244 -13.160   0.266  1.00  0.00     0.405 C 
BRANCH  26  27
HETATM   27  N   UNL     1      39.824 -13.458   0.075  1.00  0.00     0.106 N 
HETATM   28  C   UNL     1      39.032 -12.282  -0.319  1.00  0.00     0.274 C 
HETATM   29  C   UNL     1      39.243 -11.838  -1.770  1.00  0.00     0.030 C 
HETATM   30  C   UNL     1      39.039 -12.995  -2.742  1.00  0.00     0.003 C 
HETATM   31  C   UNL     1      39.870 -14.204  -2.327  1.00  0.00     0.030 C 
HETATM   32  C   UNL     1      39.614 -14.568  -0.864  1.00  0.00     0.274 C 
ENDBRANCH  26  27
ENDBRANCH   5  26
TORSDOF 5
ENDMDL
