MODEL 1
REMARK VINA RESULT:      -8.5      0.000      0.000
REMARK  11 active torsions:
REMARK  status: ('A' for Active; 'I' for Inactive)
REMARK    1  A    between atoms: C_3  and  C_4 
REMARK    2  A    between atoms: C_4  and  O_5 
REMARK    3  A    between atoms: C_12  and  C_13 
REMARK    4  A    between atoms: C_13  and  C_14 
REMARK    5  A    between atoms: C_15  and  C_16 
REMARK    6  A    between atoms: C_18  and  N_19 
REMARK    7  A    between atoms: N_25  and  C_26 
REMARK    8  A    between atoms: C_26  and  C_27 
REMARK    9  A    between atoms: C_27  and  C_28 
REMARK   10  A    between atoms: C_28  and  N_29 
REMARK   11  A    between atoms: C_38  and  O_39 
ROOT
HETATM    1  C   UNL     1      41.757 -13.119   5.395  1.00  0.00     0.059 C 
HETATM    2  C   UNL     1      43.149 -13.550   5.790  1.00  0.00     0.161 C 
HETATM    3  N   UNL     1      42.873 -14.689   6.652  1.00  0.00    -0.333 N 
HETATM    4  C   UNL     1      41.521 -14.958   6.694  1.00  0.00     0.278 C 
HETATM    5  O   UNL     1      41.019 -15.965   7.169  1.00  0.00    -0.265 OA
HETATM    6  C   UNL     1      40.812 -13.852   6.005  1.00  0.00     0.146 C 
ENDROOT
BRANCH   1   7
HETATM    7  C   UNL     1      41.679 -12.009   4.413  1.00  0.00     0.196 C 
HETATM    8  O   UNL     1      42.204 -10.931   4.668  1.00  0.00    -0.287 OA
BRANCH   7   9
HETATM    9  C   UNL     1      40.980 -12.241   3.152  1.00  0.00     0.045 A 
HETATM   10  C   UNL     1      41.353 -13.222   2.161  1.00  0.00    -0.013 A 
HETATM   11  C   UNL     1      42.549 -14.117   2.228  1.00  0.00     0.052 C 
HETATM   12  C   UNL     1      40.376 -13.212   1.169  1.00  0.00     0.115 A 
HETATM   13  N   UNL     1      39.475 -12.230   1.508  1.00  0.00    -0.354 N 
HETATM   14  H   UNL     1      38.648 -12.027   0.955  1.00  0.00     0.166 HD
HETATM   15  C   UNL     1      39.775 -11.689   2.734  1.00  0.00     0.020 A 
HETATM   16  C   UNL     1      38.822 -10.736   3.368  1.00  0.00     0.069 C 
BRANCH  12  17
HETATM   17  C   UNL     1      40.164 -14.013  -0.020  1.00  0.00     0.310 C 
HETATM   18  O   UNL     1      39.817 -15.187   0.007  1.00  0.00    -0.258 OA
BRANCH  17  19
HETATM   19  O   UNL     1      40.442 -13.303  -1.144  1.00  0.00    -0.321 OA
HETATM   20  C   UNL     1      39.711 -13.722  -2.297  1.00  0.00     0.213 C 
ENDBRANCH  17  19
ENDBRANCH  12  17
ENDBRANCH   7   9
ENDBRANCH   1   7
BRANCH   2  21
HETATM   21  C   UNL     1      43.988 -12.521   6.532  1.00  0.00    -0.028 A 
HETATM   22  C   UNL     1      43.601 -11.999   7.780  1.00  0.00     0.045 A 
HETATM   23  C   UNL     1      44.395 -11.031   8.417  1.00  0.00     0.103 A 
HETATM   24  C   UNL     1      45.589 -10.589   7.837  1.00  0.00     0.036 A 
HETATM   25  C   UNL     1      45.985 -11.116   6.609  1.00  0.00     0.003 A 
HETATM   26  C   UNL     1      45.193 -12.070   5.964  1.00  0.00     0.010 A 
BRANCH  23  27
HETATM   27  N   UNL     1      43.966 -10.481   9.710  1.00  0.00    -0.116 N 
HETATM   28  O   UNL     1      44.574 -10.862  10.720  1.00  0.00    -0.532 OA
HETATM   29  O   UNL     1      43.042  -9.657   9.711  1.00  0.00    -0.532 OA
ENDBRANCH  23  27
ENDBRANCH   2  21
BRANCH   6  30
HETATM   30  O   UNL     1      39.455 -13.763   6.009  1.00  0.00    -0.355 OA
HETATM   31  H   UNL     1      39.062 -14.520   5.538  1.00  0.00     0.218 HD
ENDBRANCH   6  30
BRANCH   3  32
HETATM   32  C   UNL     1      43.891 -15.670   6.982  1.00  0.00     0.129 C 
BRANCH  32  33
HETATM   33  C   UNL     1      44.550 -16.337   5.769  1.00  0.00     0.048 C 
BRANCH  33  34
HETATM   34  C   UNL     1      43.644 -16.935   4.687  1.00  0.00     0.236 C 
BRANCH  34  35
HETATM   35  N   UNL     1      44.050 -18.311   4.237  1.00  0.00    -0.067 N 
HETATM   36  H   UNL     1      45.059 -18.238   3.990  1.00  0.00     0.280 HD
HETATM   37  C   UNL     1      43.828 -19.424   5.244  1.00  0.00     0.261 C 
HETATM   38  C   UNL     1      44.331 -20.753   4.669  1.00  0.00     0.195 C 
HETATM   39  O   UNL     1      43.682 -21.057   3.431  1.00  0.00    -0.388 OA
HETATM   40  C   UNL     1      43.936 -20.049   2.444  1.00  0.00     0.195 C 
HETATM   41  C   UNL     1      43.399 -18.687   2.904  1.00  0.00     0.261 C 
ENDBRANCH  34  35
ENDBRANCH  33  34
ENDBRANCH  32  33
ENDBRANCH   3  32
TORSDOF 11
ENDMDL
MODEL 2
REMARK VINA RESULT:      -8.3      2.263      8.150
REMARK  11 active torsions:
REMARK  status: ('A' for Active; 'I' for Inactive)
REMARK    1  A    between atoms: C_3  and  C_4 
REMARK    2  A    between atoms: C_4  and  O_5 
REMARK    3  A    between atoms: C_12  and  C_13 
REMARK    4  A    between atoms: C_13  and  C_14 
REMARK    5  A    between atoms: C_15  and  C_16 
REMARK    6  A    between atoms: C_18  and  N_19 
REMARK    7  A    between atoms: N_25  and  C_26 
REMARK    8  A    between atoms: C_26  and  C_27 
REMARK    9  A    between atoms: C_27  and  C_28 
REMARK   10  A    between atoms: C_28  and  N_29 
REMARK   11  A    between atoms: C_38  and  O_39 
ROOT
HETATM    1  C   UNL     1      41.403 -13.232   4.502  1.00  0.00     0.059 C 
HETATM    2  C   UNL     1      40.779 -12.474   3.354  1.00  0.00     0.161 C 
HETATM    3  N   UNL     1      39.524 -12.028   3.941  1.00  0.00    -0.333 N 
HETATM    4  C   UNL     1      39.449 -12.386   5.270  1.00  0.00     0.278 C 
HETATM    5  O   UNL     1      38.612 -11.978   6.062  1.00  0.00    -0.265 OA
HETATM    6  C   UNL     1      40.590 -13.284   5.569  1.00  0.00     0.146 C 
ENDROOT
BRANCH   1   7
HETATM    7  C   UNL     1      42.774 -13.749   4.265  1.00  0.00     0.196 C 
HETATM    8  O   UNL     1      43.663 -12.983   3.912  1.00  0.00    -0.287 OA
BRANCH   7   9
HETATM    9  C   UNL     1      43.027 -15.172   4.471  1.00  0.00     0.045 A 
HETATM   10  C   UNL     1      43.229 -16.143   3.421  1.00  0.00    -0.013 A 
HETATM   11  C   UNL     1      43.151 -15.868   1.954  1.00  0.00     0.052 C 
HETATM   12  C   UNL     1      43.556 -17.354   4.024  1.00  0.00     0.115 A 
HETATM   13  N   UNL     1      43.500 -17.151   5.383  1.00  0.00    -0.354 N 
HETATM   14  H   UNL     1      43.715 -17.877   6.058  1.00  0.00     0.166 HD
HETATM   15  C   UNL     1      43.262 -15.829   5.673  1.00  0.00     0.020 A 
HETATM   16  C   UNL     1      43.342 -15.362   7.085  1.00  0.00     0.069 C 
BRANCH  12  17
HETATM   17  C   UNL     1      43.939 -18.650   3.500  1.00  0.00     0.310 C 
HETATM   18  O   UNL     1      43.557 -19.084   2.421  1.00  0.00    -0.258 OA
BRANCH  17  19
HETATM   19  O   UNL     1      44.730 -19.319   4.378  1.00  0.00    -0.321 OA
HETATM   20  C   UNL     1      44.208 -20.583   4.789  1.00  0.00     0.213 C 
ENDBRANCH  17  19
ENDBRANCH  12  17
ENDBRANCH   7   9
ENDBRANCH   1   7
BRANCH   2  21
HETATM   21  C   UNL     1      40.513 -13.271   2.087  1.00  0.00    -0.028 A 
HETATM   22  C   UNL     1      40.785 -12.755   0.807  1.00  0.00     0.045 A 
HETATM   23  C   UNL     1      40.499 -13.517  -0.338  1.00  0.00     0.103 A 
HETATM   24  C   UNL     1      39.965 -14.805  -0.225  1.00  0.00     0.036 A 
HETATM   25  C   UNL     1      39.711 -15.328   1.041  1.00  0.00     0.003 A 
HETATM   26  C   UNL     1      39.981 -14.569   2.184  1.00  0.00     0.010 A 
BRANCH  23  27
HETATM   27  N   UNL     1      40.770 -12.954  -1.667  1.00  0.00    -0.116 N 
HETATM   28  O   UNL     1      40.458 -13.641  -2.650  1.00  0.00    -0.532 OA
HETATM   29  O   UNL     1      41.269 -11.823  -1.726  1.00  0.00    -0.532 OA
ENDBRANCH  23  27
ENDBRANCH   2  21
BRANCH   6  30
HETATM   30  O   UNL     1      40.705 -13.918   6.767  1.00  0.00    -0.355 OA
HETATM   31  H   UNL     1      41.042 -14.824   6.643  1.00  0.00     0.218 HD
ENDBRANCH   6  30
BRANCH   3  32
HETATM   32  C   UNL     1      38.742 -10.953   3.359  1.00  0.00     0.129 C 
BRANCH  32  33
HETATM   33  C   UNL     1      39.497  -9.627   3.202  1.00  0.00     0.048 C 
BRANCH  33  34
HETATM   34  C   UNL     1      39.550  -8.675   4.403  1.00  0.00     0.236 C 
BRANCH  34  35
HETATM   35  N   UNL     1      40.168  -9.275   5.635  1.00  0.00    -0.067 N 
HETATM   36  H   UNL     1      39.707 -10.200   5.758  1.00  0.00     0.280 HD
HETATM   37  C   UNL     1      41.677  -9.433   5.603  1.00  0.00     0.261 C 
HETATM   38  C   UNL     1      42.158 -10.098   6.898  1.00  0.00     0.195 C 
HETATM   39  O   UNL     1      41.755  -9.343   8.044  1.00  0.00    -0.388 OA
HETATM   40  C   UNL     1      40.327  -9.240   8.129  1.00  0.00     0.195 C 
HETATM   41  C   UNL     1      39.759  -8.518   6.901  1.00  0.00     0.261 C 
ENDBRANCH  34  35
ENDBRANCH  33  34
ENDBRANCH  32  33
ENDBRANCH   3  32
TORSDOF 11
ENDMDL
MODEL 3
REMARK VINA RESULT:      -8.2      2.961      8.554
REMARK  11 active torsions:
REMARK  status: ('A' for Active; 'I' for Inactive)
REMARK    1  A    between atoms: C_3  and  C_4 
REMARK    2  A    between atoms: C_4  and  O_5 
REMARK    3  A    between atoms: C_12  and  C_13 
REMARK    4  A    between atoms: C_13  and  C_14 
REMARK    5  A    between atoms: C_15  and  C_16 
REMARK    6  A    between atoms: C_18  and  N_19 
REMARK    7  A    between atoms: N_25  and  C_26 
REMARK    8  A    between atoms: C_26  and  C_27 
REMARK    9  A    between atoms: C_27  and  C_28 
REMARK   10  A    between atoms: C_28  and  N_29 
REMARK   11  A    between atoms: C_38  and  O_39 
ROOT
HETATM    1  C   UNL     1      41.477 -13.457   3.913  1.00  0.00     0.059 C 
HETATM    2  C   UNL     1      40.923 -12.507   2.878  1.00  0.00     0.161 C 
HETATM    3  N   UNL     1      39.667 -12.101   3.490  1.00  0.00    -0.333 N 
HETATM    4  C   UNL     1      39.531 -12.654   4.745  1.00  0.00     0.278 C 
HETATM    5  O   UNL     1      38.683 -12.335   5.566  1.00  0.00    -0.265 OA
HETATM    6  C   UNL     1      40.626 -13.636   4.936  1.00  0.00     0.146 C 
ENDROOT
BRANCH   1   7
HETATM    7  C   UNL     1      42.834 -13.991   3.639  1.00  0.00     0.196 C 
HETATM    8  O   UNL     1      43.667 -13.285   3.083  1.00  0.00    -0.287 OA
BRANCH   7   9
HETATM    9  C   UNL     1      43.143 -15.357   4.054  1.00  0.00     0.045 A 
HETATM   10  C   UNL     1      43.197 -16.502   3.177  1.00  0.00    -0.013 A 
HETATM   11  C   UNL     1      42.885 -16.494   1.715  1.00  0.00     0.052 C 
HETATM   12  C   UNL     1      43.636 -17.588   3.928  1.00  0.00     0.115 A 
HETATM   13  N   UNL     1      43.789 -17.143   5.220  1.00  0.00    -0.354 N 
HETATM   14  H   UNL     1      44.121 -17.739   5.973  1.00  0.00     0.166 HD
HETATM   15  C   UNL     1      43.575 -15.789   5.303  1.00  0.00     0.020 A 
HETATM   16  C   UNL     1      43.866 -15.076   6.578  1.00  0.00     0.069 C 
BRANCH  12  17
HETATM   17  C   UNL     1      43.956 -18.961   3.591  1.00  0.00     0.310 C 
HETATM   18  O   UNL     1      43.628 -19.494   2.540  1.00  0.00    -0.258 OA
BRANCH  17  19
HETATM   19  O   UNL     1      44.619 -19.572   4.607  1.00  0.00    -0.321 OA
HETATM   20  C   UNL     1      44.024 -20.795   5.042  1.00  0.00     0.213 C 
ENDBRANCH  17  19
ENDBRANCH  12  17
ENDBRANCH   7   9
ENDBRANCH   1   7
BRANCH   2  21
HETATM   21  C   UNL     1      40.671 -13.090   1.496  1.00  0.00    -0.028 A 
HETATM   22  C   UNL     1      41.032 -12.408   0.319  1.00  0.00     0.045 A 
HETATM   23  C   UNL     1      40.757 -12.974  -0.937  1.00  0.00     0.103 A 
HETATM   24  C   UNL     1      40.145 -14.228  -1.039  1.00  0.00     0.036 A 
HETATM   25  C   UNL     1      39.803 -14.915   0.124  1.00  0.00     0.003 A 
HETATM   26  C   UNL     1      40.062 -14.352   1.377  1.00  0.00     0.010 A 
BRANCH  23  27
HETATM   27  N   UNL     1      41.121 -12.239  -2.156  1.00  0.00    -0.116 N 
HETATM   28  O   UNL     1      41.069 -12.856  -3.229  1.00  0.00    -0.532 OA
HETATM   29  O   UNL     1      41.433 -11.047  -2.041  1.00  0.00    -0.532 OA
ENDBRANCH  23  27
ENDBRANCH   2  21
BRANCH   6  30
HETATM   30  O   UNL     1      40.674 -14.449   6.025  1.00  0.00    -0.355 OA
HETATM   31  H   UNL     1      40.266 -14.012   6.795  1.00  0.00     0.218 HD
ENDBRANCH   6  30
BRANCH   3  32
HETATM   32  C   UNL     1      38.948 -10.917   3.057  1.00  0.00     0.129 C 
BRANCH  32  33
HETATM   33  C   UNL     1      37.911 -11.167   1.955  1.00  0.00     0.048 C 
BRANCH  33  34
HETATM   34  C   UNL     1      37.366  -9.959   1.183  1.00  0.00     0.236 C 
BRANCH  34  35
HETATM   35  N   UNL     1      37.287 -10.167  -0.304  1.00  0.00    -0.067 N 
HETATM   36  H   UNL     1      36.287 -10.017  -0.555  1.00  0.00     0.280 HD
HETATM   37  C   UNL     1      38.184  -9.275  -1.141  1.00  0.00     0.261 C 
HETATM   38  C   UNL     1      37.962  -9.564  -2.630  1.00  0.00     0.195 C 
HETATM   39  O   UNL     1      38.201 -10.943  -2.928  1.00  0.00    -0.388 OA
HETATM   40  C   UNL     1      37.315 -11.800  -2.196  1.00  0.00     0.195 C 
HETATM   41  C   UNL     1      37.518 -11.631  -0.685  1.00  0.00     0.261 C 
ENDBRANCH  34  35
ENDBRANCH  33  34
ENDBRANCH  32  33
ENDBRANCH   3  32
TORSDOF 11
ENDMDL
MODEL 4
REMARK VINA RESULT:      -8.2      1.907      7.572
REMARK  11 active torsions:
REMARK  status: ('A' for Active; 'I' for Inactive)
REMARK    1  A    between atoms: C_3  and  C_4 
REMARK    2  A    between atoms: C_4  and  O_5 
REMARK    3  A    between atoms: C_12  and  C_13 
REMARK    4  A    between atoms: C_13  and  C_14 
REMARK    5  A    between atoms: C_15  and  C_16 
REMARK    6  A    between atoms: C_18  and  N_19 
REMARK    7  A    between atoms: N_25  and  C_26 
REMARK    8  A    between atoms: C_26  and  C_27 
REMARK    9  A    between atoms: C_27  and  C_28 
REMARK   10  A    between atoms: C_28  and  N_29 
REMARK   11  A    between atoms: C_38  and  O_39 
ROOT
HETATM    1  C   UNL     1      41.561 -13.582   4.164  1.00  0.00     0.059 C 
HETATM    2  C   UNL     1      41.380 -12.134   3.779  1.00  0.00     0.161 C 
HETATM    3  N   UNL     1      40.210 -11.763   4.561  1.00  0.00    -0.333 N 
HETATM    4  C   UNL     1      39.805 -12.808   5.364  1.00  0.00     0.278 C 
HETATM    5  O   UNL     1      38.984 -12.725   6.265  1.00  0.00    -0.265 OA
HETATM    6  C   UNL     1      40.589 -14.009   4.985  1.00  0.00     0.146 C 
ENDROOT
BRANCH   1   7
HETATM    7  C   UNL     1      42.760 -14.254   3.603  1.00  0.00     0.196 C 
HETATM    8  O   UNL     1      43.425 -13.694   2.740  1.00  0.00    -0.287 OA
BRANCH   7   9
HETATM    9  C   UNL     1      43.120 -15.575   4.109  1.00  0.00     0.045 A 
HETATM   10  C   UNL     1      43.165 -16.785   3.323  1.00  0.00    -0.013 A 
HETATM   11  C   UNL     1      42.792 -16.900   1.879  1.00  0.00     0.052 C 
HETATM   12  C   UNL     1      43.663 -17.799   4.136  1.00  0.00     0.115 A 
HETATM   13  N   UNL     1      43.859 -17.250   5.382  1.00  0.00    -0.354 N 
HETATM   14  H   UNL     1      44.237 -17.777   6.163  1.00  0.00     0.166 HD
HETATM   15  C   UNL     1      43.614 -15.899   5.367  1.00  0.00     0.020 A 
HETATM   16  C   UNL     1      43.941 -15.081   6.569  1.00  0.00     0.069 C 
BRANCH  12  17
HETATM   17  C   UNL     1      44.003 -19.187   3.893  1.00  0.00     0.310 C 
HETATM   18  O   UNL     1      44.026 -20.042   4.769  1.00  0.00    -0.258 OA
BRANCH  17  19
HETATM   19  O   UNL     1      44.329 -19.390   2.591  1.00  0.00    -0.321 OA
HETATM   20  C   UNL     1      43.643 -20.483   1.979  1.00  0.00     0.213 C 
ENDBRANCH  17  19
ENDBRANCH  12  17
ENDBRANCH   7   9
ENDBRANCH   1   7
BRANCH   2  21
HETATM   21  C   UNL     1      41.137 -11.854   2.304  1.00  0.00    -0.028 A 
HETATM   22  C   UNL     1      40.318 -12.679   1.511  1.00  0.00     0.045 A 
HETATM   23  C   UNL     1      40.143 -12.396   0.146  1.00  0.00     0.103 A 
HETATM   24  C   UNL     1      40.755 -11.283  -0.439  1.00  0.00     0.036 A 
HETATM   25  C   UNL     1      41.552 -10.452   0.346  1.00  0.00     0.003 A 
HETATM   26  C   UNL     1      41.741 -10.736   1.702  1.00  0.00     0.010 A 
BRANCH  23  27
HETATM   27  N   UNL     1      39.302 -13.280  -0.673  1.00  0.00    -0.116 N 
HETATM   28  O   UNL     1      38.398 -12.751  -1.335  1.00  0.00    -0.532 OA
HETATM   29  O   UNL     1      39.560 -14.490  -0.670  1.00  0.00    -0.532 OA
ENDBRANCH  23  27
ENDBRANCH   2  21
BRANCH   6  30
HETATM   30  O   UNL     1      40.313 -15.234   5.506  1.00  0.00    -0.355 OA
HETATM   31  H   UNL     1      40.478 -15.931   4.846  1.00  0.00     0.218 HD
ENDBRANCH   6  30
BRANCH   3  32
HETATM   32  C   UNL     1      39.864 -10.377   4.820  1.00  0.00     0.129 C 
BRANCH  32  33
HETATM   33  C   UNL     1      40.994  -9.542   5.434  1.00  0.00     0.048 C 
BRANCH  33  34
HETATM   34  C   UNL     1      41.290  -9.708   6.929  1.00  0.00     0.236 C 
BRANCH  34  35
HETATM   35  N   UNL     1      42.741  -9.941   7.245  1.00  0.00    -0.067 N 
HETATM   36  H   UNL     1      43.271  -9.294   6.625  1.00  0.00     0.280 HD
HETATM   37  C   UNL     1      43.140  -9.732   8.694  1.00  0.00     0.261 C 
HETATM   38  C   UNL     1      44.647  -9.956   8.857  1.00  0.00     0.195 C 
HETATM   39  O   UNL     1      45.024 -11.263   8.414  1.00  0.00    -0.388 OA
HETATM   40  C   UNL     1      44.717 -11.457   7.028  1.00  0.00     0.195 C 
HETATM   41  C   UNL     1      43.209 -11.321   6.779  1.00  0.00     0.261 C 
ENDBRANCH  34  35
ENDBRANCH  33  34
ENDBRANCH  32  33
ENDBRANCH   3  32
TORSDOF 11
ENDMDL
MODEL 5
REMARK VINA RESULT:      -8.2      2.833      7.852
REMARK  11 active torsions:
REMARK  status: ('A' for Active; 'I' for Inactive)
REMARK    1  A    between atoms: C_3  and  C_4 
REMARK    2  A    between atoms: C_4  and  O_5 
REMARK    3  A    between atoms: C_12  and  C_13 
REMARK    4  A    between atoms: C_13  and  C_14 
REMARK    5  A    between atoms: C_15  and  C_16 
REMARK    6  A    between atoms: C_18  and  N_19 
REMARK    7  A    between atoms: N_25  and  C_26 
REMARK    8  A    between atoms: C_26  and  C_27 
REMARK    9  A    between atoms: C_27  and  C_28 
REMARK   10  A    between atoms: C_28  and  N_29 
REMARK   11  A    between atoms: C_38  and  O_39 
ROOT
HETATM    1  C   UNL     1      40.069 -14.208   1.719  1.00  0.00     0.059 C 
HETATM    2  C   UNL     1      39.504 -13.122   2.603  1.00  0.00     0.161 C 
HETATM    3  N   UNL     1      39.389 -12.011   1.671  1.00  0.00    -0.333 N 
HETATM    4  C   UNL     1      39.746 -12.400   0.397  1.00  0.00     0.278 C 
HETATM    5  O   UNL     1      39.561 -11.743  -0.617  1.00  0.00    -0.265 OA
HETATM    6  C   UNL     1      40.321 -13.764   0.478  1.00  0.00     0.146 C 
ENDROOT
BRANCH   1   7
HETATM    7  C   UNL     1      40.221 -15.542   2.352  1.00  0.00     0.196 C 
HETATM    8  O   UNL     1      39.365 -16.402   2.177  1.00  0.00    -0.287 OA
BRANCH   7   9
HETATM    9  C   UNL     1      41.405 -15.796   3.168  1.00  0.00     0.045 A 
HETATM   10  C   UNL     1      41.391 -16.189   4.557  1.00  0.00    -0.013 A 
HETATM   11  C   UNL     1      40.171 -16.338   5.408  1.00  0.00     0.052 C 
HETATM   12  C   UNL     1      42.706 -16.447   4.935  1.00  0.00     0.115 A 
HETATM   13  N   UNL     1      43.496 -16.170   3.844  1.00  0.00    -0.354 N 
HETATM   14  H   UNL     1      44.503 -16.294   3.848  1.00  0.00     0.166 HD
HETATM   15  C   UNL     1      42.729 -15.854   2.749  1.00  0.00     0.020 A 
HETATM   16  C   UNL     1      43.380 -15.696   1.419  1.00  0.00     0.069 C 
BRANCH  12  17
HETATM   17  C   UNL     1      43.305 -16.942   6.158  1.00  0.00     0.310 C 
HETATM   18  O   UNL     1      43.287 -18.119   6.493  1.00  0.00    -0.258 OA
BRANCH  17  19
HETATM   19  O   UNL     1      43.839 -15.928   6.886  1.00  0.00    -0.321 OA
HETATM   20  C   UNL     1      42.940 -15.351   7.834  1.00  0.00     0.213 C 
ENDBRANCH  17  19
ENDBRANCH  12  17
ENDBRANCH   7   9
ENDBRANCH   1   7
BRANCH   2  21
HETATM   21  C   UNL     1      40.350 -12.719   3.801  1.00  0.00    -0.028 A 
HETATM   22  C   UNL     1      41.680 -12.283   3.664  1.00  0.00     0.045 A 
HETATM   23  C   UNL     1      42.433 -11.945   4.801  1.00  0.00     0.103 A 
HETATM   24  C   UNL     1      41.868 -12.012   6.079  1.00  0.00     0.036 A 
HETATM   25  C   UNL     1      40.545 -12.425   6.218  1.00  0.00     0.003 A 
HETATM   26  C   UNL     1      39.795 -12.776   5.092  1.00  0.00     0.010 A 
BRANCH  23  27
HETATM   27  N   UNL     1      43.828 -11.512   4.642  1.00  0.00    -0.116 N 
HETATM   28  O   UNL     1      44.261 -11.404   3.485  1.00  0.00    -0.532 OA
HETATM   29  O   UNL     1      44.477 -11.261   5.665  1.00  0.00    -0.532 OA
ENDBRANCH  23  27
ENDBRANCH   2  21
BRANCH   6  30
HETATM   30  O   UNL     1      40.897 -14.361  -0.600  1.00  0.00    -0.355 OA
HETATM   31  H   UNL     1      40.342 -14.244  -1.392  1.00  0.00     0.218 HD
ENDBRANCH   6  30
BRANCH   3  32
HETATM   32  C   UNL     1      38.553 -10.857   1.947  1.00  0.00     0.129 C 
BRANCH  32  33
HETATM   33  C   UNL     1      39.325  -9.576   2.284  1.00  0.00     0.048 C 
BRANCH  33  34
HETATM   34  C   UNL     1      39.364  -8.455   1.238  1.00  0.00     0.236 C 
BRANCH  34  35
HETATM   35  N   UNL     1      39.948  -8.870  -0.084  1.00  0.00    -0.067 N 
HETATM   36  H   UNL     1      39.843  -9.905  -0.125  1.00  0.00     0.280 HD
HETATM   37  C   UNL     1      39.326  -8.225  -1.308  1.00  0.00     0.261 C 
HETATM   38  C   UNL     1      39.984  -8.776  -2.578  1.00  0.00     0.195 C 
HETATM   39  O   UNL     1      41.399  -8.561  -2.559  1.00  0.00    -0.388 OA
HETATM   40  C   UNL     1      42.015  -9.221  -1.445  1.00  0.00     0.195 C 
HETATM   41  C   UNL     1      41.466  -8.679  -0.119  1.00  0.00     0.261 C 
ENDBRANCH  34  35
ENDBRANCH  33  34
ENDBRANCH  32  33
ENDBRANCH   3  32
TORSDOF 11
ENDMDL
MODEL 6
REMARK VINA RESULT:      -8.1      2.350      6.773
REMARK  11 active torsions:
REMARK  status: ('A' for Active; 'I' for Inactive)
REMARK    1  A    between atoms: C_3  and  C_4 
REMARK    2  A    between atoms: C_4  and  O_5 
REMARK    3  A    between atoms: C_12  and  C_13 
REMARK    4  A    between atoms: C_13  and  C_14 
REMARK    5  A    between atoms: C_15  and  C_16 
REMARK    6  A    between atoms: C_18  and  N_19 
REMARK    7  A    between atoms: N_25  and  C_26 
REMARK    8  A    between atoms: C_26  and  C_27 
REMARK    9  A    between atoms: C_27  and  C_28 
REMARK   10  A    between atoms: C_28  and  N_29 
REMARK   11  A    between atoms: C_38  and  O_39 
ROOT
HETATM    1  C   UNL     1      41.573 -12.195   3.914  1.00  0.00     0.059 C 
HETATM    2  C   UNL     1      41.883 -12.640   5.323  1.00  0.00     0.161 C 
HETATM    3  N   UNL     1      43.296 -12.312   5.433  1.00  0.00    -0.333 N 
HETATM    4  C   UNL     1      43.745 -11.680   4.293  1.00  0.00     0.278 C 
HETATM    5  O   UNL     1      44.823 -11.116   4.180  1.00  0.00    -0.265 OA
HETATM    6  C   UNL     1      42.668 -11.750   3.276  1.00  0.00     0.146 C 
ENDROOT
BRANCH   1   7
HETATM    7  C   UNL     1      40.152 -12.302   3.500  1.00  0.00     0.196 C 
HETATM    8  O   UNL     1      39.269 -11.881   4.239  1.00  0.00    -0.287 OA
BRANCH   7   9
HETATM    9  C   UNL     1      39.846 -12.905   2.206  1.00  0.00     0.045 A 
HETATM   10  C   UNL     1      39.607 -12.175   0.984  1.00  0.00    -0.013 A 
HETATM   11  C   UNL     1      39.571 -10.686   0.851  1.00  0.00     0.052 C 
HETATM   12  C   UNL     1      39.469 -13.106  -0.043  1.00  0.00     0.115 A 
HETATM   13  N   UNL     1      39.561 -14.351   0.534  1.00  0.00    -0.354 N 
HETATM   14  H   UNL     1      39.510 -15.211  -0.002  1.00  0.00     0.166 HD
HETATM   15  C   UNL     1      39.865 -14.253   1.870  1.00  0.00     0.020 A 
HETATM   16  C   UNL     1      40.188 -15.486   2.641  1.00  0.00     0.069 C 
BRANCH  12  17
HETATM   17  C   UNL     1      39.296 -12.981  -1.476  1.00  0.00     0.310 C 
HETATM   18  O   UNL     1      40.184 -12.619  -2.237  1.00  0.00    -0.258 OA
BRANCH  17  19
HETATM   19  O   UNL     1      38.021 -13.272  -1.842  1.00  0.00    -0.321 OA
HETATM   20  C   UNL     1      37.347 -12.208  -2.515  1.00  0.00     0.213 C 
ENDBRANCH  17  19
ENDBRANCH  12  17
ENDBRANCH   7   9
ENDBRANCH   1   7
BRANCH   2  21
HETATM   21  C   UNL     1      41.660 -14.113   5.629  1.00  0.00    -0.028 A 
HETATM   22  C   UNL     1      42.586 -15.104   5.255  1.00  0.00     0.045 A 
HETATM   23  C   UNL     1      42.326 -16.456   5.536  1.00  0.00     0.103 A 
HETATM   24  C   UNL     1      41.161 -16.835   6.209  1.00  0.00     0.036 A 
HETATM   25  C   UNL     1      40.249 -15.856   6.598  1.00  0.00     0.003 A 
HETATM   26  C   UNL     1      40.496 -14.510   6.310  1.00  0.00     0.010 A 
BRANCH  23  27
HETATM   27  N   UNL     1      43.295 -17.479   5.119  1.00  0.00    -0.116 N 
HETATM   28  O   UNL     1      43.530 -18.397   5.918  1.00  0.00    -0.532 OA
HETATM   29  O   UNL     1      43.797 -17.376   3.993  1.00  0.00    -0.532 OA
ENDBRANCH  23  27
ENDBRANCH   2  21
BRANCH   6  30
HETATM   30  O   UNL     1      42.868 -11.338   1.996  1.00  0.00    -0.355 OA
HETATM   31  H   UNL     1      42.382 -10.511   1.823  1.00  0.00     0.218 HD
ENDBRANCH   6  30
BRANCH   3  32
HETATM   32  C   UNL     1      43.964 -12.207   6.719  1.00  0.00     0.129 C 
BRANCH  32  33
HETATM   33  C   UNL     1      43.587 -10.964   7.533  1.00  0.00     0.048 C 
BRANCH  33  34
HETATM   34  C   UNL     1      44.226 -10.780   8.915  1.00  0.00     0.236 C 
BRANCH  34  35
HETATM   35  N   UNL     1      43.237 -10.535  10.020  1.00  0.00    -0.067 N 
HETATM   36  H   UNL     1      42.560 -11.324   9.971  1.00  0.00     0.280 HD
HETATM   37  C   UNL     1      43.824 -10.426  11.415  1.00  0.00     0.261 C 
HETATM   38  C   UNL     1      42.701 -10.226  12.438  1.00  0.00     0.195 C 
HETATM   39  O   UNL     1      41.922  -9.067  12.128  1.00  0.00    -0.388 OA
HETATM   40  C   UNL     1      41.303  -9.180  10.840  1.00  0.00     0.195 C 
HETATM   41  C   UNL     1      42.360  -9.313   9.736  1.00  0.00     0.261 C 
ENDBRANCH  34  35
ENDBRANCH  33  34
ENDBRANCH  32  33
ENDBRANCH   3  32
TORSDOF 11
ENDMDL
MODEL 7
REMARK VINA RESULT:      -8.1      2.475      5.146
REMARK  11 active torsions:
REMARK  status: ('A' for Active; 'I' for Inactive)
REMARK    1  A    between atoms: C_3  and  C_4 
REMARK    2  A    between atoms: C_4  and  O_5 
REMARK    3  A    between atoms: C_12  and  C_13 
REMARK    4  A    between atoms: C_13  and  C_14 
REMARK    5  A    between atoms: C_15  and  C_16 
REMARK    6  A    between atoms: C_18  and  N_19 
REMARK    7  A    between atoms: N_25  and  C_26 
REMARK    8  A    between atoms: C_26  and  C_27 
REMARK    9  A    between atoms: C_27  and  C_28 
REMARK   10  A    between atoms: C_28  and  N_29 
REMARK   11  A    between atoms: C_38  and  O_39 
ROOT
HETATM    1  C   UNL     1      40.547 -12.388   1.548  1.00  0.00     0.059 C 
HETATM    2  C   UNL     1      41.584 -13.337   2.100  1.00  0.00     0.161 C 
HETATM    3  N   UNL     1      41.249 -14.574   1.409  1.00  0.00    -0.333 N 
HETATM    4  C   UNL     1      40.224 -14.373   0.510  1.00  0.00     0.278 C 
HETATM    5  O   UNL     1      39.871 -15.173  -0.344  1.00  0.00    -0.265 OA
HETATM    6  C   UNL     1      39.689 -13.006   0.722  1.00  0.00     0.146 C 
ENDROOT
BRANCH   1   7
HETATM    7  C   UNL     1      40.670 -10.974   1.984  1.00  0.00     0.196 C 
HETATM    8  O   UNL     1      41.553 -10.265   1.515  1.00  0.00    -0.287 OA
BRANCH   7   9
HETATM    9  C   UNL     1      39.717 -10.462   2.965  1.00  0.00     0.045 A 
HETATM   10  C   UNL     1      40.032 -10.114   4.329  1.00  0.00    -0.013 A 
HETATM   11  C   UNL     1      41.367 -10.279   4.984  1.00  0.00     0.052 C 
HETATM   12  C   UNL     1      38.890  -9.557   4.898  1.00  0.00     0.115 A 
HETATM   13  N   UNL     1      37.902  -9.615   3.943  1.00  0.00    -0.354 N 
HETATM   14  H   UNL     1      36.966  -9.255   4.097  1.00  0.00     0.166 HD
HETATM   15  C   UNL     1      38.398 -10.082   2.750  1.00  0.00     0.020 A 
HETATM   16  C   UNL     1      37.536 -10.051   1.535  1.00  0.00     0.069 C 
BRANCH  12  17
HETATM   17  C   UNL     1      38.617  -8.960   6.190  1.00  0.00     0.310 C 
HETATM   18  O   UNL     1      38.263  -7.797   6.337  1.00  0.00    -0.258 OA
BRANCH  17  19
HETATM   19  O   UNL     1      38.848  -9.842   7.196  1.00  0.00    -0.321 OA
HETATM   20  C   UNL     1      39.685  -9.337   8.236  1.00  0.00     0.213 C 
ENDBRANCH  17  19
ENDBRANCH  12  17
ENDBRANCH   7   9
ENDBRANCH   1   7
BRANCH   2  21
HETATM   21  C   UNL     1      41.566 -13.554   3.605  1.00  0.00    -0.028 A 
HETATM   22  C   UNL     1      42.738 -13.508   4.381  1.00  0.00     0.045 A 
HETATM   23  C   UNL     1      42.677 -13.739   5.766  1.00  0.00     0.103 A 
HETATM   24  C   UNL     1      41.455 -13.993   6.396  1.00  0.00     0.036 A 
HETATM   25  C   UNL     1      40.288 -14.021   5.634  1.00  0.00     0.003 A 
HETATM   26  C   UNL     1      40.344 -13.805   4.254  1.00  0.00     0.010 A 
BRANCH  23  27
HETATM   27  N   UNL     1      43.914 -13.709   6.558  1.00  0.00    -0.116 N 
HETATM   28  O   UNL     1      44.269 -12.613   7.016  1.00  0.00    -0.532 OA
HETATM   29  O   UNL     1      44.511 -14.777   6.740  1.00  0.00    -0.532 OA
ENDBRANCH  23  27
ENDBRANCH   2  21
BRANCH   6  30
HETATM   30  O   UNL     1      38.573 -12.569   0.078  1.00  0.00    -0.355 OA
HETATM   31  H   UNL     1      38.420 -13.089  -0.731  1.00  0.00     0.218 HD
ENDBRANCH   6  30
BRANCH   3  32
HETATM   32  C   UNL     1      42.183 -15.682   1.320  1.00  0.00     0.129 C 
BRANCH  32  33
HETATM   33  C   UNL     1      42.013 -16.748   2.409  1.00  0.00     0.048 C 
BRANCH  33  34
HETATM   34  C   UNL     1      43.172 -16.978   3.387  1.00  0.00     0.236 C 
BRANCH  34  35
HETATM   35  N   UNL     1      43.767 -18.357   3.320  1.00  0.00    -0.067 N 
HETATM   36  H   UNL     1      44.734 -18.228   2.954  1.00  0.00     0.280 HD
HETATM   37  C   UNL     1      43.792 -19.126   4.627  1.00  0.00     0.261 C 
HETATM   38  C   UNL     1      44.467 -20.487   4.417  1.00  0.00     0.195 C 
HETATM   39  O   UNL     1      43.799 -21.241   3.401  1.00  0.00    -0.388 OA
HETATM   40  C   UNL     1      43.824 -20.560   2.140  1.00  0.00     0.195 C 
HETATM   41  C   UNL     1      43.103 -19.209   2.236  1.00  0.00     0.261 C 
ENDBRANCH  34  35
ENDBRANCH  33  34
ENDBRANCH  32  33
ENDBRANCH   3  32
TORSDOF 11
ENDMDL
MODEL 8
REMARK VINA RESULT:      -7.9      2.780      7.897
REMARK  11 active torsions:
REMARK  status: ('A' for Active; 'I' for Inactive)
REMARK    1  A    between atoms: C_3  and  C_4 
REMARK    2  A    between atoms: C_4  and  O_5 
REMARK    3  A    between atoms: C_12  and  C_13 
REMARK    4  A    between atoms: C_13  and  C_14 
REMARK    5  A    between atoms: C_15  and  C_16 
REMARK    6  A    between atoms: C_18  and  N_19 
REMARK    7  A    between atoms: N_25  and  C_26 
REMARK    8  A    between atoms: C_26  and  C_27 
REMARK    9  A    between atoms: C_27  and  C_28 
REMARK   10  A    between atoms: C_28  and  N_29 
REMARK   11  A    between atoms: C_38  and  O_39 
ROOT
HETATM    1  C   UNL     1      40.168 -14.119   1.800  1.00  0.00     0.059 C 
HETATM    2  C   UNL     1      39.666 -13.018   2.703  1.00  0.00     0.161 C 
HETATM    3  N   UNL     1      39.577 -11.896   1.780  1.00  0.00    -0.333 N 
HETATM    4  C   UNL     1      39.890 -12.289   0.497  1.00  0.00     0.278 C 
HETATM    5  O   UNL     1      39.709 -11.618  -0.509  1.00  0.00    -0.265 OA
HETATM    6  C   UNL     1      40.411 -13.677   0.556  1.00  0.00     0.146 C 
ENDROOT
BRANCH   1   7
HETATM    7  C   UNL     1      40.279 -15.462   2.421  1.00  0.00     0.196 C 
HETATM    8  O   UNL     1      39.394 -16.292   2.243  1.00  0.00    -0.287 OA
BRANCH   7   9
HETATM    9  C   UNL     1      41.458 -15.763   3.227  1.00  0.00     0.045 A 
HETATM   10  C   UNL     1      41.438 -16.186   4.607  1.00  0.00    -0.013 A 
HETATM   11  C   UNL     1      40.216 -16.325   5.458  1.00  0.00     0.052 C 
HETATM   12  C   UNL     1      42.747 -16.483   4.977  1.00  0.00     0.115 A 
HETATM   13  N   UNL     1      43.541 -16.200   3.890  1.00  0.00    -0.354 N 
HETATM   14  H   UNL     1      44.546 -16.347   3.889  1.00  0.00     0.166 HD
HETATM   15  C   UNL     1      42.780 -15.841   2.805  1.00  0.00     0.020 A 
HETATM   16  C   UNL     1      43.432 -15.669   1.476  1.00  0.00     0.069 C 
BRANCH  12  17
HETATM   17  C   UNL     1      43.337 -17.019   6.187  1.00  0.00     0.310 C 
HETATM   18  O   UNL     1      43.299 -18.204   6.492  1.00  0.00    -0.258 OA
BRANCH  17  19
HETATM   19  O   UNL     1      43.888 -16.033   6.941  1.00  0.00    -0.321 OA
HETATM   20  C   UNL     1      42.986 -15.435   7.872  1.00  0.00     0.213 C 
ENDBRANCH  17  19
ENDBRANCH  12  17
ENDBRANCH   7   9
ENDBRANCH   1   7
BRANCH   2  21
HETATM   21  C   UNL     1      40.554 -12.658   3.884  1.00  0.00    -0.028 A 
HETATM   22  C   UNL     1      41.876 -12.207   3.716  1.00  0.00     0.045 A 
HETATM   23  C   UNL     1      42.669 -11.910   4.838  1.00  0.00     0.103 A 
HETATM   24  C   UNL     1      42.152 -12.033   6.132  1.00  0.00     0.036 A 
HETATM   25  C   UNL     1      40.838 -12.462   6.302  1.00  0.00     0.003 A 
HETATM   26  C   UNL     1      40.048 -12.772   5.191  1.00  0.00     0.010 A 
BRANCH  23  27
HETATM   27  N   UNL     1      44.054 -11.460   4.645  1.00  0.00    -0.116 N 
HETATM   28  O   UNL     1      44.496 -11.462   3.487  1.00  0.00    -0.532 OA
HETATM   29  O   UNL     1      44.685 -11.087   5.642  1.00  0.00    -0.532 OA
ENDBRANCH  23  27
ENDBRANCH   2  21
BRANCH   6  30
HETATM   30  O   UNL     1      40.938 -14.289  -0.538  1.00  0.00    -0.355 OA
HETATM   31  H   UNL     1      40.671 -15.225  -0.568  1.00  0.00     0.218 HD
ENDBRANCH   6  30
BRANCH   3  32
HETATM   32  C   UNL     1      38.795 -10.711   2.083  1.00  0.00     0.129 C 
BRANCH  32  33
HETATM   33  C   UNL     1      39.578  -9.395   2.014  1.00  0.00     0.048 C 
BRANCH  33  34
HETATM   34  C   UNL     1      40.489  -9.029   3.192  1.00  0.00     0.236 C 
BRANCH  34  35
HETATM   35  N   UNL     1      39.809  -8.225   4.266  1.00  0.00    -0.067 N 
HETATM   36  H   UNL     1      40.475  -7.463   4.509  1.00  0.00     0.280 HD
HETATM   37  C   UNL     1      38.454  -7.650   3.898  1.00  0.00     0.261 C 
HETATM   38  C   UNL     1      37.908  -6.820   5.065  1.00  0.00     0.195 C 
HETATM   39  O   UNL     1      37.815  -7.607   6.257  1.00  0.00    -0.388 OA
HETATM   40  C   UNL     1      39.097  -8.104   6.659  1.00  0.00     0.195 C 
HETATM   41  C   UNL     1      39.695  -9.010   5.575  1.00  0.00     0.261 C 
ENDBRANCH  34  35
ENDBRANCH  33  34
ENDBRANCH  32  33
ENDBRANCH   3  32
TORSDOF 11
ENDMDL
MODEL 9
REMARK VINA RESULT:      -7.9     16.018     18.792
REMARK  11 active torsions:
REMARK  status: ('A' for Active; 'I' for Inactive)
REMARK    1  A    between atoms: C_3  and  C_4 
REMARK    2  A    between atoms: C_4  and  O_5 
REMARK    3  A    between atoms: C_12  and  C_13 
REMARK    4  A    between atoms: C_13  and  C_14 
REMARK    5  A    between atoms: C_15  and  C_16 
REMARK    6  A    between atoms: C_18  and  N_19 
REMARK    7  A    between atoms: N_25  and  C_26 
REMARK    8  A    between atoms: C_26  and  C_27 
REMARK    9  A    between atoms: C_27  and  C_28 
REMARK   10  A    between atoms: C_28  and  N_29 
REMARK   11  A    between atoms: C_38  and  O_39 
ROOT
HETATM    1  C   UNL     1      46.286 -29.716   1.973  1.00  0.00     0.059 C 
HETATM    2  C   UNL     1      44.976 -29.227   1.403  1.00  0.00     0.161 C 
HETATM    3  N   UNL     1      44.024 -30.131   2.030  1.00  0.00    -0.333 N 
HETATM    4  C   UNL     1      44.659 -30.976   2.915  1.00  0.00     0.278 C 
HETATM    5  O   UNL     1      44.096 -31.699   3.725  1.00  0.00    -0.265 OA
HETATM    6  C   UNL     1      46.122 -30.797   2.752  1.00  0.00     0.146 C 
ENDROOT
BRANCH   1   7
HETATM    7  C   UNL     1      47.486 -28.925   1.603  1.00  0.00     0.196 C 
HETATM    8  O   UNL     1      47.448 -27.701   1.648  1.00  0.00    -0.287 OA
BRANCH   7   9
HETATM    9  C   UNL     1      48.694 -29.639   1.200  1.00  0.00     0.045 A 
HETATM   10  C   UNL     1      49.073 -29.933  -0.162  1.00  0.00    -0.013 A 
HETATM   11  C   UNL     1      48.265 -29.614  -1.379  1.00  0.00     0.052 C 
HETATM   12  C   UNL     1      50.337 -30.516  -0.132  1.00  0.00     0.115 A 
HETATM   13  N   UNL     1      50.692 -30.627   1.192  1.00  0.00    -0.354 N 
HETATM   14  H   UNL     1      51.584 -31.007   1.492  1.00  0.00     0.166 HD
HETATM   15  C   UNL     1      49.756 -30.036   2.004  1.00  0.00     0.020 A 
HETATM   16  C   UNL     1      50.036 -29.886   3.459  1.00  0.00     0.069 C 
BRANCH  12  17
HETATM   17  C   UNL     1      51.253 -30.947  -1.168  1.00  0.00     0.310 C 
HETATM   18  O   UNL     1      51.670 -30.211  -2.053  1.00  0.00    -0.258 OA
BRANCH  17  19
HETATM   19  O   UNL     1      51.543 -32.268  -1.046  1.00  0.00    -0.321 OA
HETATM   20  C   UNL     1      52.940 -32.561  -1.022  1.00  0.00     0.213 C 
ENDBRANCH  17  19
ENDBRANCH  12  17
ENDBRANCH   7   9
ENDBRANCH   1   7
BRANCH   2  21
HETATM   21  C   UNL     1      44.836 -29.284  -0.110  1.00  0.00    -0.028 A 
HETATM   22  C   UNL     1      44.546 -30.480  -0.791  1.00  0.00     0.045 A 
HETATM   23  C   UNL     1      44.451 -30.490  -2.193  1.00  0.00     0.103 A 
HETATM   24  C   UNL     1      44.619 -29.313  -2.930  1.00  0.00     0.036 A 
HETATM   25  C   UNL     1      44.889 -28.122  -2.259  1.00  0.00     0.003 A 
HETATM   26  C   UNL     1      44.997 -28.108  -0.865  1.00  0.00     0.010 A 
BRANCH  23  27
HETATM   27  N   UNL     1      44.168 -31.753  -2.888  1.00  0.00    -0.116 N 
HETATM   28  O   UNL     1      43.739 -32.694  -2.206  1.00  0.00    -0.532 OA
HETATM   29  O   UNL     1      44.353 -31.793  -4.112  1.00  0.00    -0.532 OA
ENDBRANCH  23  27
ENDBRANCH   2  21
BRANCH   6  30
HETATM   30  O   UNL     1      47.015 -31.600   3.390  1.00  0.00    -0.355 OA
HETATM   31  H   UNL     1      47.894 -31.528   2.976  1.00  0.00     0.218 HD
ENDBRANCH   6  30
BRANCH   3  32
HETATM   32  C   UNL     1      42.604 -29.834   2.091  1.00  0.00     0.129 C 
BRANCH  32  33
HETATM   33  C   UNL     1      41.698 -30.922   1.504  1.00  0.00     0.048 C 
BRANCH  33  34
HETATM   34  C   UNL     1      40.573 -31.482   2.382  1.00  0.00     0.236 C 
BRANCH  34  35
HETATM   35  N   UNL     1      41.028 -31.956   3.734  1.00  0.00    -0.067 N 
HETATM   36  H   UNL     1      42.031 -31.688   3.803  1.00  0.00     0.280 HD
HETATM   37  C   UNL     1      40.250 -31.410   4.918  1.00  0.00     0.261 C 
HETATM   38  C   UNL     1      40.853 -31.938   6.224  1.00  0.00     0.195 C 
HETATM   39  O   UNL     1      40.864 -33.368   6.245  1.00  0.00    -0.388 OA
HETATM   40  C   UNL     1      41.651 -33.903   5.173  1.00  0.00     0.195 C 
HETATM   41  C   UNL     1      41.076 -33.483   3.814  1.00  0.00     0.261 C 
ENDBRANCH  34  35
ENDBRANCH  33  34
ENDBRANCH  32  33
ENDBRANCH   3  32
TORSDOF 11
ENDMDL
MODEL 10
REMARK VINA RESULT:      -7.8      2.638      5.144
REMARK  11 active torsions:
REMARK  status: ('A' for Active; 'I' for Inactive)
REMARK    1  A    between atoms: C_3  and  C_4 
REMARK    2  A    between atoms: C_4  and  O_5 
REMARK    3  A    between atoms: C_12  and  C_13 
REMARK    4  A    between atoms: C_13  and  C_14 
REMARK    5  A    between atoms: C_15  and  C_16 
REMARK    6  A    between atoms: C_18  and  N_19 
REMARK    7  A    between atoms: N_25  and  C_26 
REMARK    8  A    between atoms: C_26  and  C_27 
REMARK    9  A    between atoms: C_27  and  C_28 
REMARK   10  A    between atoms: C_28  and  N_29 
REMARK   11  A    between atoms: C_38  and  O_39 
ROOT
HETATM    1  C   UNL     1      40.671 -12.196   1.048  1.00  0.00     0.059 C 
HETATM    2  C   UNL     1      41.770 -13.053   1.629  1.00  0.00     0.161 C 
HETATM    3  N   UNL     1      41.347 -14.387   1.229  1.00  0.00    -0.333 N 
HETATM    4  C   UNL     1      40.214 -14.329   0.446  1.00  0.00     0.278 C 
HETATM    5  O   UNL     1      39.752 -15.263  -0.192  1.00  0.00    -0.265 OA
HETATM    6  C   UNL     1      39.712 -12.934   0.468  1.00  0.00     0.146 C 
ENDROOT
BRANCH   1   7
HETATM    7  C   UNL     1      40.850 -10.730   1.195  1.00  0.00     0.196 C 
HETATM    8  O   UNL     1      41.897 -10.204   0.836  1.00  0.00    -0.287 OA
BRANCH   7   9
HETATM    9  C   UNL     1      39.756  -9.947   1.761  1.00  0.00     0.045 A 
HETATM   10  C   UNL     1      39.673  -9.501   3.132  1.00  0.00    -0.013 A 
HETATM   11  C   UNL     1      40.658  -9.817   4.212  1.00  0.00     0.052 C 
HETATM   12  C   UNL     1      38.547  -8.690   3.244  1.00  0.00     0.115 A 
HETATM   13  N   UNL     1      37.934  -8.686   2.013  1.00  0.00    -0.354 N 
HETATM   14  H   UNL     1      37.094  -8.152   1.818  1.00  0.00     0.166 HD
HETATM   15  C   UNL     1      38.685  -9.370   1.088  1.00  0.00     0.020 A 
HETATM   16  C   UNL     1      38.292  -9.333  -0.348  1.00  0.00     0.069 C 
BRANCH  12  17
HETATM   17  C   UNL     1      37.996  -7.906   4.331  1.00  0.00     0.310 C 
HETATM   18  O   UNL     1      37.467  -8.396   5.320  1.00  0.00    -0.258 OA
BRANCH  17  19
HETATM   19  O   UNL     1      38.107  -6.576   4.080  1.00  0.00    -0.321 OA
HETATM   20  C   UNL     1      36.924  -5.826   4.362  1.00  0.00     0.213 C 
ENDBRANCH  17  19
ENDBRANCH  12  17
ENDBRANCH   7   9
ENDBRANCH   1   7
BRANCH   2  21
HETATM   21  C   UNL     1      41.948 -12.989   3.138  1.00  0.00    -0.028 A 
HETATM   22  C   UNL     1      40.900 -13.281   4.029  1.00  0.00     0.045 A 
HETATM   23  C   UNL     1      41.103 -13.183   5.415  1.00  0.00     0.103 A 
HETATM   24  C   UNL     1      42.351 -12.820   5.932  1.00  0.00     0.036 A 
HETATM   25  C   UNL     1      43.399 -12.548   5.054  1.00  0.00     0.003 A 
HETATM   26  C   UNL     1      43.199 -12.630   3.673  1.00  0.00     0.010 A 
BRANCH  23  27
HETATM   27  N   UNL     1      39.991 -13.471   6.331  1.00  0.00    -0.116 N 
HETATM   28  O   UNL     1      39.839 -14.648   6.688  1.00  0.00    -0.532 OA
HETATM   29  O   UNL     1      39.290 -12.523   6.707  1.00  0.00    -0.532 OA
ENDBRANCH  23  27
ENDBRANCH   2  21
BRANCH   6  30
HETATM   30  O   UNL     1      38.522 -12.595  -0.098  1.00  0.00    -0.355 OA
HETATM   31  H   UNL     1      38.264 -13.251  -0.770  1.00  0.00     0.218 HD
ENDBRANCH   6  30
BRANCH   3  32
HETATM   32  C   UNL     1      42.261 -15.515   1.228  1.00  0.00     0.129 C 
BRANCH  32  33
HETATM   33  C   UNL     1      42.096 -16.471   2.415  1.00  0.00     0.048 C 
BRANCH  33  34
HETATM   34  C   UNL     1      43.293 -16.683   3.349  1.00  0.00     0.236 C 
BRANCH  34  35
HETATM   35  N   UNL     1      43.816 -18.092   3.365  1.00  0.00    -0.067 N 
HETATM   36  H   UNL     1      44.782 -18.038   2.979  1.00  0.00     0.280 HD
HETATM   37  C   UNL     1      43.824 -18.775   4.721  1.00  0.00     0.261 C 
HETATM   38  C   UNL     1      44.425 -20.179   4.592  1.00  0.00     0.195 C 
HETATM   39  O   UNL     1      43.702 -20.963   3.638  1.00  0.00    -0.388 OA
HETATM   40  C   UNL     1      43.741 -20.368   2.334  1.00  0.00     0.195 C 
HETATM   41  C   UNL     1      43.092 -18.978   2.349  1.00  0.00     0.261 C 
ENDBRANCH  34  35
ENDBRANCH  33  34
ENDBRANCH  32  33
ENDBRANCH   3  32
TORSDOF 11
ENDMDL
