MODEL 1
REMARK VINA RESULT:     -10.4      0.000      0.000
REMARK  8 active torsions:
REMARK  status: ('A' for Active; 'I' for Inactive)
REMARK    1  A    between atoms: C_2  and  O_3 
REMARK    2  A    between atoms: C_2  and  C_14 
REMARK    3  A    between atoms: O_3  and  C_4 
REMARK       I    between atoms: C_14  and  N_15 
REMARK    4  A    between atoms: N_15  and  N_16 
REMARK       I    between atoms: N_16  and  C_17 
REMARK    5  A    between atoms: C_17  and  C_18 
REMARK    6  A    between atoms: C_18  and  C_19 
REMARK    7  A    between atoms: C_19  and  C_20 
REMARK    8  A    between atoms: C_20  and  C_21 
ROOT
HETATM    1  N   UNL     1      43.662 -11.949   7.752  1.00  0.00    -0.267 N 
HETATM    2  C   UNL     1      44.824 -11.207   7.630  1.00  0.00     0.236 C 
HETATM    3  O   UNL     1      45.524 -11.227   6.621  1.00  0.00    -0.272 OA
HETATM    4  H   UNL     1      42.952 -11.672   8.430  1.00  0.00     0.190 HD
ENDROOT
BRANCH   1   5
HETATM    5  N   UNL     1      43.149 -12.525   6.572  1.00  0.00    -0.265 N 
HETATM    6  C   UNL     1      42.844 -13.877   6.621  1.00  0.00     0.265 C 
HETATM    7  O   UNL     1      43.233 -14.601   7.536  1.00  0.00    -0.269 OA
HETATM    8  H   UNL     1      42.525 -11.923   6.027  1.00  0.00     0.190 HD
BRANCH   6   9
HETATM    9  C   UNL     1      42.089 -14.382   5.381  1.00  0.00     0.218 C 
HETATM   10  C   UNL     1      41.058 -13.351   4.940  1.00  0.00     0.050 C 
BRANCH   9  11
HETATM   11  O   UNL     1      43.043 -14.591   4.335  1.00  0.00    -0.337 OA
BRANCH  11  12
HETATM   12  C   UNL     1      43.137 -15.835   3.777  1.00  0.00     0.070 A 
HETATM   13  C   UNL     1      43.499 -16.848   4.671  1.00  0.00     0.049 A 
HETATM   14  C   UNL     1      43.638 -18.180   4.247  1.00  0.00    -0.023 A 
HETATM   15  C   UNL     1      43.416 -18.497   2.888  1.00  0.00    -0.026 A 
HETATM   16  C   UNL     1      43.991 -19.204   5.140  1.00  0.00     0.012 A 
HETATM   17  C   UNL     1      43.067 -17.472   1.997  1.00  0.00     0.015 A 
HETATM   18  C   UNL     1      43.554 -19.828   2.459  1.00  0.00     0.012 A 
HETATM   19  C   UNL     1      42.932 -16.151   2.437  1.00  0.00     0.037 A 
HETATM   20  C   UNL     1      43.905 -20.834   3.362  1.00  0.00     0.001 A 
HETATM   21  C   UNL     1      44.123 -20.522   4.700  1.00  0.00     0.001 A 
ENDBRANCH  11  12
ENDBRANCH   9  11
ENDBRANCH   6   9
ENDBRANCH   1   5
BRANCH   2  22
HETATM   22  C   UNL     1      45.162 -10.430   8.886  1.00  0.00     0.105 C 
BRANCH  22  23
HETATM   23  C   UNL     1      45.267  -8.929   8.621  1.00  0.00     0.014 C 
BRANCH  23  24
HETATM   24  C   UNL     1      43.904  -8.249   8.753  1.00  0.00     0.039 C 
BRANCH  24  25
HETATM   25  C   UNL     1      43.200  -8.640  10.031  1.00  0.00    -0.056 A 
HETATM   26  C   UNL     1      41.981  -9.337   9.981  1.00  0.00     0.039 A 
HETATM   27  C   UNL     1      41.406  -9.677  11.184  1.00  0.00     0.063 A 
HETATM   28  C   UNL     1      41.991  -9.356  12.407  1.00  0.00     0.063 A 
HETATM   29  N   UNL     1      40.220 -10.356  11.443  1.00  0.00    -0.306 N 
HETATM   30  N   UNL     1      41.167  -9.838  13.417  1.00  0.00    -0.307 N 
HETATM   31  C   UNL     1      43.184  -8.682  12.493  1.00  0.00     0.032 A 
HETATM   32  C   UNL     1      40.057 -10.465  12.832  1.00  0.00     0.325 A 
HETATM   33  H   UNL     1      41.312  -9.769  14.411  1.00  0.00     0.170 HD
HETATM   34  O   UNL     1      39.133 -10.999  13.416  1.00  0.00    -0.247 OA
HETATM   35  C   UNL     1      43.793  -8.325  11.284  1.00  0.00     0.009 A 
HETATM   36  H   UNL     1      39.569 -10.726  10.772  1.00  0.00     0.170 HD
ENDBRANCH  24  25
ENDBRANCH  23  24
ENDBRANCH  22  23
ENDBRANCH   2  22
TORSDOF 8
ENDMDL
MODEL 2
REMARK VINA RESULT:     -10.1      1.287      2.101
REMARK  8 active torsions:
REMARK  status: ('A' for Active; 'I' for Inactive)
REMARK    1  A    between atoms: C_2  and  O_3 
REMARK    2  A    between atoms: C_2  and  C_14 
REMARK    3  A    between atoms: O_3  and  C_4 
REMARK       I    between atoms: C_14  and  N_15 
REMARK    4  A    between atoms: N_15  and  N_16 
REMARK       I    between atoms: N_16  and  C_17 
REMARK    5  A    between atoms: C_17  and  C_18 
REMARK    6  A    between atoms: C_18  and  C_19 
REMARK    7  A    between atoms: C_19  and  C_20 
REMARK    8  A    between atoms: C_20  and  C_21 
ROOT
HETATM    1  N   UNL     1      44.444 -11.431   5.924  1.00  0.00    -0.267 N 
HETATM    2  C   UNL     1      44.822 -11.454   7.254  1.00  0.00     0.236 C 
HETATM    3  O   UNL     1      44.184 -12.052   8.117  1.00  0.00    -0.272 OA
HETATM    4  H   UNL     1      45.136 -11.224   5.203  1.00  0.00     0.190 HD
ENDROOT
BRANCH   1   5
HETATM    5  N   UNL     1      43.447 -12.346   5.530  1.00  0.00    -0.265 N 
HETATM    6  C   UNL     1      43.212 -12.463   4.167  1.00  0.00     0.265 C 
HETATM    7  O   UNL     1      43.646 -11.644   3.358  1.00  0.00    -0.269 OA
HETATM    8  H   UNL     1      43.393 -13.202   6.089  1.00  0.00     0.190 HD
BRANCH   6   9
HETATM    9  C   UNL     1      42.279 -13.627   3.802  1.00  0.00     0.218 C 
HETATM   10  C   UNL     1      41.087 -13.113   3.005  1.00  0.00     0.050 C 
BRANCH   9  11
HETATM   11  O   UNL     1      43.022 -14.561   3.012  1.00  0.00    -0.337 OA
BRANCH  11  12
HETATM   12  C   UNL     1      43.294 -15.792   3.541  1.00  0.00     0.070 A 
HETATM   13  C   UNL     1      43.204 -16.849   2.629  1.00  0.00     0.049 A 
HETATM   14  C   UNL     1      43.453 -18.174   3.022  1.00  0.00    -0.023 A 
HETATM   15  C   UNL     1      43.791 -18.442   4.367  1.00  0.00    -0.026 A 
HETATM   16  C   UNL     1      43.375 -19.240   2.110  1.00  0.00     0.012 A 
HETATM   17  C   UNL     1      43.865 -17.377   5.277  1.00  0.00     0.015 A 
HETATM   18  C   UNL     1      44.040 -19.766   4.765  1.00  0.00     0.012 A 
HETATM   19  C   UNL     1      43.615 -16.063   4.868  1.00  0.00     0.037 A 
HETATM   20  C   UNL     1      43.959 -20.813   3.845  1.00  0.00     0.001 A 
HETATM   21  C   UNL     1      43.626 -20.549   2.519  1.00  0.00     0.001 A 
ENDBRANCH  11  12
ENDBRANCH   9  11
ENDBRANCH   6   9
ENDBRANCH   1   5
BRANCH   2  22
HETATM   22  C   UNL     1      46.058 -10.622   7.532  1.00  0.00     0.105 C 
BRANCH  22  23
HETATM   23  C   UNL     1      45.710  -9.264   8.137  1.00  0.00     0.014 C 
BRANCH  23  24
HETATM   24  C   UNL     1      45.622  -9.345   9.661  1.00  0.00     0.039 C 
BRANCH  24  25
HETATM   25  C   UNL     1      44.190  -9.389  10.141  1.00  0.00    -0.056 A 
HETATM   26  C   UNL     1      43.853 -10.125  11.290  1.00  0.00     0.039 A 
HETATM   27  C   UNL     1      42.534 -10.106  11.679  1.00  0.00     0.063 A 
HETATM   28  C   UNL     1      41.561  -9.394  10.981  1.00  0.00     0.063 A 
HETATM   29  N   UNL     1      41.915 -10.730  12.757  1.00  0.00    -0.306 N 
HETATM   30  N   UNL     1      40.345  -9.579  11.629  1.00  0.00    -0.307 N 
HETATM   31  C   UNL     1      41.855  -8.660   9.859  1.00  0.00     0.032 A 
HETATM   32  C   UNL     1      40.550 -10.411  12.739  1.00  0.00     0.325 A 
HETATM   33  H   UNL     1      39.451  -9.194  11.374  1.00  0.00     0.170 HD
HETATM   34  O   UNL     1      39.705 -10.782  13.534  1.00  0.00    -0.247 OA
HETATM   35  C   UNL     1      43.192  -8.660   9.440  1.00  0.00     0.009 A 
HETATM   36  H   UNL     1      42.345 -11.314  13.454  1.00  0.00     0.170 HD
ENDBRANCH  24  25
ENDBRANCH  23  24
ENDBRANCH  22  23
ENDBRANCH   2  22
TORSDOF 8
ENDMDL
MODEL 3
REMARK VINA RESULT:      -9.8      1.626      2.072
REMARK  8 active torsions:
REMARK  status: ('A' for Active; 'I' for Inactive)
REMARK    1  A    between atoms: C_2  and  O_3 
REMARK    2  A    between atoms: C_2  and  C_14 
REMARK    3  A    between atoms: O_3  and  C_4 
REMARK       I    between atoms: C_14  and  N_15 
REMARK    4  A    between atoms: N_15  and  N_16 
REMARK       I    between atoms: N_16  and  C_17 
REMARK    5  A    between atoms: C_17  and  C_18 
REMARK    6  A    between atoms: C_18  and  C_19 
REMARK    7  A    between atoms: C_19  and  C_20 
REMARK    8  A    between atoms: C_20  and  C_21 
ROOT
HETATM    1  N   UNL     1      43.497 -12.180   7.702  1.00  0.00    -0.267 N 
HETATM    2  C   UNL     1      44.668 -11.534   7.348  1.00  0.00     0.236 C 
HETATM    3  O   UNL     1      45.455 -11.988   6.521  1.00  0.00    -0.272 OA
HETATM    4  H   UNL     1      42.730 -11.650   8.117  1.00  0.00     0.190 HD
ENDROOT
BRANCH   1   5
HETATM    5  N   UNL     1      43.089 -13.252   6.882  1.00  0.00    -0.265 N 
HETATM    6  C   UNL     1      42.034 -13.005   6.015  1.00  0.00     0.265 C 
HETATM    7  O   UNL     1      41.318 -12.010   6.125  1.00  0.00    -0.269 OA
HETATM    8  H   UNL     1      43.843 -13.855   6.542  1.00  0.00     0.190 HD
BRANCH   6   9
HETATM    9  C   UNL     1      41.790 -14.137   5.006  1.00  0.00     0.218 C 
HETATM   10  C   UNL     1      40.867 -13.657   3.893  1.00  0.00     0.050 C 
BRANCH   9  11
HETATM   11  O   UNL     1      43.054 -14.519   4.454  1.00  0.00    -0.337 OA
BRANCH  11  12
HETATM   12  C   UNL     1      43.165 -15.750   3.869  1.00  0.00     0.070 A 
HETATM   13  C   UNL     1      43.489 -16.786   4.751  1.00  0.00     0.049 A 
HETATM   14  C   UNL     1      43.639 -18.107   4.301  1.00  0.00    -0.023 A 
HETATM   15  C   UNL     1      43.469 -18.390   2.927  1.00  0.00    -0.026 A 
HETATM   16  C   UNL     1      43.954 -19.155   5.182  1.00  0.00     0.012 A 
HETATM   17  C   UNL     1      43.159 -17.342   2.048  1.00  0.00     0.015 A 
HETATM   18  C   UNL     1      43.620 -19.711   2.472  1.00  0.00     0.012 A 
HETATM   19  C   UNL     1      43.011 -16.032   2.515  1.00  0.00     0.037 A 
HETATM   20  C   UNL     1      43.932 -20.740   3.362  1.00  0.00     0.001 A 
HETATM   21  C   UNL     1      44.099 -20.461   4.715  1.00  0.00     0.001 A 
ENDBRANCH  11  12
ENDBRANCH   9  11
ENDBRANCH   6   9
ENDBRANCH   1   5
BRANCH   2  22
HETATM   22  C   UNL     1      44.896 -10.254   8.127  1.00  0.00     0.105 C 
BRANCH  22  23
HETATM   23  C   UNL     1      43.891 -10.089   9.265  1.00  0.00     0.014 C 
BRANCH  23  24
HETATM   24  C   UNL     1      44.436  -9.163  10.353  1.00  0.00     0.039 C 
BRANCH  24  25
HETATM   25  C   UNL     1      43.516  -9.098  11.550  1.00  0.00    -0.056 A 
HETATM   26  C   UNL     1      43.705  -8.111  12.532  1.00  0.00     0.039 A 
HETATM   27  C   UNL     1      42.819  -8.100  13.585  1.00  0.00     0.063 A 
HETATM   28  C   UNL     1      41.775  -9.016  13.689  1.00  0.00     0.063 A 
HETATM   29  N   UNL     1      42.759  -7.256  14.688  1.00  0.00    -0.306 N 
HETATM   30  N   UNL     1      41.072  -8.735  14.855  1.00  0.00    -0.307 N 
HETATM   31  C   UNL     1      41.557  -9.989  12.746  1.00  0.00     0.032 A 
HETATM   32  C   UNL     1      41.674  -7.639  15.490  1.00  0.00     0.325 A 
HETATM   33  H   UNL     1      40.262  -9.214  15.213  1.00  0.00     0.170 HD
HETATM   34  O   UNL     1      41.322  -7.120  16.533  1.00  0.00    -0.247 OA
HETATM   35  C   UNL     1      42.443 -10.023  11.662  1.00  0.00     0.009 A 
HETATM   36  H   UNL     1      43.371  -6.486  14.903  1.00  0.00     0.170 HD
ENDBRANCH  24  25
ENDBRANCH  23  24
ENDBRANCH  22  23
ENDBRANCH   2  22
TORSDOF 8
ENDMDL
MODEL 4
REMARK VINA RESULT:      -9.7      1.714      2.460
REMARK  8 active torsions:
REMARK  status: ('A' for Active; 'I' for Inactive)
REMARK    1  A    between atoms: C_2  and  O_3 
REMARK    2  A    between atoms: C_2  and  C_14 
REMARK    3  A    between atoms: O_3  and  C_4 
REMARK       I    between atoms: C_14  and  N_15 
REMARK    4  A    between atoms: N_15  and  N_16 
REMARK       I    between atoms: N_16  and  C_17 
REMARK    5  A    between atoms: C_17  and  C_18 
REMARK    6  A    between atoms: C_18  and  C_19 
REMARK    7  A    between atoms: C_19  and  C_20 
REMARK    8  A    between atoms: C_20  and  C_21 
ROOT
HETATM    1  N   UNL     1      43.477 -12.209   7.785  1.00  0.00    -0.267 N 
HETATM    2  C   UNL     1      44.626 -11.553   7.379  1.00  0.00     0.236 C 
HETATM    3  O   UNL     1      45.362 -11.985   6.496  1.00  0.00    -0.272 OA
HETATM    4  H   UNL     1      42.737 -11.690   8.259  1.00  0.00     0.190 HD
ENDROOT
BRANCH   1   5
HETATM    5  N   UNL     1      43.019 -13.258   6.962  1.00  0.00    -0.265 N 
HETATM    6  C   UNL     1      42.061 -12.931   6.013  1.00  0.00     0.265 C 
HETATM    7  O   UNL     1      41.447 -11.865   6.045  1.00  0.00    -0.269 OA
HETATM    8  H   UNL     1      43.728 -13.946   6.693  1.00  0.00     0.190 HD
BRANCH   6   9
HETATM    9  C   UNL     1      41.774 -14.063   5.014  1.00  0.00     0.218 C 
HETATM   10  C   UNL     1      40.887 -13.553   3.885  1.00  0.00     0.050 C 
BRANCH   9  11
HETATM   11  O   UNL     1      43.024 -14.513   4.482  1.00  0.00    -0.337 OA
BRANCH  11  12
HETATM   12  C   UNL     1      43.327 -15.843   4.565  1.00  0.00     0.070 A 
HETATM   13  C   UNL     1      43.060 -16.574   3.403  1.00  0.00     0.049 A 
HETATM   14  C   UNL     1      43.317 -17.953   3.333  1.00  0.00    -0.023 A 
HETATM   15  C   UNL     1      43.847 -18.613   4.463  1.00  0.00    -0.026 A 
HETATM   16  C   UNL     1      43.062 -18.691   2.166  1.00  0.00     0.012 A 
HETATM   17  C   UNL     1      44.098 -17.875   5.629  1.00  0.00     0.015 A 
HETATM   18  C   UNL     1      44.105 -19.992   4.398  1.00  0.00     0.012 A 
HETATM   19  C   UNL     1      43.838 -16.501   5.681  1.00  0.00     0.037 A 
HETATM   20  C   UNL     1      43.845 -20.711   3.230  1.00  0.00     0.001 A 
HETATM   21  C   UNL     1      43.324 -20.061   2.115  1.00  0.00     0.001 A 
ENDBRANCH  11  12
ENDBRANCH   9  11
ENDBRANCH   6   9
ENDBRANCH   1   5
BRANCH   2  22
HETATM   22  C   UNL     1      44.901 -10.296   8.179  1.00  0.00     0.105 C 
BRANCH  22  23
HETATM   23  C   UNL     1      43.915 -10.121   9.331  1.00  0.00     0.014 C 
BRANCH  23  24
HETATM   24  C   UNL     1      44.577  -9.430  10.524  1.00  0.00     0.039 C 
BRANCH  24  25
HETATM   25  C   UNL     1      43.623  -9.271  11.684  1.00  0.00    -0.056 A 
HETATM   26  C   UNL     1      43.671  -8.117  12.485  1.00  0.00     0.039 A 
HETATM   27  C   UNL     1      42.760  -8.032  13.513  1.00  0.00     0.063 A 
HETATM   28  C   UNL     1      41.822  -9.031  13.762  1.00  0.00     0.063 A 
HETATM   29  N   UNL     1      42.574  -7.026  14.454  1.00  0.00    -0.306 N 
HETATM   30  N   UNL     1      41.060  -8.641  14.857  1.00  0.00    -0.307 N 
HETATM   31  C   UNL     1      41.742 -10.168  12.997  1.00  0.00     0.032 A 
HETATM   32  C   UNL     1      41.516  -7.391  15.300  1.00  0.00     0.325 A 
HETATM   33  H   UNL     1      40.299  -9.143  15.283  1.00  0.00     0.170 HD
HETATM   34  O   UNL     1      41.079  -6.748  16.237  1.00  0.00    -0.247 OA
HETATM   35  C   UNL     1      42.657 -10.281  11.943  1.00  0.00     0.009 A 
HETATM   36  H   UNL     1      43.089  -6.166  14.540  1.00  0.00     0.170 HD
ENDBRANCH  24  25
ENDBRANCH  23  24
ENDBRANCH  22  23
ENDBRANCH   2  22
TORSDOF 8
ENDMDL
MODEL 5
REMARK VINA RESULT:      -9.0      1.752      2.441
REMARK  8 active torsions:
REMARK  status: ('A' for Active; 'I' for Inactive)
REMARK    1  A    between atoms: C_2  and  O_3 
REMARK    2  A    between atoms: C_2  and  C_14 
REMARK    3  A    between atoms: O_3  and  C_4 
REMARK       I    between atoms: C_14  and  N_15 
REMARK    4  A    between atoms: N_15  and  N_16 
REMARK       I    between atoms: N_16  and  C_17 
REMARK    5  A    between atoms: C_17  and  C_18 
REMARK    6  A    between atoms: C_18  and  C_19 
REMARK    7  A    between atoms: C_19  and  C_20 
REMARK    8  A    between atoms: C_20  and  C_21 
ROOT
HETATM    1  N   UNL     1      42.322 -10.321   5.706  1.00  0.00    -0.267 N 
HETATM    2  C   UNL     1      41.285  -9.523   6.156  1.00  0.00     0.236 C 
HETATM    3  O   UNL     1      40.210  -9.980   6.536  1.00  0.00    -0.272 OA
HETATM    4  H   UNL     1      43.278  -9.964   5.714  1.00  0.00     0.190 HD
ENDROOT
BRANCH   1   5
HETATM    5  N   UNL     1      42.214 -11.704   5.955  1.00  0.00    -0.265 N 
HETATM    6  C   UNL     1      41.928 -12.513   4.864  1.00  0.00     0.265 C 
HETATM    7  O   UNL     1      41.532 -12.050   3.795  1.00  0.00    -0.269 OA
HETATM    8  H   UNL     1      42.862 -12.075   6.655  1.00  0.00     0.190 HD
BRANCH   6   9
HETATM    9  C   UNL     1      42.044 -14.015   5.166  1.00  0.00     0.218 C 
HETATM   10  C   UNL     1      40.682 -14.684   5.025  1.00  0.00     0.050 C 
BRANCH   9  11
HETATM   11  O   UNL     1      42.963 -14.586   4.230  1.00  0.00    -0.337 OA
BRANCH  11  12
HETATM   12  C   UNL     1      43.299 -15.904   4.367  1.00  0.00     0.070 A 
HETATM   13  C   UNL     1      43.022 -16.695   3.247  1.00  0.00     0.049 A 
HETATM   14  C   UNL     1      43.310 -18.069   3.235  1.00  0.00    -0.023 A 
HETATM   15  C   UNL     1      43.881 -18.663   4.382  1.00  0.00    -0.026 A 
HETATM   16  C   UNL     1      43.045 -18.867   2.110  1.00  0.00     0.012 A 
HETATM   17  C   UNL     1      44.142 -17.865   5.506  1.00  0.00     0.015 A 
HETATM   18  C   UNL     1      44.170 -20.038   4.375  1.00  0.00     0.012 A 
HETATM   19  C   UNL     1      43.851 -16.497   5.500  1.00  0.00     0.037 A 
HETATM   20  C   UNL     1      43.900 -20.817   3.248  1.00  0.00     0.001 A 
HETATM   21  C   UNL     1      43.338 -20.231   2.117  1.00  0.00     0.001 A 
ENDBRANCH  11  12
ENDBRANCH   9  11
ENDBRANCH   6   9
ENDBRANCH   1   5
BRANCH   2  22
HETATM   22  C   UNL     1      41.598  -8.043   6.067  1.00  0.00     0.105 C 
BRANCH  22  23
HETATM   23  C   UNL     1      41.584  -7.371   7.438  1.00  0.00     0.014 C 
BRANCH  23  24
HETATM   24  C   UNL     1      42.848  -7.707   8.231  1.00  0.00     0.039 C 
BRANCH  24  25
HETATM   25  C   UNL     1      42.527  -8.387   9.541  1.00  0.00    -0.056 A 
HETATM   26  C   UNL     1      41.255  -8.945   9.753  1.00  0.00     0.039 A 
HETATM   27  C   UNL     1      41.038  -9.565  10.962  1.00  0.00     0.063 A 
HETATM   28  C   UNL     1      42.023  -9.649  11.943  1.00  0.00     0.063 A 
HETATM   29  N   UNL     1      39.898 -10.195  11.447  1.00  0.00    -0.306 N 
HETATM   30  N   UNL     1      41.489 -10.330  13.031  1.00  0.00    -0.307 N 
HETATM   31  C   UNL     1      43.278  -9.121  11.768  1.00  0.00     0.032 A 
HETATM   32  C   UNL     1      40.163 -10.679  12.736  1.00  0.00     0.325 A 
HETATM   33  H   UNL     1      41.949 -10.556  13.897  1.00  0.00     0.170 HD
HETATM   34  O   UNL     1      39.393 -11.283  13.459  1.00  0.00    -0.247 OA
HETATM   35  C   UNL     1      43.527  -8.485  10.545  1.00  0.00     0.009 A 
HETATM   36  H   UNL     1      39.015 -10.309  10.976  1.00  0.00     0.170 HD
ENDBRANCH  24  25
ENDBRANCH  23  24
ENDBRANCH  22  23
ENDBRANCH   2  22
TORSDOF 8
ENDMDL
MODEL 6
REMARK VINA RESULT:      -9.0      2.872     11.042
REMARK  8 active torsions:
REMARK  status: ('A' for Active; 'I' for Inactive)
REMARK    1  A    between atoms: C_2  and  O_3 
REMARK    2  A    between atoms: C_2  and  C_14 
REMARK    3  A    between atoms: O_3  and  C_4 
REMARK       I    between atoms: C_14  and  N_15 
REMARK    4  A    between atoms: N_15  and  N_16 
REMARK       I    between atoms: N_16  and  C_17 
REMARK    5  A    between atoms: C_17  and  C_18 
REMARK    6  A    between atoms: C_18  and  C_19 
REMARK    7  A    between atoms: C_19  and  C_20 
REMARK    8  A    between atoms: C_20  and  C_21 
ROOT
HETATM    1  N   UNL     1      41.982 -11.678   6.685  1.00  0.00    -0.267 N 
HETATM    2  C   UNL     1      42.160 -11.679   5.313  1.00  0.00     0.236 C 
HETATM    3  O   UNL     1      42.630 -10.723   4.702  1.00  0.00    -0.272 OA
HETATM    4  H   UNL     1      41.910 -12.562   7.188  1.00  0.00     0.190 HD
ENDROOT
BRANCH   1   5
HETATM    5  N   UNL     1      42.614 -10.645   7.407  1.00  0.00    -0.265 N 
HETATM    6  C   UNL     1      43.865 -10.932   7.936  1.00  0.00     0.265 C 
HETATM    7  O   UNL     1      44.295 -12.083   8.008  1.00  0.00    -0.269 OA
HETATM    8  H   UNL     1      42.466  -9.701   7.042  1.00  0.00     0.190 HD
BRANCH   6   9
HETATM    9  C   UNL     1      44.583  -9.704   8.514  1.00  0.00     0.218 C 
HETATM   10  C   UNL     1      45.964  -9.560   7.886  1.00  0.00     0.050 C 
BRANCH   9  11
HETATM   11  O   UNL     1      43.794  -8.547   8.218  1.00  0.00    -0.337 OA
BRANCH  11  12
HETATM   12  C   UNL     1      43.368  -7.764   9.254  1.00  0.00     0.070 A 
HETATM   13  C   UNL     1      43.486  -8.355  10.516  1.00  0.00     0.049 A 
HETATM   14  C   UNL     1      43.089  -7.676  11.680  1.00  0.00    -0.023 A 
HETATM   15  C   UNL     1      42.552  -6.375  11.568  1.00  0.00    -0.026 A 
HETATM   16  C   UNL     1      43.214  -8.259  12.951  1.00  0.00     0.012 A 
HETATM   17  C   UNL     1      42.424  -5.796  10.297  1.00  0.00     0.015 A 
HETATM   18  C   UNL     1      42.153  -5.692  12.729  1.00  0.00     0.012 A 
HETATM   19  C   UNL     1      42.827  -6.486   9.148  1.00  0.00     0.037 A 
HETATM   20  C   UNL     1      42.284  -6.286  13.985  1.00  0.00     0.001 A 
HETATM   21  C   UNL     1      42.815  -7.568  14.096  1.00  0.00     0.001 A 
ENDBRANCH  11  12
ENDBRANCH   9  11
ENDBRANCH   6   9
ENDBRANCH   1   5
BRANCH   2  22
HETATM   22  C   UNL     1      41.659 -12.948   4.653  1.00  0.00     0.105 C 
BRANCH  22  23
HETATM   23  C   UNL     1      42.805 -13.865   4.229  1.00  0.00     0.014 C 
BRANCH  23  24
HETATM   24  C   UNL     1      43.262 -14.750   5.389  1.00  0.00     0.039 C 
BRANCH  24  25
HETATM   25  C   UNL     1      43.429 -16.190   4.966  1.00  0.00    -0.056 A 
HETATM   26  C   UNL     1      43.178 -16.569   3.636  1.00  0.00     0.039 A 
HETATM   27  C   UNL     1      43.368 -17.894   3.317  1.00  0.00     0.063 A 
HETATM   28  C   UNL     1      43.793 -18.832   4.255  1.00  0.00     0.063 A 
HETATM   29  N   UNL     1      43.200 -18.549   2.103  1.00  0.00    -0.306 N 
HETATM   30  N   UNL     1      43.886 -20.064   3.618  1.00  0.00    -0.307 N 
HETATM   31  C   UNL     1      44.053 -18.497   5.560  1.00  0.00     0.032 A 
HETATM   32  C   UNL     1      43.520 -19.904   2.273  1.00  0.00     0.325 A 
HETATM   33  H   UNL     1      44.169 -20.942   4.021  1.00  0.00     0.170 HD
HETATM   34  O   UNL     1      43.486 -20.772   1.421  1.00  0.00    -0.247 OA
HETATM   35  C   UNL     1      43.870 -17.154   5.913  1.00  0.00     0.009 A 
HETATM   36  H   UNL     1      42.905 -18.149   1.228  1.00  0.00     0.170 HD
ENDBRANCH  24  25
ENDBRANCH  23  24
ENDBRANCH  22  23
ENDBRANCH   2  22
TORSDOF 8
ENDMDL
MODEL 7
REMARK VINA RESULT:      -8.5      2.823      3.844
REMARK  8 active torsions:
REMARK  status: ('A' for Active; 'I' for Inactive)
REMARK    1  A    between atoms: C_2  and  O_3 
REMARK    2  A    between atoms: C_2  and  C_14 
REMARK    3  A    between atoms: O_3  and  C_4 
REMARK       I    between atoms: C_14  and  N_15 
REMARK    4  A    between atoms: N_15  and  N_16 
REMARK       I    between atoms: N_16  and  C_17 
REMARK    5  A    between atoms: C_17  and  C_18 
REMARK    6  A    between atoms: C_18  and  C_19 
REMARK    7  A    between atoms: C_19  and  C_20 
REMARK    8  A    between atoms: C_20  and  C_21 
ROOT
HETATM    1  N   UNL     1      40.233  -9.438   5.618  1.00  0.00    -0.267 N 
HETATM    2  C   UNL     1      38.933  -9.050   5.893  1.00  0.00     0.236 C 
HETATM    3  O   UNL     1      37.971  -9.802   5.760  1.00  0.00    -0.272 OA
HETATM    4  H   UNL     1      41.013  -8.932   6.038  1.00  0.00     0.190 HD
ENDROOT
BRANCH   1   5
HETATM    5  N   UNL     1      40.460 -10.818   5.441  1.00  0.00    -0.265 N 
HETATM    6  C   UNL     1      41.492 -11.378   6.179  1.00  0.00     0.265 C 
HETATM    7  O   UNL     1      42.333 -10.688   6.754  1.00  0.00    -0.269 OA
HETATM    8  H   UNL     1      39.619 -11.387   5.306  1.00  0.00     0.190 HD
BRANCH   6   9
HETATM    9  C   UNL     1      41.539 -12.912   6.105  1.00  0.00     0.218 C 
HETATM   10  C   UNL     1      40.135 -13.470   5.904  1.00  0.00     0.050 C 
BRANCH   9  11
HETATM   11  O   UNL     1      42.368 -13.278   4.997  1.00  0.00    -0.337 OA
BRANCH  11  12
HETATM   12  C   UNL     1      42.879 -14.545   4.955  1.00  0.00     0.070 A 
HETATM   13  C   UNL     1      42.569 -15.258   3.793  1.00  0.00     0.049 A 
HETATM   14  C   UNL     1      43.021 -16.574   3.602  1.00  0.00    -0.023 A 
HETATM   15  C   UNL     1      43.795 -17.190   4.610  1.00  0.00    -0.026 A 
HETATM   16  C   UNL     1      42.722 -17.293   2.433  1.00  0.00     0.012 A 
HETATM   17  C   UNL     1      44.088 -16.471   5.778  1.00  0.00     0.015 A 
HETATM   18  C   UNL     1      44.248 -18.506   4.424  1.00  0.00     0.012 A 
HETATM   19  C   UNL     1      43.632 -15.160   5.951  1.00  0.00     0.037 A 
HETATM   20  C   UNL     1      43.943 -19.206   3.256  1.00  0.00     0.001 A 
HETATM   21  C   UNL     1      43.180 -18.600   2.261  1.00  0.00     0.001 A 
ENDBRANCH  11  12
ENDBRANCH   9  11
ENDBRANCH   6   9
ENDBRANCH   1   5
BRANCH   2  22
HETATM   22  C   UNL     1      38.827  -7.597   6.310  1.00  0.00     0.105 C 
BRANCH  22  23
HETATM   23  C   UNL     1      39.099  -7.406   7.800  1.00  0.00     0.014 C 
BRANCH  23  24
HETATM   24  C   UNL     1      40.341  -6.543   8.029  1.00  0.00     0.039 C 
BRANCH  24  25
HETATM   25  C   UNL     1      41.471  -7.334   8.644  1.00  0.00    -0.056 A 
HETATM   26  C   UNL     1      41.193  -8.447   9.455  1.00  0.00     0.039 A 
HETATM   27  C   UNL     1      42.271  -9.132   9.968  1.00  0.00     0.063 A 
HETATM   28  C   UNL     1      43.586  -8.756   9.704  1.00  0.00     0.063 A 
HETATM   29  N   UNL     1      42.304 -10.252  10.790  1.00  0.00    -0.306 N 
HETATM   30  N   UNL     1      44.427  -9.645  10.362  1.00  0.00    -0.307 N 
HETATM   31  C   UNL     1      43.894  -7.679   8.911  1.00  0.00     0.032 A 
HETATM   32  C   UNL     1      43.642 -10.585  11.045  1.00  0.00     0.325 A 
HETATM   33  H   UNL     1      45.434  -9.646  10.368  1.00  0.00     0.170 HD
HETATM   34  O   UNL     1      44.044 -11.511  11.725  1.00  0.00    -0.247 OA
HETATM   35  C   UNL     1      42.816  -6.964   8.374  1.00  0.00     0.009 A 
HETATM   36  H   UNL     1      41.519 -10.766  11.154  1.00  0.00     0.170 HD
ENDBRANCH  24  25
ENDBRANCH  23  24
ENDBRANCH  22  23
ENDBRANCH   2  22
TORSDOF 8
ENDMDL
MODEL 8
REMARK VINA RESULT:      -8.5      2.053      2.427
REMARK  8 active torsions:
REMARK  status: ('A' for Active; 'I' for Inactive)
REMARK    1  A    between atoms: C_2  and  O_3 
REMARK    2  A    between atoms: C_2  and  C_14 
REMARK    3  A    between atoms: O_3  and  C_4 
REMARK       I    between atoms: C_14  and  N_15 
REMARK    4  A    between atoms: N_15  and  N_16 
REMARK       I    between atoms: N_16  and  C_17 
REMARK    5  A    between atoms: C_17  and  C_18 
REMARK    6  A    between atoms: C_18  and  C_19 
REMARK    7  A    between atoms: C_19  and  C_20 
REMARK    8  A    between atoms: C_20  and  C_21 
ROOT
HETATM    1  N   UNL     1      43.574 -11.686   8.072  1.00  0.00    -0.267 N 
HETATM    2  C   UNL     1      44.791 -11.046   7.923  1.00  0.00     0.236 C 
HETATM    3  O   UNL     1      45.548 -11.266   6.981  1.00  0.00    -0.272 OA
HETATM    4  H   UNL     1      42.845 -11.264   8.648  1.00  0.00     0.190 HD
ENDROOT
BRANCH   1   5
HETATM    5  N   UNL     1      43.093 -12.406   6.959  1.00  0.00    -0.265 N 
HETATM    6  C   UNL     1      42.082 -11.807   6.221  1.00  0.00     0.265 C 
HETATM    7  O   UNL     1      41.451 -10.838   6.643  1.00  0.00    -0.269 OA
HETATM    8  H   UNL     1      43.800 -12.935   6.441  1.00  0.00     0.190 HD
BRANCH   6   9
HETATM    9  C   UNL     1      41.764 -12.538   4.908  1.00  0.00     0.218 C 
HETATM   10  C   UNL     1      43.034 -12.708   4.082  1.00  0.00     0.050 C 
BRANCH   9  11
HETATM   11  O   UNL     1      41.224 -13.822   5.234  1.00  0.00    -0.337 OA
BRANCH  11  12
HETATM   12  C   UNL     1      41.561 -14.890   4.450  1.00  0.00     0.070 A 
HETATM   13  C   UNL     1      42.600 -15.678   4.955  1.00  0.00     0.049 A 
HETATM   14  C   UNL     1      43.060 -16.810   4.263  1.00  0.00    -0.023 A 
HETATM   15  C   UNL     1      42.465 -17.151   3.029  1.00  0.00    -0.026 A 
HETATM   16  C   UNL     1      44.097 -17.611   4.769  1.00  0.00     0.012 A 
HETATM   17  C   UNL     1      41.433 -16.348   2.523  1.00  0.00     0.015 A 
HETATM   18  C   UNL     1      42.923 -18.283   2.332  1.00  0.00     0.012 A 
HETATM   19  C   UNL     1      40.986 -15.224   3.227  1.00  0.00     0.037 A 
HETATM   20  C   UNL     1      43.954 -19.068   2.850  1.00  0.00     0.001 A 
HETATM   21  C   UNL     1      44.540 -18.732   4.067  1.00  0.00     0.001 A 
ENDBRANCH  11  12
ENDBRANCH   9  11
ENDBRANCH   6   9
ENDBRANCH   1   5
BRANCH   2  22
HETATM   22  C   UNL     1      45.107 -10.105   9.067  1.00  0.00     0.105 C 
BRANCH  22  23
HETATM   23  C   UNL     1      43.956 -10.009  10.066  1.00  0.00     0.014 C 
BRANCH  23  24
HETATM   24  C   UNL     1      43.378  -8.594  10.108  1.00  0.00     0.039 C 
BRANCH  24  25
HETATM   25  C   UNL     1      42.055  -8.548  10.836  1.00  0.00    -0.056 A 
HETATM   26  C   UNL     1      41.639  -7.364  11.468  1.00  0.00     0.039 A 
HETATM   27  C   UNL     1      40.415  -7.389  12.096  1.00  0.00     0.063 A 
HETATM   28  C   UNL     1      39.608  -8.524  12.113  1.00  0.00     0.063 A 
HETATM   29  N   UNL     1      39.753  -6.385  12.795  1.00  0.00    -0.306 N 
HETATM   30  N   UNL     1      38.452  -8.220  12.821  1.00  0.00    -0.307 N 
HETATM   31  C   UNL     1      39.980  -9.695  11.501  1.00  0.00     0.032 A 
HETATM   32  C   UNL     1      38.526  -6.888  13.252  1.00  0.00     0.325 A 
HETATM   33  H   UNL     1      37.671  -8.827  13.008  1.00  0.00     0.170 HD
HETATM   34  O   UNL     1      37.689  -6.286  13.899  1.00  0.00    -0.247 OA
HETATM   35  C   UNL     1      41.222  -9.699  10.852  1.00  0.00     0.009 A 
HETATM   36  H   UNL     1      40.069  -5.444  12.958  1.00  0.00     0.170 HD
ENDBRANCH  24  25
ENDBRANCH  23  24
ENDBRANCH  22  23
ENDBRANCH   2  22
TORSDOF 8
ENDMDL
MODEL 9
REMARK VINA RESULT:      -8.3      1.835      2.259
REMARK  8 active torsions:
REMARK  status: ('A' for Active; 'I' for Inactive)
REMARK    1  A    between atoms: C_2  and  O_3 
REMARK    2  A    between atoms: C_2  and  C_14 
REMARK    3  A    between atoms: O_3  and  C_4 
REMARK       I    between atoms: C_14  and  N_15 
REMARK    4  A    between atoms: N_15  and  N_16 
REMARK       I    between atoms: N_16  and  C_17 
REMARK    5  A    between atoms: C_17  and  C_18 
REMARK    6  A    between atoms: C_18  and  C_19 
REMARK    7  A    between atoms: C_19  and  C_20 
REMARK    8  A    between atoms: C_20  and  C_21 
ROOT
HETATM    1  N   UNL     1      43.894 -11.556   7.617  1.00  0.00    -0.267 N 
HETATM    2  C   UNL     1      45.149 -11.023   7.384  1.00  0.00     0.236 C 
HETATM    3  O   UNL     1      45.850 -11.360   6.433  1.00  0.00    -0.272 OA
HETATM    4  H   UNL     1      43.222 -11.043   8.188  1.00  0.00     0.190 HD
ENDROOT
BRANCH   1   5
HETATM    5  N   UNL     1      43.318 -12.307   6.572  1.00  0.00    -0.265 N 
HETATM    6  C   UNL     1      43.034 -13.637   6.844  1.00  0.00     0.265 C 
HETATM    7  O   UNL     1      43.487 -14.212   7.834  1.00  0.00    -0.269 OA
HETATM    8  H   UNL     1      42.654 -11.798   5.981  1.00  0.00     0.190 HD
BRANCH   6   9
HETATM    9  C   UNL     1      42.212 -14.328   5.745  1.00  0.00     0.218 C 
HETATM   10  C   UNL     1      41.271 -13.326   5.087  1.00  0.00     0.050 C 
BRANCH   9  11
HETATM   11  O   UNL     1      43.123 -14.848   4.772  1.00  0.00    -0.337 OA
BRANCH  11  12
HETATM   12  C   UNL     1      43.372 -16.192   4.765  1.00  0.00     0.070 A 
HETATM   13  C   UNL     1      43.219 -16.806   3.517  1.00  0.00     0.049 A 
HETATM   14  C   UNL     1      43.439 -18.183   3.349  1.00  0.00    -0.023 A 
HETATM   15  C   UNL     1      43.812 -18.962   4.467  1.00  0.00    -0.026 A 
HETATM   16  C   UNL     1      43.297 -18.804   2.098  1.00  0.00     0.012 A 
HETATM   17  C   UNL     1      43.950 -18.340   5.716  1.00  0.00     0.015 A 
HETATM   18  C   UNL     1      44.033 -20.340   4.304  1.00  0.00     0.012 A 
HETATM   19  C   UNL     1      43.729 -16.967   5.865  1.00  0.00     0.037 A 
HETATM   20  C   UNL     1      43.887 -20.941   3.052  1.00  0.00     0.001 A 
HETATM   21  C   UNL     1      43.520 -20.173   1.951  1.00  0.00     0.001 A 
ENDBRANCH  11  12
ENDBRANCH   9  11
ENDBRANCH   6   9
ENDBRANCH   1   5
BRANCH   2  22
HETATM   22  C   UNL     1      45.579 -10.036   8.451  1.00  0.00     0.105 C 
BRANCH  22  23
HETATM   23  C   UNL     1      44.397  -9.529   9.273  1.00  0.00     0.014 C 
BRANCH  23  24
HETATM   24  C   UNL     1      43.617  -8.455   8.513  1.00  0.00     0.039 C 
BRANCH  24  25
HETATM   25  C   UNL     1      42.624  -7.745   9.403  1.00  0.00    -0.056 A 
HETATM   26  C   UNL     1      41.323  -8.253   9.554  1.00  0.00     0.039 A 
HETATM   27  C   UNL     1      40.477  -7.565  10.393  1.00  0.00     0.063 A 
HETATM   28  C   UNL     1      40.874  -6.417  11.075  1.00  0.00     0.063 A 
HETATM   29  N   UNL     1      39.154  -7.826  10.732  1.00  0.00    -0.306 N 
HETATM   30  N   UNL     1      39.797  -5.972  11.831  1.00  0.00    -0.307 N 
HETATM   31  C   UNL     1      42.139  -5.896  10.956  1.00  0.00     0.032 A 
HETATM   32  C   UNL     1      38.715  -6.841  11.628  1.00  0.00     0.325 A 
HETATM   33  H   UNL     1      39.764  -5.168  12.437  1.00  0.00     0.170 HD
HETATM   34  O   UNL     1      37.611  -6.757  12.133  1.00  0.00    -0.247 OA
HETATM   35  C   UNL     1      43.022  -6.577  10.108  1.00  0.00     0.009 A 
HETATM   36  H   UNL     1      38.579  -8.587  10.411  1.00  0.00     0.170 HD
ENDBRANCH  24  25
ENDBRANCH  23  24
ENDBRANCH  22  23
ENDBRANCH   2  22
TORSDOF 8
ENDMDL
MODEL 10
REMARK VINA RESULT:      -8.3      2.425      2.905
REMARK  8 active torsions:
REMARK  status: ('A' for Active; 'I' for Inactive)
REMARK    1  A    between atoms: C_2  and  O_3 
REMARK    2  A    between atoms: C_2  and  C_14 
REMARK    3  A    between atoms: O_3  and  C_4 
REMARK       I    between atoms: C_14  and  N_15 
REMARK    4  A    between atoms: N_15  and  N_16 
REMARK       I    between atoms: N_16  and  C_17 
REMARK    5  A    between atoms: C_17  and  C_18 
REMARK    6  A    between atoms: C_18  and  C_19 
REMARK    7  A    between atoms: C_19  and  C_20 
REMARK    8  A    between atoms: C_20  and  C_21 
ROOT
HETATM    1  N   UNL     1      44.255 -11.013   8.305  1.00  0.00    -0.267 N 
HETATM    2  C   UNL     1      43.427  -9.905   8.255  1.00  0.00     0.236 C 
HETATM    3  O   UNL     1      42.368  -9.892   7.634  1.00  0.00    -0.272 OA
HETATM    4  H   UNL     1      44.928 -11.109   9.065  1.00  0.00     0.190 HD
ENDROOT
BRANCH   1   5
HETATM    5  N   UNL     1      43.713 -12.231   7.847  1.00  0.00    -0.265 N 
HETATM    6  C   UNL     1      44.255 -12.754   6.682  1.00  0.00     0.265 C 
HETATM    7  O   UNL     1      44.975 -12.085   5.940  1.00  0.00    -0.269 OA
HETATM    8  H   UNL     1      43.449 -12.896   8.579  1.00  0.00     0.190 HD
BRANCH   6   9
HETATM    9  C   UNL     1      43.776 -14.178   6.366  1.00  0.00     0.218 C 
HETATM   10  C   UNL     1      42.900 -14.700   7.498  1.00  0.00     0.050 C 
BRANCH   9  11
HETATM   11  O   UNL     1      43.021 -14.133   5.151  1.00  0.00    -0.337 OA
BRANCH  11  12
HETATM   12  C   UNL     1      43.046 -15.223   4.326  1.00  0.00     0.070 A 
HETATM   13  C   UNL     1      43.486 -16.403   4.935  1.00  0.00     0.049 A 
HETATM   14  C   UNL     1      43.568 -17.608   4.217  1.00  0.00    -0.023 A 
HETATM   15  C   UNL     1      43.208 -17.621   2.851  1.00  0.00    -0.026 A 
HETATM   16  C   UNL     1      43.999 -18.798   4.824  1.00  0.00     0.012 A 
HETATM   17  C   UNL     1      42.782 -16.430   2.246  1.00  0.00     0.015 A 
HETATM   18  C   UNL     1      43.290 -18.823   2.129  1.00  0.00     0.012 A 
HETATM   19  C   UNL     1      42.704 -15.240   2.977  1.00  0.00     0.037 A 
HETATM   20  C   UNL     1      43.720 -19.998   2.748  1.00  0.00     0.001 A 
HETATM   21  C   UNL     1      44.074 -19.985   4.094  1.00  0.00     0.001 A 
ENDBRANCH  11  12
ENDBRANCH   9  11
ENDBRANCH   6   9
ENDBRANCH   1   5
BRANCH   2  22
HETATM   22  C   UNL     1      43.998  -8.708   8.989  1.00  0.00     0.105 C 
BRANCH  22  23
HETATM   23  C   UNL     1      42.976  -7.583   9.134  1.00  0.00     0.014 C 
BRANCH  23  24
HETATM   24  C   UNL     1      41.825  -7.999  10.051  1.00  0.00     0.039 C 
BRANCH  24  25
HETATM   25  C   UNL     1      42.017  -7.492  11.461  1.00  0.00    -0.056 A 
HETATM   26  C   UNL     1      41.143  -6.527  11.989  1.00  0.00     0.039 A 
HETATM   27  C   UNL     1      41.366  -6.124  13.286  1.00  0.00     0.063 A 
HETATM   28  C   UNL     1      42.404  -6.641  14.058  1.00  0.00     0.063 A 
HETATM   29  N   UNL     1      40.677  -5.199  14.061  1.00  0.00    -0.306 N 
HETATM   30  N   UNL     1      42.354  -6.033  15.307  1.00  0.00    -0.307 N 
HETATM   31  C   UNL     1      43.273  -7.588  13.577  1.00  0.00     0.032 A 
HETATM   32  C   UNL     1      41.281  -5.131  15.325  1.00  0.00     0.325 A 
HETATM   33  H   UNL     1      42.966  -6.193  16.091  1.00  0.00     0.170 HD
HETATM   34  O   UNL     1      40.940  -4.426  16.257  1.00  0.00    -0.247 OA
HETATM   35  C   UNL     1      43.068  -8.018  12.259  1.00  0.00     0.009 A 
HETATM   36  H   UNL     1      39.873  -4.655  13.794  1.00  0.00     0.170 HD
ENDBRANCH  24  25
ENDBRANCH  23  24
ENDBRANCH  22  23
ENDBRANCH   2  22
TORSDOF 8
ENDMDL
