MODEL 1
REMARK VINA RESULT:      -8.5      0.000      0.000
REMARK  6 active torsions:
REMARK  status: ('A' for Active; 'I' for Inactive)
REMARK    1  A    between atoms: C_11  and  N_12 
REMARK    2  A    between atoms: N_12  and  C_13 
REMARK    3  A    between atoms: C_13  and  C_14 
REMARK    4  A    between atoms: C_14  and  N_15 
REMARK       I    between atoms: N_15  and  C_16 
REMARK    5  A    between atoms: C_16  and  C_17 
REMARK    6  A    between atoms: C_20  and  O_21 
ROOT
HETATM    1  N   UNL     1      38.803 -13.621   2.554  1.00  0.00    -0.277 NA
HETATM    2  H   UNL     1      38.114 -13.811   1.828  1.00  0.00     0.129 HD
ENDROOT
BRANCH   1   3
HETATM    3  C   UNL     1      39.801 -14.594   2.603  1.00  0.00     0.086 C 
HETATM    4  N   UNL     1      40.209 -15.057   3.796  1.00  0.00    -0.346 N 
HETATM    5  C   UNL     1      41.219 -15.921   3.976  1.00  0.00     0.044 A 
HETATM    6  H   UNL     1      39.670 -14.759   4.617  1.00  0.00     0.167 HD
HETATM    7  C   UNL     1      41.644 -16.271   5.262  1.00  0.00     0.037 A 
HETATM    8  C   UNL     1      41.862 -16.458   2.848  1.00  0.00    -0.008 A 
HETATM    9  C   UNL     1      42.736 -17.134   5.446  1.00  0.00    -0.054 A 
HETATM   10  C   UNL     1      43.410 -17.648   4.320  1.00  0.00    -0.055 A 
HETATM   11  C   UNL     1      43.200 -17.447   6.846  1.00  0.00     0.049 C 
HETATM   12  C   UNL     1      44.599 -18.562   4.460  1.00  0.00     0.049 C 
HETATM   13  C   UNL     1      42.949 -17.325   3.031  1.00  0.00     0.021 A 
HETATM   14  C   UNL     1      41.384 -16.109   1.583  1.00  0.00     0.023 C 
HETATM   15  C   UNL     1      40.329 -15.196   1.447  1.00  0.00    -0.023 C 
HETATM   16  C   UNL     1      39.854 -14.845   0.063  1.00  0.00     0.052 C 
ENDBRANCH   1   3
BRANCH   1  17
HETATM   17  C   UNL     1      39.234 -12.212   2.478  1.00  0.00     0.113 C 
BRANCH  17  18
HETATM   18  C   UNL     1      39.107 -11.506   3.837  1.00  0.00     0.137 C 
BRANCH  18  19
HETATM   19  N   UNL     1      40.327 -11.382   4.621  1.00  0.00    -0.356 N 
HETATM   20  C   UNL     1      40.686 -12.197   5.669  1.00  0.00     0.251 C 
HETATM   21  O   UNL     1      39.917 -13.006   6.189  1.00  0.00    -0.268 OA
HETATM   22  H   UNL     1      40.981 -10.669   4.316  1.00  0.00     0.162 HD
BRANCH  20  23
HETATM   23  C   UNL     1      42.055 -11.976   6.215  1.00  0.00     0.032 A 
HETATM   24  C   UNL     1      42.381 -10.720   6.734  1.00  0.00     0.020 A 
HETATM   25  C   UNL     1      43.674 -10.480   7.209  1.00  0.00     0.038 A 
HETATM   26  C   UNL     1      44.646 -11.484   7.182  1.00  0.00     0.068 A 
HETATM   27  C   UNL     1      44.310 -12.746   6.694  1.00  0.00     0.038 A 
HETATM   28  C   UNL     1      43.017 -12.994   6.216  1.00  0.00     0.020 A 
BRANCH  26  29
HETATM   29  O   UNL     1      45.869 -11.108   7.662  1.00  0.00    -0.356 OA
HETATM   30  C   UNL     1      46.087  -9.716   7.866  1.00  0.00     0.210 C 
ENDBRANCH  26  29
ENDBRANCH  20  23
ENDBRANCH  18  19
ENDBRANCH  17  18
ENDBRANCH   1  17
TORSDOF 6
ENDMDL
MODEL 2
REMARK VINA RESULT:      -8.4      3.372      4.638
REMARK  6 active torsions:
REMARK  status: ('A' for Active; 'I' for Inactive)
REMARK    1  A    between atoms: C_11  and  N_12 
REMARK    2  A    between atoms: N_12  and  C_13 
REMARK    3  A    between atoms: C_13  and  C_14 
REMARK    4  A    between atoms: C_14  and  N_15 
REMARK       I    between atoms: N_15  and  C_16 
REMARK    5  A    between atoms: C_16  and  C_17 
REMARK    6  A    between atoms: C_20  and  O_21 
ROOT
HETATM    1  N   UNL     1      42.854 -13.364   5.115  1.00  0.00    -0.277 NA
HETATM    2  H   UNL     1      43.314 -12.582   4.652  1.00  0.00     0.129 HD
ENDROOT
BRANCH   1   3
HETATM    3  C   UNL     1      42.884 -14.526   4.344  1.00  0.00     0.086 C 
HETATM    4  N   UNL     1      43.156 -15.700   4.935  1.00  0.00    -0.346 N 
HETATM    5  C   UNL     1      43.303 -16.866   4.289  1.00  0.00     0.044 A 
HETATM    6  H   UNL     1      43.205 -15.702   5.961  1.00  0.00     0.167 HD
HETATM    7  C   UNL     1      43.688 -18.023   4.973  1.00  0.00     0.037 A 
HETATM    8  C   UNL     1      43.082 -16.906   2.902  1.00  0.00    -0.008 A 
HETATM    9  C   UNL     1      43.893 -19.230   4.284  1.00  0.00    -0.054 A 
HETATM   10  C   UNL     1      43.709 -19.269   2.887  1.00  0.00    -0.055 A 
HETATM   11  C   UNL     1      44.360 -20.444   5.047  1.00  0.00     0.049 C 
HETATM   12  C   UNL     1      43.934 -20.531   2.096  1.00  0.00     0.049 C 
HETATM   13  C   UNL     1      43.281 -18.112   2.214  1.00  0.00     0.021 A 
HETATM   14  C   UNL     1      42.666 -15.735   2.263  1.00  0.00     0.023 C 
HETATM   15  C   UNL     1      42.532 -14.540   2.982  1.00  0.00    -0.023 C 
HETATM   16  C   UNL     1      42.089 -13.303   2.248  1.00  0.00     0.052 C 
ENDBRANCH   1   3
BRANCH   1  17
HETATM   17  C   UNL     1      43.321 -13.465   6.510  1.00  0.00     0.113 C 
BRANCH  17  18
HETATM   18  C   UNL     1      44.198 -12.265   6.902  1.00  0.00     0.137 C 
BRANCH  18  19
HETATM   19  N   UNL     1      43.824 -11.557   8.118  1.00  0.00    -0.356 N 
HETATM   20  C   UNL     1      44.670 -10.792   8.885  1.00  0.00     0.251 C 
HETATM   21  O   UNL     1      45.892 -10.780   8.735  1.00  0.00    -0.268 OA
HETATM   22  H   UNL     1      42.842 -11.593   8.370  1.00  0.00     0.162 HD
BRANCH  20  23
HETATM   23  C   UNL     1      44.025 -10.034   9.994  1.00  0.00     0.032 A 
HETATM   24  C   UNL     1      43.600 -10.728  11.129  1.00  0.00     0.020 A 
HETATM   25  C   UNL     1      42.950 -10.042  12.161  1.00  0.00     0.038 A 
HETATM   26  C   UNL     1      42.728  -8.665  12.076  1.00  0.00     0.068 A 
HETATM   27  C   UNL     1      43.180  -7.967  10.957  1.00  0.00     0.038 A 
HETATM   28  C   UNL     1      43.831  -8.649   9.920  1.00  0.00     0.020 A 
BRANCH  26  29
HETATM   29  O   UNL     1      42.069  -8.126  13.145  1.00  0.00    -0.356 OA
HETATM   30  C   UNL     1      42.074  -8.874  14.356  1.00  0.00     0.210 C 
ENDBRANCH  26  29
ENDBRANCH  20  23
ENDBRANCH  18  19
ENDBRANCH  17  18
ENDBRANCH   1  17
TORSDOF 6
ENDMDL
MODEL 3
REMARK VINA RESULT:      -8.3      2.853      4.095
REMARK  6 active torsions:
REMARK  status: ('A' for Active; 'I' for Inactive)
REMARK    1  A    between atoms: C_11  and  N_12 
REMARK    2  A    between atoms: N_12  and  C_13 
REMARK    3  A    between atoms: C_13  and  C_14 
REMARK    4  A    between atoms: C_14  and  N_15 
REMARK       I    between atoms: N_15  and  C_16 
REMARK    5  A    between atoms: C_16  and  C_17 
REMARK    6  A    between atoms: C_20  and  O_21 
ROOT
HETATM    1  N   UNL     1      42.402 -13.496   4.232  1.00  0.00    -0.277 NA
HETATM    2  H   UNL     1      41.491 -13.519   3.777  1.00  0.00     0.129 HD
ENDROOT
BRANCH   1   3
HETATM    3  C   UNL     1      42.857 -14.771   4.569  1.00  0.00     0.086 C 
HETATM    4  N   UNL     1      42.984 -15.698   3.606  1.00  0.00    -0.346 N 
HETATM    5  C   UNL     1      43.322 -16.979   3.819  1.00  0.00     0.044 A 
HETATM    6  H   UNL     1      42.860 -15.382   2.638  1.00  0.00     0.167 HD
HETATM    7  C   UNL     1      43.331 -17.903   2.768  1.00  0.00     0.037 A 
HETATM    8  C   UNL     1      43.650 -17.387   5.122  1.00  0.00    -0.008 A 
HETATM    9  C   UNL     1      43.633 -19.254   3.004  1.00  0.00    -0.054 A 
HETATM   10  C   UNL     1      43.927 -19.679   4.315  1.00  0.00    -0.055 A 
HETATM   11  C   UNL     1      43.581 -20.232   1.857  1.00  0.00     0.049 C 
HETATM   12  C   UNL     1      44.239 -21.119   4.628  1.00  0.00     0.049 C 
HETATM   13  C   UNL     1      43.957 -18.736   5.358  1.00  0.00     0.021 A 
HETATM   14  C   UNL     1      43.661 -16.426   6.136  1.00  0.00     0.023 C 
HETATM   15  C   UNL     1      43.294 -15.101   5.864  1.00  0.00    -0.023 C 
HETATM   16  C   UNL     1      43.315 -14.102   6.990  1.00  0.00     0.052 C 
ENDBRANCH   1   3
BRANCH   1  17
HETATM   17  C   UNL     1      43.320 -12.629   3.470  1.00  0.00     0.113 C 
BRANCH  17  18
HETATM   18  C   UNL     1      43.251 -11.170   3.950  1.00  0.00     0.137 C 
BRANCH  18  19
HETATM   19  N   UNL     1      43.381 -10.951   5.384  1.00  0.00    -0.356 N 
HETATM   20  C   UNL     1      44.569 -10.886   6.074  1.00  0.00     0.251 C 
HETATM   21  O   UNL     1      45.653 -11.201   5.583  1.00  0.00    -0.268 OA
HETATM   22  H   UNL     1      42.518 -10.775   5.887  1.00  0.00     0.162 HD
BRANCH  20  23
HETATM   23  C   UNL     1      44.458 -10.494   7.507  1.00  0.00     0.032 A 
HETATM   24  C   UNL     1      43.222 -10.067   7.998  1.00  0.00     0.020 A 
HETATM   25  C   UNL     1      43.108  -9.652   9.328  1.00  0.00     0.038 A 
HETATM   26  C   UNL     1      44.216  -9.665  10.181  1.00  0.00     0.068 A 
HETATM   27  C   UNL     1      45.442 -10.121   9.699  1.00  0.00     0.038 A 
HETATM   28  C   UNL     1      45.563 -10.538   8.367  1.00  0.00     0.020 A 
BRANCH  26  29
HETATM   29  O   UNL     1      43.968  -9.219  11.447  1.00  0.00    -0.356 OA
HETATM   30  C   UNL     1      42.985  -8.199  11.596  1.00  0.00     0.210 C 
ENDBRANCH  26  29
ENDBRANCH  20  23
ENDBRANCH  18  19
ENDBRANCH  17  18
ENDBRANCH   1  17
TORSDOF 6
ENDMDL
MODEL 4
REMARK VINA RESULT:      -8.2      2.930      6.620
REMARK  6 active torsions:
REMARK  status: ('A' for Active; 'I' for Inactive)
REMARK    1  A    between atoms: C_11  and  N_12 
REMARK    2  A    between atoms: N_12  and  C_13 
REMARK    3  A    between atoms: C_13  and  C_14 
REMARK    4  A    between atoms: C_14  and  N_15 
REMARK       I    between atoms: N_15  and  C_16 
REMARK    5  A    between atoms: C_16  and  C_17 
REMARK    6  A    between atoms: C_20  and  O_21 
ROOT
HETATM    1  N   UNL     1      42.393 -12.706   4.580  1.00  0.00    -0.277 NA
HETATM    2  H   UNL     1      41.460 -12.747   4.172  1.00  0.00     0.129 HD
ENDROOT
BRANCH   1   3
HETATM    3  C   UNL     1      42.904 -13.973   4.859  1.00  0.00     0.086 C 
HETATM    4  N   UNL     1      42.909 -14.907   3.893  1.00  0.00    -0.346 N 
HETATM    5  C   UNL     1      43.287 -16.182   4.065  1.00  0.00     0.044 A 
HETATM    6  H   UNL     1      42.650 -14.598   2.949  1.00  0.00     0.167 HD
HETATM    7  C   UNL     1      43.163 -17.113   3.029  1.00  0.00     0.037 A 
HETATM    8  C   UNL     1      43.794 -16.577   5.314  1.00  0.00    -0.008 A 
HETATM    9  C   UNL     1      43.510 -18.460   3.229  1.00  0.00    -0.054 A 
HETATM   10  C   UNL     1      43.984 -18.872   4.491  1.00  0.00    -0.055 A 
HETATM   11  C   UNL     1      43.313 -19.446   2.106  1.00  0.00     0.049 C 
HETATM   12  C   UNL     1      44.352 -20.307   4.766  1.00  0.00     0.049 C 
HETATM   13  C   UNL     1      44.146 -17.921   5.513  1.00  0.00     0.021 A 
HETATM   14  C   UNL     1      43.932 -15.608   6.311  1.00  0.00     0.023 C 
HETATM   15  C   UNL     1      43.517 -14.289   6.084  1.00  0.00    -0.023 C 
HETATM   16  C   UNL     1      43.679 -13.282   7.191  1.00  0.00     0.052 C 
ENDBRANCH   1   3
BRANCH   1  17
HETATM   17  C   UNL     1      43.243 -11.791   3.794  1.00  0.00     0.113 C 
BRANCH  17  18
HETATM   18  C   UNL     1      42.424 -11.007   2.757  1.00  0.00     0.137 C 
BRANCH  18  19
HETATM   19  N   UNL     1      41.952 -11.757   1.601  1.00  0.00    -0.356 N 
HETATM   20  C   UNL     1      40.850 -12.580   1.583  1.00  0.00     0.251 C 
HETATM   21  O   UNL     1      40.250 -12.929   2.601  1.00  0.00    -0.268 OA
HETATM   22  H   UNL     1      42.453 -11.600   0.734  1.00  0.00     0.162 HD
BRANCH  20  23
HETATM   23  C   UNL     1      40.470 -13.115   0.246  1.00  0.00     0.032 A 
HETATM   24  C   UNL     1      40.675 -12.319  -0.884  1.00  0.00     0.020 A 
HETATM   25  C   UNL     1      40.282 -12.785  -2.143  1.00  0.00     0.038 A 
HETATM   26  C   UNL     1      39.693 -14.044  -2.290  1.00  0.00     0.068 A 
HETATM   27  C   UNL     1      39.517 -14.850  -1.166  1.00  0.00     0.038 A 
HETATM   28  C   UNL     1      39.908 -14.390   0.098  1.00  0.00     0.020 A 
BRANCH  26  29
HETATM   29  O   UNL     1      39.344 -14.366  -3.570  1.00  0.00    -0.356 OA
HETATM   30  C   UNL     1      37.970 -14.644  -3.819  1.00  0.00     0.210 C 
ENDBRANCH  26  29
ENDBRANCH  20  23
ENDBRANCH  18  19
ENDBRANCH  17  18
ENDBRANCH   1  17
TORSDOF 6
ENDMDL
MODEL 5
REMARK VINA RESULT:      -8.1      1.983      3.143
REMARK  6 active torsions:
REMARK  status: ('A' for Active; 'I' for Inactive)
REMARK    1  A    between atoms: C_11  and  N_12 
REMARK    2  A    between atoms: N_12  and  C_13 
REMARK    3  A    between atoms: C_13  and  C_14 
REMARK    4  A    between atoms: C_14  and  N_15 
REMARK       I    between atoms: N_15  and  C_16 
REMARK    5  A    between atoms: C_16  and  C_17 
REMARK    6  A    between atoms: C_20  and  O_21 
ROOT
HETATM    1  N   UNL     1      41.039 -13.973   3.175  1.00  0.00    -0.277 NA
HETATM    2  H   UNL     1      40.045 -14.177   3.088  1.00  0.00     0.129 HD
ENDROOT
BRANCH   1   3
HETATM    3  C   UNL     1      41.746 -15.029   3.751  1.00  0.00     0.086 C 
HETATM    4  N   UNL     1      42.188 -16.027   2.969  1.00  0.00    -0.346 N 
HETATM    5  C   UNL     1      42.797 -17.136   3.415  1.00  0.00     0.044 A 
HETATM    6  H   UNL     1      42.093 -15.899   1.955  1.00  0.00     0.167 HD
HETATM    7  C   UNL     1      43.133 -18.173   2.539  1.00  0.00     0.037 A 
HETATM    8  C   UNL     1      43.076 -17.251   4.787  1.00  0.00    -0.008 A 
HETATM    9  C   UNL     1      43.722 -19.355   3.018  1.00  0.00    -0.054 A 
HETATM   10  C   UNL     1      43.971 -19.493   4.399  1.00  0.00    -0.055 A 
HETATM   11  C   UNL     1      44.021 -20.473   2.053  1.00  0.00     0.049 C 
HETATM   12  C   UNL     1      44.582 -20.747   4.969  1.00  0.00     0.049 C 
HETATM   13  C   UNL     1      43.669 -18.429   5.266  1.00  0.00     0.021 A 
HETATM   14  C   UNL     1      42.755 -16.178   5.623  1.00  0.00     0.023 C 
HETATM   15  C   UNL     1      42.114 -15.043   5.109  1.00  0.00    -0.023 C 
HETATM   16  C   UNL     1      41.780 -13.916   6.048  1.00  0.00     0.052 C 
ENDBRANCH   1   3
BRANCH   1  17
HETATM   17  C   UNL     1      41.552 -13.428   1.905  1.00  0.00     0.113 C 
BRANCH  17  18
HETATM   18  C   UNL     1      42.100 -12.003   2.080  1.00  0.00     0.137 C 
BRANCH  18  19
HETATM   19  N   UNL     1      42.799 -11.724   3.327  1.00  0.00    -0.356 N 
HETATM   20  C   UNL     1      42.467 -10.734   4.221  1.00  0.00     0.251 C 
HETATM   21  O   UNL     1      41.656  -9.842   3.971  1.00  0.00    -0.268 OA
HETATM   22  H   UNL     1      43.552 -12.361   3.566  1.00  0.00     0.162 HD
BRANCH  20  23
HETATM   23  C   UNL     1      43.228 -10.743   5.502  1.00  0.00     0.032 A 
HETATM   24  C   UNL     1      44.450 -11.419   5.557  1.00  0.00     0.020 A 
HETATM   25  C   UNL     1      45.157 -11.479   6.763  1.00  0.00     0.038 A 
HETATM   26  C   UNL     1      44.663 -10.861   7.915  1.00  0.00     0.068 A 
HETATM   27  C   UNL     1      43.459 -10.159   7.851  1.00  0.00     0.038 A 
HETATM   28  C   UNL     1      42.745 -10.097   6.647  1.00  0.00     0.020 A 
BRANCH  26  29
HETATM   29  O   UNL     1      45.446 -11.011   9.024  1.00  0.00    -0.356 OA
HETATM   30  C   UNL     1      45.287 -10.053  10.066  1.00  0.00     0.210 C 
ENDBRANCH  26  29
ENDBRANCH  20  23
ENDBRANCH  18  19
ENDBRANCH  17  18
ENDBRANCH   1  17
TORSDOF 6
ENDMDL
MODEL 6
REMARK VINA RESULT:      -8.0      3.880      9.029
REMARK  6 active torsions:
REMARK  status: ('A' for Active; 'I' for Inactive)
REMARK    1  A    between atoms: C_11  and  N_12 
REMARK    2  A    between atoms: N_12  and  C_13 
REMARK    3  A    between atoms: C_13  and  C_14 
REMARK    4  A    between atoms: C_14  and  N_15 
REMARK       I    between atoms: N_15  and  C_16 
REMARK    5  A    between atoms: C_16  and  C_17 
REMARK    6  A    between atoms: C_20  and  O_21 
ROOT
HETATM    1  N   UNL     1      43.908 -10.743   6.928  1.00  0.00    -0.277 NA
HETATM    2  H   UNL     1      43.064 -10.445   6.441  1.00  0.00     0.129 HD
ENDROOT
BRANCH   1   3
HETATM    3  C   UNL     1      43.994 -10.204   8.212  1.00  0.00     0.086 C 
HETATM    4  N   UNL     1      42.949 -10.324   9.047  1.00  0.00    -0.346 N 
HETATM    5  C   UNL     1      42.877  -9.772  10.267  1.00  0.00     0.044 A 
HETATM    6  H   UNL     1      42.177 -10.926   8.738  1.00  0.00     0.167 HD
HETATM    7  C   UNL     1      41.708  -9.863  11.028  1.00  0.00     0.037 A 
HETATM    8  C   UNL     1      43.993  -9.078  10.764  1.00  0.00    -0.008 A 
HETATM    9  C   UNL     1      41.618  -9.237  12.283  1.00  0.00    -0.054 A 
HETATM   10  C   UNL     1      42.721  -8.508  12.773  1.00  0.00    -0.055 A 
HETATM   11  C   UNL     1      40.324  -9.311  13.053  1.00  0.00     0.049 C 
HETATM   12  C   UNL     1      42.672  -7.802  14.103  1.00  0.00     0.049 C 
HETATM   13  C   UNL     1      43.907  -8.458  12.019  1.00  0.00     0.021 A 
HETATM   14  C   UNL     1      45.152  -9.040   9.985  1.00  0.00     0.023 C 
HETATM   15  C   UNL     1      45.176  -9.628   8.713  1.00  0.00    -0.023 C 
HETATM   16  C   UNL     1      46.444  -9.555   7.908  1.00  0.00     0.052 C 
ENDBRANCH   1   3
BRANCH   1  17
HETATM   17  C   UNL     1      44.076 -12.202   6.794  1.00  0.00     0.113 C 
BRANCH  17  18
HETATM   18  C   UNL     1      42.826 -12.863   6.192  1.00  0.00     0.137 C 
BRANCH  18  19
HETATM   19  N   UNL     1      43.000 -14.198   5.638  1.00  0.00    -0.356 N 
HETATM   20  C   UNL     1      42.628 -14.590   4.374  1.00  0.00     0.251 C 
HETATM   21  O   UNL     1      41.925 -13.902   3.633  1.00  0.00    -0.268 OA
HETATM   22  H   UNL     1      43.491 -14.863   6.226  1.00  0.00     0.162 HD
BRANCH  20  23
HETATM   23  C   UNL     1      43.052 -15.961   3.975  1.00  0.00     0.032 A 
HETATM   24  C   UNL     1      42.751 -16.414   2.687  1.00  0.00     0.020 A 
HETATM   25  C   UNL     1      43.099 -17.715   2.309  1.00  0.00     0.038 A 
HETATM   26  C   UNL     1      43.756 -18.569   3.200  1.00  0.00     0.068 A 
HETATM   27  C   UNL     1      44.084 -18.105   4.473  1.00  0.00     0.038 A 
HETATM   28  C   UNL     1      43.737 -16.804   4.859  1.00  0.00     0.020 A 
BRANCH  26  29
HETATM   29  O   UNL     1      44.022 -19.814   2.706  1.00  0.00    -0.356 OA
HETATM   30  C   UNL     1      43.882 -20.912   3.602  1.00  0.00     0.210 C 
ENDBRANCH  26  29
ENDBRANCH  20  23
ENDBRANCH  18  19
ENDBRANCH  17  18
ENDBRANCH   1  17
TORSDOF 6
ENDMDL
MODEL 7
REMARK VINA RESULT:      -7.8      3.492      6.432
REMARK  6 active torsions:
REMARK  status: ('A' for Active; 'I' for Inactive)
REMARK    1  A    between atoms: C_11  and  N_12 
REMARK    2  A    between atoms: N_12  and  C_13 
REMARK    3  A    between atoms: C_13  and  C_14 
REMARK    4  A    between atoms: C_14  and  N_15 
REMARK       I    between atoms: N_15  and  C_16 
REMARK    5  A    between atoms: C_16  and  C_17 
REMARK    6  A    between atoms: C_20  and  O_21 
ROOT
HETATM    1  N   UNL     1      41.965 -13.378   3.877  1.00  0.00    -0.277 NA
HETATM    2  H   UNL     1      42.503 -12.564   4.171  1.00  0.00     0.129 HD
ENDROOT
BRANCH   1   3
HETATM    3  C   UNL     1      42.566 -14.576   4.263  1.00  0.00     0.086 C 
HETATM    4  N   UNL     1      42.669 -15.576   3.373  1.00  0.00    -0.346 N 
HETATM    5  C   UNL     1      43.141 -16.800   3.650  1.00  0.00     0.044 A 
HETATM    6  H   UNL     1      42.411 -15.361   2.403  1.00  0.00     0.167 HD
HETATM    7  C   UNL     1      43.117 -17.814   2.686  1.00  0.00     0.037 A 
HETATM    8  C   UNL     1      43.646 -17.058   4.935  1.00  0.00    -0.008 A 
HETATM    9  C   UNL     1      43.563 -19.110   2.997  1.00  0.00    -0.054 A 
HETATM   10  C   UNL     1      44.036 -19.385   4.296  1.00  0.00    -0.055 A 
HETATM   11  C   UNL     1      43.473 -20.191   1.950  1.00  0.00     0.049 C 
HETATM   12  C   UNL     1      44.509 -20.762   4.688  1.00  0.00     0.049 C 
HETATM   13  C   UNL     1      44.097 -18.350   5.245  1.00  0.00     0.021 A 
HETATM   14  C   UNL     1      43.683 -16.009   5.857  1.00  0.00     0.023 C 
HETATM   15  C   UNL     1      43.171 -14.748   5.521  1.00  0.00    -0.023 C 
HETATM   16  C   UNL     1      43.226 -13.651   6.549  1.00  0.00     0.052 C 
ENDBRANCH   1   3
BRANCH   1  17
HETATM   17  C   UNL     1      40.544 -13.191   4.223  1.00  0.00     0.113 C 
BRANCH  17  18
HETATM   18  C   UNL     1      39.624 -13.506   3.032  1.00  0.00     0.137 C 
BRANCH  18  19
HETATM   19  N   UNL     1      39.988 -12.910   1.755  1.00  0.00    -0.356 N 
HETATM   20  C   UNL     1      40.497 -13.593   0.675  1.00  0.00     0.251 C 
HETATM   21  O   UNL     1      40.887 -14.760   0.736  1.00  0.00    -0.268 OA
HETATM   22  H   UNL     1      39.788 -11.921   1.652  1.00  0.00     0.162 HD
BRANCH  20  23
HETATM   23  C   UNL     1      40.644 -12.798  -0.577  1.00  0.00     0.032 A 
HETATM   24  C   UNL     1      41.012 -11.454  -0.485  1.00  0.00     0.020 A 
HETATM   25  C   UNL     1      41.110 -10.679  -1.645  1.00  0.00     0.038 A 
HETATM   26  C   UNL     1      40.854 -11.235  -2.902  1.00  0.00     0.068 A 
HETATM   27  C   UNL     1      40.517 -12.585  -2.995  1.00  0.00     0.038 A 
HETATM   28  C   UNL     1      40.417 -13.366  -1.837  1.00  0.00     0.020 A 
BRANCH  26  29
HETATM   29  O   UNL     1      40.970 -10.363  -3.946  1.00  0.00    -0.356 OA
HETATM   30  C   UNL     1      40.034  -9.292  -4.007  1.00  0.00     0.210 C 
ENDBRANCH  26  29
ENDBRANCH  20  23
ENDBRANCH  18  19
ENDBRANCH  17  18
ENDBRANCH   1  17
TORSDOF 6
ENDMDL
MODEL 8
REMARK VINA RESULT:      -7.6      2.300      3.362
REMARK  6 active torsions:
REMARK  status: ('A' for Active; 'I' for Inactive)
REMARK    1  A    between atoms: C_11  and  N_12 
REMARK    2  A    between atoms: N_12  and  C_13 
REMARK    3  A    between atoms: C_13  and  C_14 
REMARK    4  A    between atoms: C_14  and  N_15 
REMARK       I    between atoms: N_15  and  C_16 
REMARK    5  A    between atoms: C_16  and  C_17 
REMARK    6  A    between atoms: C_20  and  O_21 
ROOT
HETATM    1  N   UNL     1      41.657 -12.543   3.905  1.00  0.00    -0.277 NA
HETATM    2  H   UNL     1      40.712 -12.171   3.820  1.00  0.00     0.129 HD
ENDROOT
BRANCH   1   3
HETATM    3  C   UNL     1      41.766 -13.831   3.380  1.00  0.00     0.086 C 
HETATM    4  N   UNL     1      42.381 -14.783   4.099  1.00  0.00    -0.346 N 
HETATM    5  C   UNL     1      42.628 -16.029   3.666  1.00  0.00     0.044 A 
HETATM    6  H   UNL     1      42.631 -14.545   5.065  1.00  0.00     0.167 HD
HETATM    7  C   UNL     1      43.366 -16.926   4.444  1.00  0.00     0.037 A 
HETATM    8  C   UNL     1      42.149 -16.415   2.403  1.00  0.00    -0.008 A 
HETATM    9  C   UNL     1      43.669 -18.212   3.964  1.00  0.00    -0.054 A 
HETATM   10  C   UNL     1      43.224 -18.594   2.683  1.00  0.00    -0.055 A 
HETATM   11  C   UNL     1      44.512 -19.133   4.808  1.00  0.00     0.049 C 
HETATM   12  C   UNL     1      43.536 -19.952   2.111  1.00  0.00     0.049 C 
HETATM   13  C   UNL     1      42.446 -17.700   1.925  1.00  0.00     0.021 A 
HETATM   14  C   UNL     1      41.388 -15.499   1.672  1.00  0.00     0.023 C 
HETATM   15  C   UNL     1      41.162 -14.207   2.166  1.00  0.00    -0.023 C 
HETATM   16  C   UNL     1      40.343 -13.253   1.340  1.00  0.00     0.052 C 
ENDBRANCH   1   3
BRANCH   1  17
HETATM   17  C   UNL     1      42.634 -11.539   3.445  1.00  0.00     0.113 C 
BRANCH  17  18
HETATM   18  C   UNL     1      43.946 -11.619   4.240  1.00  0.00     0.137 C 
BRANCH  18  19
HETATM   19  N   UNL     1      43.883 -11.227   5.640  1.00  0.00    -0.356 N 
HETATM   20  C   UNL     1      44.965 -11.087   6.477  1.00  0.00     0.251 C 
HETATM   21  O   UNL     1      46.098 -11.469   6.186  1.00  0.00    -0.268 OA
HETATM   22  H   UNL     1      42.963 -10.983   5.993  1.00  0.00     0.162 HD
BRANCH  20  23
HETATM   23  C   UNL     1      44.667 -10.521   7.823  1.00  0.00     0.032 A 
HETATM   24  C   UNL     1      43.352 -10.166   8.131  1.00  0.00     0.020 A 
HETATM   25  C   UNL     1      43.060  -9.590   9.372  1.00  0.00     0.038 A 
HETATM   26  C   UNL     1      44.067  -9.373  10.317  1.00  0.00     0.068 A 
HETATM   27  C   UNL     1      45.375  -9.757  10.020  1.00  0.00     0.038 A 
HETATM   28  C   UNL     1      45.674 -10.333   8.779  1.00  0.00     0.020 A 
BRANCH  26  29
HETATM   29  O   UNL     1      43.646  -8.790  11.478  1.00  0.00    -0.356 OA
HETATM   30  C   UNL     1      42.533  -9.385  12.137  1.00  0.00     0.210 C 
ENDBRANCH  26  29
ENDBRANCH  20  23
ENDBRANCH  18  19
ENDBRANCH  17  18
ENDBRANCH   1  17
TORSDOF 6
ENDMDL
MODEL 9
REMARK VINA RESULT:      -7.5      2.658      6.456
REMARK  6 active torsions:
REMARK  status: ('A' for Active; 'I' for Inactive)
REMARK    1  A    between atoms: C_11  and  N_12 
REMARK    2  A    between atoms: N_12  and  C_13 
REMARK    3  A    between atoms: C_13  and  C_14 
REMARK    4  A    between atoms: C_14  and  N_15 
REMARK       I    between atoms: N_15  and  C_16 
REMARK    5  A    between atoms: C_16  and  C_17 
REMARK    6  A    between atoms: C_20  and  O_21 
ROOT
HETATM    1  N   UNL     1      41.471 -13.030   6.464  1.00  0.00    -0.277 NA
HETATM    2  H   UNL     1      40.774 -12.360   6.787  1.00  0.00     0.129 HD
ENDROOT
BRANCH   1   3
HETATM    3  C   UNL     1      41.113 -13.622   5.252  1.00  0.00     0.086 C 
HETATM    4  N   UNL     1      41.371 -12.975   4.104  1.00  0.00    -0.346 N 
HETATM    5  C   UNL     1      40.995 -13.397   2.888  1.00  0.00     0.044 A 
HETATM    6  H   UNL     1      41.940 -12.123   4.169  1.00  0.00     0.167 HD
HETATM    7  C   UNL     1      41.216 -12.608   1.754  1.00  0.00     0.037 A 
HETATM    8  C   UNL     1      40.353 -14.641   2.769  1.00  0.00    -0.008 A 
HETATM    9  C   UNL     1      40.772 -13.029   0.489  1.00  0.00    -0.054 A 
HETATM   10  C   UNL     1      40.095 -14.259   0.368  1.00  0.00    -0.055 A 
HETATM   11  C   UNL     1      40.980 -12.129  -0.702  1.00  0.00     0.049 C 
HETATM   12  C   UNL     1      39.580 -14.750  -0.960  1.00  0.00     0.049 C 
HETATM   13  C   UNL     1      39.914 -15.065   1.506  1.00  0.00     0.021 A 
HETATM   14  C   UNL     1      40.182 -15.412   3.922  1.00  0.00     0.023 C 
HETATM   15  C   UNL     1      40.588 -14.924   5.172  1.00  0.00    -0.023 C 
HETATM   16  C   UNL     1      40.376 -15.787   6.386  1.00  0.00     0.052 C 
ENDBRANCH   1   3
BRANCH   1  17
HETATM   17  C   UNL     1      42.817 -12.436   6.556  1.00  0.00     0.113 C 
BRANCH  17  18
HETATM   18  C   UNL     1      43.902 -13.512   6.720  1.00  0.00     0.137 C 
BRANCH  18  19
HETATM   19  N   UNL     1      43.895 -14.595   5.746  1.00  0.00    -0.356 N 
HETATM   20  C   UNL     1      44.004 -15.933   6.044  1.00  0.00     0.251 C 
HETATM   21  O   UNL     1      44.317 -16.354   7.158  1.00  0.00    -0.268 OA
HETATM   22  H   UNL     1      43.736 -14.325   4.781  1.00  0.00     0.162 HD
BRANCH  20  23
HETATM   23  C   UNL     1      43.810 -16.865   4.897  1.00  0.00     0.032 A 
HETATM   24  C   UNL     1      43.978 -18.236   5.105  1.00  0.00     0.020 A 
HETATM   25  C   UNL     1      43.846 -19.123   4.031  1.00  0.00     0.038 A 
HETATM   26  C   UNL     1      43.538 -18.656   2.750  1.00  0.00     0.068 A 
HETATM   27  C   UNL     1      43.339 -17.291   2.550  1.00  0.00     0.038 A 
HETATM   28  C   UNL     1      43.471 -16.397   3.621  1.00  0.00     0.020 A 
BRANCH  26  29
HETATM   29  O   UNL     1      43.455 -19.628   1.793  1.00  0.00    -0.356 OA
HETATM   30  C   UNL     1      43.992 -20.906   2.117  1.00  0.00     0.210 C 
ENDBRANCH  26  29
ENDBRANCH  20  23
ENDBRANCH  18  19
ENDBRANCH  17  18
ENDBRANCH   1  17
TORSDOF 6
ENDMDL
MODEL 10
REMARK VINA RESULT:      -7.5      4.584      6.093
REMARK  6 active torsions:
REMARK  status: ('A' for Active; 'I' for Inactive)
REMARK    1  A    between atoms: C_11  and  N_12 
REMARK    2  A    between atoms: N_12  and  C_13 
REMARK    3  A    between atoms: C_13  and  C_14 
REMARK    4  A    between atoms: C_14  and  N_15 
REMARK       I    between atoms: N_15  and  C_16 
REMARK    5  A    between atoms: C_16  and  C_17 
REMARK    6  A    between atoms: C_20  and  O_21 
ROOT
HETATM    1  N   UNL     1      43.234 -11.373   7.556  1.00  0.00    -0.277 NA
HETATM    2  H   UNL     1      42.384 -10.858   7.779  1.00  0.00     0.129 HD
ENDROOT
BRANCH   1   3
HETATM    3  C   UNL     1      43.059 -12.235   6.472  1.00  0.00     0.086 C 
HETATM    4  N   UNL     1      43.301 -13.546   6.630  1.00  0.00    -0.346 N 
HETATM    5  C   UNL     1      43.258 -14.455   5.645  1.00  0.00     0.044 A 
HETATM    6  H   UNL     1      43.483 -13.872   7.586  1.00  0.00     0.167 HD
HETATM    7  C   UNL     1      43.625 -15.785   5.878  1.00  0.00     0.037 A 
HETATM    8  C   UNL     1      42.855 -14.047   4.362  1.00  0.00    -0.008 A 
HETATM    9  C   UNL     1      43.629 -16.722   4.831  1.00  0.00    -0.054 A 
HETATM   10  C   UNL     1      43.262 -16.311   3.534  1.00  0.00    -0.055 A 
HETATM   11  C   UNL     1      44.082 -18.133   5.108  1.00  0.00     0.049 C 
HETATM   12  C   UNL     1      43.268 -17.270   2.371  1.00  0.00     0.049 C 
HETATM   13  C   UNL     1      42.854 -14.984   3.318  1.00  0.00     0.021 A 
HETATM   14  C   UNL     1      42.464 -12.718   4.180  1.00  0.00     0.023 C 
HETATM   15  C   UNL     1      42.533 -11.804   5.241  1.00  0.00    -0.023 C 
HETATM   16  C   UNL     1      42.109 -10.382   4.995  1.00  0.00     0.052 C 
ENDBRANCH   1   3
BRANCH   1  17
HETATM   17  C   UNL     1      44.383 -10.450   7.508  1.00  0.00     0.113 C 
BRANCH  17  18
HETATM   18  C   UNL     1      45.061 -10.319   8.881  1.00  0.00     0.137 C 
BRANCH  18  19
HETATM   19  N   UNL     1      44.257  -9.746   9.951  1.00  0.00    -0.356 N 
HETATM   20  C   UNL     1      43.836 -10.416  11.075  1.00  0.00     0.251 C 
HETATM   21  O   UNL     1      43.929 -11.637  11.209  1.00  0.00    -0.268 OA
HETATM   22  H   UNL     1      44.052  -8.756   9.872  1.00  0.00     0.162 HD
BRANCH  20  23
HETATM   23  C   UNL     1      43.161  -9.579  12.107  1.00  0.00     0.032 A 
HETATM   24  C   UNL     1      43.630  -8.284  12.340  1.00  0.00     0.020 A 
HETATM   25  C   UNL     1      43.040  -7.499  13.336  1.00  0.00     0.038 A 
HETATM   26  C   UNL     1      41.976  -7.990  14.098  1.00  0.00     0.068 A 
HETATM   27  C   UNL     1      41.488  -9.271  13.844  1.00  0.00     0.038 A 
HETATM   28  C   UNL     1      42.075 -10.063  12.848  1.00  0.00     0.020 A 
BRANCH  26  29
HETATM   29  O   UNL     1      41.506  -7.126  15.046  1.00  0.00    -0.356 OA
HETATM   30  C   UNL     1      41.039  -7.691  16.266  1.00  0.00     0.210 C 
ENDBRANCH  26  29
ENDBRANCH  20  23
ENDBRANCH  18  19
ENDBRANCH  17  18
ENDBRANCH   1  17
TORSDOF 6
ENDMDL
