MODEL 1
REMARK VINA RESULT:      -8.1      0.000      0.000
REMARK  6 active torsions:
REMARK  status: ('A' for Active; 'I' for Inactive)
REMARK    1  A    between atoms: C_8  and  N_9 
REMARK       I    between atoms: N_9  and  C_10 
REMARK    2  A    between atoms: C_10  and  C_11 
REMARK    3  A    between atoms: C_11  and  N_12 
REMARK    4  A    between atoms: N_12  and  C_15 
REMARK    5  A    between atoms: C_15  and  C_16 
REMARK    6  A    between atoms: C_16  and  C_17 
ROOT
HETATM    1  N   UNL     1      41.210 -15.041   1.667  1.00  0.00    -0.062 N 
HETATM    2  H   UNL     1      40.473 -15.404   2.293  1.00  0.00     0.278 HD
HETATM    3  H   UNL     1      40.889 -15.339   0.730  1.00  0.00     0.278 HD
ENDROOT
BRANCH   1   4
HETATM    4  C   UNL     1      41.144 -13.524   1.623  1.00  0.00     0.335 C 
BRANCH   4   5
HETATM    5  C   UNL     1      39.721 -13.106   1.292  1.00  0.00     0.248 C 
HETATM    6  N   UNL     1      39.298 -12.864   0.028  1.00  0.00    -0.322 N 
HETATM    7  H   UNL     1      38.384 -12.419  -0.001  1.00  0.00     0.169 HD
HETATM    8  O   UNL     1      38.953 -12.915   2.247  1.00  0.00    -0.271 OA
BRANCH   6   9
HETATM    9  C   UNL     1      39.911 -13.022  -1.202  1.00  0.00     0.085 A 
HETATM   10  C   UNL     1      40.821 -12.084  -1.659  1.00  0.00     0.052 A 
HETATM   11  C   UNL     1      41.341 -10.819  -1.081  1.00  0.00     0.072 C 
HETATM   12  N   UNL     1      41.272 -12.542  -2.864  1.00  0.00    -0.280 N 
HETATM   13  H   UNL     1      41.961 -12.122  -3.483  1.00  0.00     0.189 HD
HETATM   14  N   UNL     1      40.699 -13.687  -3.239  1.00  0.00    -0.177 NA
HETATM   15  C   UNL     1      39.814 -13.959  -2.274  1.00  0.00     0.079 A 
HETATM   16  C   UNL     1      38.878 -15.080  -2.532  1.00  0.00     0.075 C 
ENDBRANCH   6   9
ENDBRANCH   4   5
ENDBRANCH   1   4
BRANCH   1  17
HETATM   17  C   UNL     1      42.539 -15.673   2.004  1.00  0.00     0.194 C 
HETATM   18  C   UNL     1      43.616 -14.596   1.846  1.00  0.00     0.041 C 
BRANCH  17  19
HETATM   19  C   UNL     1      42.472 -16.384   3.415  1.00  0.00     0.007 C 
HETATM   20  C   UNL     1      43.266 -15.527   4.444  1.00  0.00     0.022 C 
HETATM   21  C   UNL     1      41.016 -16.366   3.955  1.00  0.00     0.022 C 
BRANCH  19  22
HETATM   22  C   UNL     1      43.018 -17.827   3.328  1.00  0.00    -0.048 A 
HETATM   23  C   UNL     1      42.811 -18.636   2.194  1.00  0.00     0.008 A 
HETATM   24  C   UNL     1      43.273 -19.955   2.145  1.00  0.00     0.001 A 
HETATM   25  C   UNL     1      43.957 -20.499   3.225  1.00  0.00     0.000 A 
HETATM   26  C   UNL     1      44.182 -19.722   4.354  1.00  0.00     0.001 A 
HETATM   27  C   UNL     1      43.717 -18.405   4.406  1.00  0.00     0.008 A 
ENDBRANCH  19  22
ENDBRANCH  17  19
ENDBRANCH   1  17
TORSDOF 6
ENDMDL
MODEL 2
REMARK VINA RESULT:      -8.1      3.494      4.825
REMARK  6 active torsions:
REMARK  status: ('A' for Active; 'I' for Inactive)
REMARK    1  A    between atoms: C_8  and  N_9 
REMARK       I    between atoms: N_9  and  C_10 
REMARK    2  A    between atoms: C_10  and  C_11 
REMARK    3  A    between atoms: C_11  and  N_12 
REMARK    4  A    between atoms: N_12  and  C_15 
REMARK    5  A    between atoms: C_15  and  C_16 
REMARK    6  A    between atoms: C_16  and  C_17 
ROOT
HETATM    1  N   UNL     1      40.831 -15.219   4.474  1.00  0.00    -0.062 N 
HETATM    2  H   UNL     1      41.616 -15.088   5.131  1.00  0.00     0.278 HD
HETATM    3  H   UNL     1      40.083 -15.603   5.077  1.00  0.00     0.278 HD
ENDROOT
BRANCH   1   4
HETATM    4  C   UNL     1      40.301 -13.867   4.030  1.00  0.00     0.335 C 
BRANCH   4   5
HETATM    5  C   UNL     1      40.251 -12.942   5.234  1.00  0.00     0.248 C 
HETATM    6  N   UNL     1      41.287 -12.148   5.598  1.00  0.00    -0.322 N 
HETATM    7  H   UNL     1      41.161 -11.739   6.520  1.00  0.00     0.169 HD
HETATM    8  O   UNL     1      39.232 -12.990   5.940  1.00  0.00    -0.271 OA
BRANCH   6   9
HETATM    9  C   UNL     1      42.501 -11.874   4.997  1.00  0.00     0.085 A 
HETATM   10  C   UNL     1      43.676 -11.936   5.727  1.00  0.00     0.052 A 
HETATM   11  C   UNL     1      43.965 -12.258   7.147  1.00  0.00     0.072 C 
HETATM   12  N   UNL     1      44.687 -11.659   4.851  1.00  0.00    -0.280 N 
HETATM   13  H   UNL     1      45.688 -11.630   5.028  1.00  0.00     0.189 HD
HETATM   14  N   UNL     1      44.255 -11.386   3.618  1.00  0.00    -0.177 NA
HETATM   15  C   UNL     1      42.922 -11.441   3.703  1.00  0.00     0.079 A 
HETATM   16  C   UNL     1      42.164 -10.975   2.516  1.00  0.00     0.075 C 
ENDBRANCH   6   9
ENDBRANCH   4   5
ENDBRANCH   1   4
BRANCH   1  17
HETATM   17  C   UNL     1      41.211 -16.209   3.398  1.00  0.00     0.194 C 
HETATM   18  C   UNL     1      40.497 -15.788   2.110  1.00  0.00     0.041 C 
BRANCH  17  19
HETATM   19  C   UNL     1      42.783 -16.348   3.305  1.00  0.00     0.007 C 
HETATM   20  C   UNL     1      43.278 -15.581   2.043  1.00  0.00     0.022 C 
HETATM   21  C   UNL     1      43.459 -15.601   4.487  1.00  0.00     0.022 C 
BRANCH  19  22
HETATM   22  C   UNL     1      43.201 -17.835   3.272  1.00  0.00    -0.048 A 
HETATM   23  C   UNL     1      42.935 -18.660   2.162  1.00  0.00     0.008 A 
HETATM   24  C   UNL     1      43.280 -20.016   2.160  1.00  0.00     0.001 A 
HETATM   25  C   UNL     1      43.903 -20.581   3.266  1.00  0.00     0.000 A 
HETATM   26  C   UNL     1      44.186 -19.790   4.372  1.00  0.00     0.001 A 
HETATM   27  C   UNL     1      43.839 -18.436   4.375  1.00  0.00     0.008 A 
ENDBRANCH  19  22
ENDBRANCH  17  19
ENDBRANCH   1  17
TORSDOF 6
ENDMDL
MODEL 3
REMARK VINA RESULT:      -7.8      4.164      5.676
REMARK  6 active torsions:
REMARK  status: ('A' for Active; 'I' for Inactive)
REMARK    1  A    between atoms: C_8  and  N_9 
REMARK       I    between atoms: N_9  and  C_10 
REMARK    2  A    between atoms: C_10  and  C_11 
REMARK    3  A    between atoms: C_11  and  N_12 
REMARK    4  A    between atoms: N_12  and  C_15 
REMARK    5  A    between atoms: C_15  and  C_16 
REMARK    6  A    between atoms: C_16  and  C_17 
ROOT
HETATM    1  N   UNL     1      41.335 -14.361   6.631  1.00  0.00    -0.062 N 
HETATM    2  H   UNL     1      42.253 -13.891   6.680  1.00  0.00     0.278 HD
HETATM    3  H   UNL     1      40.926 -14.173   7.563  1.00  0.00     0.278 HD
ENDROOT
BRANCH   1   4
HETATM    4  C   UNL     1      40.428 -13.618   5.666  1.00  0.00     0.335 C 
BRANCH   4   5
HETATM    5  C   UNL     1      40.296 -12.177   6.129  1.00  0.00     0.248 C 
HETATM    6  N   UNL     1      41.283 -11.261   5.980  1.00  0.00    -0.322 N 
HETATM    7  H   UNL     1      41.108 -10.408   6.504  1.00  0.00     0.169 HD
HETATM    8  O   UNL     1      39.257 -11.871   6.732  1.00  0.00    -0.271 OA
BRANCH   6   9
HETATM    9  C   UNL     1      42.505 -11.311   5.334  1.00  0.00     0.085 A 
HETATM   10  C   UNL     1      43.680 -11.398   6.060  1.00  0.00     0.052 A 
HETATM   11  C   UNL     1      43.964 -11.452   7.517  1.00  0.00     0.072 C 
HETATM   12  N   UNL     1      44.692 -11.471   5.146  1.00  0.00    -0.280 N 
HETATM   13  H   UNL     1      45.691 -11.560   5.313  1.00  0.00     0.189 HD
HETATM   14  N   UNL     1      44.266 -11.403   3.883  1.00  0.00    -0.177 NA
HETATM   15  C   UNL     1      42.944 -11.233   3.977  1.00  0.00     0.079 A 
HETATM   16  C   UNL     1      42.226 -10.917   2.718  1.00  0.00     0.075 C 
ENDBRANCH   6   9
ENDBRANCH   4   5
ENDBRANCH   1   4
BRANCH   1  17
HETATM   17  C   UNL     1      41.519 -15.844   6.417  1.00  0.00     0.194 C 
HETATM   18  C   UNL     1      40.384 -16.324   5.507  1.00  0.00     0.041 C 
BRANCH  17  19
HETATM   19  C   UNL     1      42.987 -16.152   5.915  1.00  0.00     0.007 C 
HETATM   20  C   UNL     1      43.957 -15.105   6.537  1.00  0.00     0.022 C 
HETATM   21  C   UNL     1      43.477 -17.508   6.491  1.00  0.00     0.022 C 
BRANCH  19  22
HETATM   22  C   UNL     1      43.051 -16.145   4.372  1.00  0.00    -0.048 A 
HETATM   23  C   UNL     1      43.072 -17.337   3.620  1.00  0.00     0.008 A 
HETATM   24  C   UNL     1      43.173 -17.319   2.226  1.00  0.00     0.001 A 
HETATM   25  C   UNL     1      43.253 -16.110   1.545  1.00  0.00     0.000 A 
HETATM   26  C   UNL     1      43.227 -14.919   2.258  1.00  0.00     0.001 A 
HETATM   27  C   UNL     1      43.129 -14.937   3.652  1.00  0.00     0.008 A 
ENDBRANCH  19  22
ENDBRANCH  17  19
ENDBRANCH   1  17
TORSDOF 6
ENDMDL
MODEL 4
REMARK VINA RESULT:      -7.8      3.795      6.052
REMARK  6 active torsions:
REMARK  status: ('A' for Active; 'I' for Inactive)
REMARK    1  A    between atoms: C_8  and  N_9 
REMARK       I    between atoms: N_9  and  C_10 
REMARK    2  A    between atoms: C_10  and  C_11 
REMARK    3  A    between atoms: C_11  and  N_12 
REMARK    4  A    between atoms: N_12  and  C_15 
REMARK    5  A    between atoms: C_15  and  C_16 
REMARK    6  A    between atoms: C_16  and  C_17 
ROOT
HETATM    1  N   UNL     1      43.002 -14.025   3.841  1.00  0.00    -0.062 N 
HETATM    2  H   UNL     1      43.595 -13.985   2.997  1.00  0.00     0.278 HD
HETATM    3  H   UNL     1      43.639 -13.702   4.590  1.00  0.00     0.278 HD
ENDROOT
BRANCH   1   4
HETATM    4  C   UNL     1      41.931 -12.951   3.768  1.00  0.00     0.335 C 
BRANCH   4   5
HETATM    5  C   UNL     1      42.587 -11.629   3.404  1.00  0.00     0.248 C 
HETATM    6  N   UNL     1      43.079 -10.771   4.329  1.00  0.00    -0.322 N 
HETATM    7  H   UNL     1      43.312  -9.863   3.936  1.00  0.00     0.169 HD
HETATM    8  O   UNL     1      42.595 -11.315   2.205  1.00  0.00    -0.271 OA
BRANCH   6   9
HETATM    9  C   UNL     1      43.231 -10.872   5.700  1.00  0.00     0.085 A 
HETATM   10  C   UNL     1      42.183 -10.554   6.548  1.00  0.00     0.052 A 
HETATM   11  C   UNL     1      40.797 -10.080   6.304  1.00  0.00     0.072 C 
HETATM   12  N   UNL     1      42.630 -10.794   7.816  1.00  0.00    -0.280 N 
HETATM   13  H   UNL     1      42.128 -10.690   8.694  1.00  0.00     0.189 HD
HETATM   14  N   UNL     1      43.897 -11.210   7.858  1.00  0.00    -0.177 NA
HETATM   15  C   UNL     1      44.304 -11.195   6.585  1.00  0.00     0.079 A 
HETATM   16  C   UNL     1      45.752 -11.416   6.350  1.00  0.00     0.075 C 
ENDBRANCH   6   9
ENDBRANCH   4   5
ENDBRANCH   1   4
BRANCH   1  17
HETATM   17  C   UNL     1      42.553 -15.444   4.096  1.00  0.00     0.194 C 
HETATM   18  C   UNL     1      41.198 -15.379   4.807  1.00  0.00     0.041 C 
BRANCH  17  19
HETATM   19  C   UNL     1      42.595 -16.286   2.758  1.00  0.00     0.007 C 
HETATM   20  C   UNL     1      41.181 -16.257   2.107  1.00  0.00     0.022 C 
HETATM   21  C   UNL     1      43.505 -15.587   1.712  1.00  0.00     0.022 C 
BRANCH  19  22
HETATM   22  C   UNL     1      43.068 -17.730   3.033  1.00  0.00    -0.048 A 
HETATM   23  C   UNL     1      43.727 -18.085   4.227  1.00  0.00     0.008 A 
HETATM   24  C   UNL     1      44.190 -19.386   4.447  1.00  0.00     0.001 A 
HETATM   25  C   UNL     1      44.003 -20.368   3.482  1.00  0.00     0.000 A 
HETATM   26  C   UNL     1      43.350 -20.050   2.298  1.00  0.00     0.001 A 
HETATM   27  C   UNL     1      42.891 -18.749   2.077  1.00  0.00     0.008 A 
ENDBRANCH  19  22
ENDBRANCH  17  19
ENDBRANCH   1  17
TORSDOF 6
ENDMDL
MODEL 5
REMARK VINA RESULT:      -7.7      2.727      4.058
REMARK  6 active torsions:
REMARK  status: ('A' for Active; 'I' for Inactive)
REMARK    1  A    between atoms: C_8  and  N_9 
REMARK       I    between atoms: N_9  and  C_10 
REMARK    2  A    between atoms: C_10  and  C_11 
REMARK    3  A    between atoms: C_11  and  N_12 
REMARK    4  A    between atoms: N_12  and  C_15 
REMARK    5  A    between atoms: C_15  and  C_16 
REMARK    6  A    between atoms: C_16  and  C_17 
ROOT
HETATM    1  N   UNL     1      43.138 -14.396   4.115  1.00  0.00    -0.062 N 
HETATM    2  H   UNL     1      42.696 -13.965   3.288  1.00  0.00     0.278 HD
HETATM    3  H   UNL     1      44.146 -14.374   3.880  1.00  0.00     0.278 HD
ENDROOT
BRANCH   1   4
HETATM    4  C   UNL     1      43.009 -13.466   5.309  1.00  0.00     0.335 C 
BRANCH   4   5
HETATM    5  C   UNL     1      42.907 -12.036   4.807  1.00  0.00     0.248 C 
HETATM    6  N   UNL     1      41.963 -11.630   3.924  1.00  0.00    -0.322 N 
HETATM    7  H   UNL     1      42.147 -10.701   3.554  1.00  0.00     0.169 HD
HETATM    8  O   UNL     1      43.783 -11.243   5.182  1.00  0.00    -0.271 OA
BRANCH   6   9
HETATM    9  C   UNL     1      40.868 -12.272   3.375  1.00  0.00     0.085 A 
HETATM   10  C   UNL     1      39.763 -12.566   4.156  1.00  0.00     0.052 A 
HETATM   11  C   UNL     1      39.449 -12.331   5.588  1.00  0.00     0.072 C 
HETATM   12  N   UNL     1      38.851 -13.151   3.324  1.00  0.00    -0.280 N 
HETATM   13  H   UNL     1      37.916 -13.484   3.545  1.00  0.00     0.189 HD
HETATM   14  N   UNL     1      39.293 -13.293   2.073  1.00  0.00    -0.177 NA
HETATM   15  C   UNL     1      40.547 -12.828   2.100  1.00  0.00     0.079 A 
HETATM   16  C   UNL     1      41.362 -13.053   0.881  1.00  0.00     0.075 C 
ENDBRANCH   6   9
ENDBRANCH   4   5
ENDBRANCH   1   4
BRANCH   1  17
HETATM   17  C   UNL     1      42.659 -15.818   4.280  1.00  0.00     0.194 C 
HETATM   18  C   UNL     1      41.311 -15.770   5.006  1.00  0.00     0.041 C 
BRANCH  17  19
HETATM   19  C   UNL     1      42.671 -16.571   2.890  1.00  0.00     0.007 C 
HETATM   20  C   UNL     1      41.241 -16.508   2.276  1.00  0.00     0.022 C 
HETATM   21  C   UNL     1      43.552 -15.800   1.870  1.00  0.00     0.022 C 
BRANCH  19  22
HETATM   22  C   UNL     1      43.156 -18.028   3.059  1.00  0.00    -0.048 A 
HETATM   23  C   UNL     1      42.960 -19.001   2.059  1.00  0.00     0.008 A 
HETATM   24  C   UNL     1      43.365 -20.327   2.241  1.00  0.00     0.001 A 
HETATM   25  C   UNL     1      43.981 -20.715   3.425  1.00  0.00     0.000 A 
HETATM   26  C   UNL     1      44.195 -19.776   4.425  1.00  0.00     0.001 A 
HETATM   27  C   UNL     1      43.787 -18.451   4.245  1.00  0.00     0.008 A 
ENDBRANCH  19  22
ENDBRANCH  17  19
ENDBRANCH   1  17
TORSDOF 6
ENDMDL
MODEL 6
REMARK VINA RESULT:      -7.7      2.590      3.850
REMARK  6 active torsions:
REMARK  status: ('A' for Active; 'I' for Inactive)
REMARK    1  A    between atoms: C_8  and  N_9 
REMARK       I    between atoms: N_9  and  C_10 
REMARK    2  A    between atoms: C_10  and  C_11 
REMARK    3  A    between atoms: C_11  and  N_12 
REMARK    4  A    between atoms: N_12  and  C_15 
REMARK    5  A    between atoms: C_15  and  C_16 
REMARK    6  A    between atoms: C_16  and  C_17 
ROOT
HETATM    1  N   UNL     1      41.714 -13.463   6.398  1.00  0.00    -0.062 N 
HETATM    2  H   UNL     1      41.971 -13.021   7.294  1.00  0.00     0.278 HD
HETATM    3  H   UNL     1      40.885 -14.031   6.646  1.00  0.00     0.278 HD
ENDROOT
BRANCH   1   4
HETATM    4  C   UNL     1      41.178 -12.412   5.441  1.00  0.00     0.335 C 
BRANCH   4   5
HETATM    5  C   UNL     1      39.748 -12.770   5.072  1.00  0.00     0.248 C 
HETATM    6  N   UNL     1      39.351 -13.002   3.798  1.00  0.00    -0.322 N 
HETATM    7  H   UNL     1      38.340 -13.044   3.705  1.00  0.00     0.169 HD
HETATM    8  O   UNL     1      38.913 -12.771   5.989  1.00  0.00    -0.271 OA
BRANCH   6   9
HETATM    9  C   UNL     1      40.053 -13.099   2.610  1.00  0.00     0.085 A 
HETATM   10  C   UNL     1      40.174 -14.317   1.963  1.00  0.00     0.052 A 
HETATM   11  C   UNL     1      39.680 -15.681   2.281  1.00  0.00     0.072 C 
HETATM   12  N   UNL     1      40.875 -14.074   0.817  1.00  0.00    -0.280 N 
HETATM   13  H   UNL     1      41.139 -14.730   0.086  1.00  0.00     0.189 HD
HETATM   14  N   UNL     1      41.249 -12.800   0.688  1.00  0.00    -0.177 NA
HETATM   15  C   UNL     1      40.820 -12.203   1.805  1.00  0.00     0.079 A 
HETATM   16  C   UNL     1      41.279 -10.811   2.030  1.00  0.00     0.075 C 
ENDBRANCH   6   9
ENDBRANCH   4   5
ENDBRANCH   1   4
BRANCH   1  17
HETATM   17  C   UNL     1      42.838 -14.346   5.910  1.00  0.00     0.194 C 
HETATM   18  C   UNL     1      44.138 -13.820   6.526  1.00  0.00     0.041 C 
BRANCH  17  19
HETATM   19  C   UNL     1      42.506 -15.867   6.185  1.00  0.00     0.007 C 
HETATM   20  C   UNL     1      43.082 -16.259   7.578  1.00  0.00     0.022 C 
HETATM   21  C   UNL     1      40.974 -16.061   6.344  1.00  0.00     0.022 C 
BRANCH  19  22
HETATM   22  C   UNL     1      43.069 -16.763   5.060  1.00  0.00    -0.048 A 
HETATM   23  C   UNL     1      42.824 -16.495   3.699  1.00  0.00     0.008 A 
HETATM   24  C   UNL     1      43.302 -17.338   2.691  1.00  0.00     0.001 A 
HETATM   25  C   UNL     1      44.042 -18.469   3.016  1.00  0.00     0.000 A 
HETATM   26  C   UNL     1      44.306 -18.755   4.349  1.00  0.00     0.001 A 
HETATM   27  C   UNL     1      43.825 -17.914   5.357  1.00  0.00     0.008 A 
ENDBRANCH  19  22
ENDBRANCH  17  19
ENDBRANCH   1  17
TORSDOF 6
ENDMDL
MODEL 7
REMARK VINA RESULT:      -7.6      1.425      2.225
REMARK  6 active torsions:
REMARK  status: ('A' for Active; 'I' for Inactive)
REMARK    1  A    between atoms: C_8  and  N_9 
REMARK       I    between atoms: N_9  and  C_10 
REMARK    2  A    between atoms: C_10  and  C_11 
REMARK    3  A    between atoms: C_11  and  N_12 
REMARK    4  A    between atoms: N_12  and  C_15 
REMARK    5  A    between atoms: C_15  and  C_16 
REMARK    6  A    between atoms: C_16  and  C_17 
ROOT
HETATM    1  N   UNL     1      41.620 -13.927   0.842  1.00  0.00    -0.062 N 
HETATM    2  H   UNL     1      40.858 -14.584   0.613  1.00  0.00     0.278 HD
HETATM    3  H   UNL     1      42.130 -13.838  -0.054  1.00  0.00     0.278 HD
ENDROOT
BRANCH   1   4
HETATM    4  C   UNL     1      41.049 -12.542   1.089  1.00  0.00     0.335 C 
BRANCH   4   5
HETATM    5  C   UNL     1      39.545 -12.660   1.277  1.00  0.00     0.248 C 
HETATM    6  N   UNL     1      38.657 -12.430   0.281  1.00  0.00    -0.322 N 
HETATM    7  H   UNL     1      37.700 -12.370   0.616  1.00  0.00     0.169 HD
HETATM    8  O   UNL     1      39.139 -12.907   2.422  1.00  0.00    -0.271 OA
BRANCH   6   9
HETATM    9  C   UNL     1      38.822 -12.176  -1.069  1.00  0.00     0.085 A 
HETATM   10  C   UNL     1      38.993 -13.218  -1.964  1.00  0.00     0.052 A 
HETATM   11  C   UNL     1      39.051 -14.693  -1.796  1.00  0.00     0.072 C 
HETATM   12  N   UNL     1      39.084 -12.649  -3.202  1.00  0.00    -0.280 N 
HETATM   13  H   UNL     1      39.196 -13.108  -4.103  1.00  0.00     0.189 HD
HETATM   14  N   UNL     1      39.020 -11.317  -3.175  1.00  0.00    -0.177 NA
HETATM   15  C   UNL     1      38.932 -11.005  -1.878  1.00  0.00     0.079 A 
HETATM   16  C   UNL     1      39.054  -9.567  -1.534  1.00  0.00     0.075 C 
ENDBRANCH   6   9
ENDBRANCH   4   5
ENDBRANCH   1   4
BRANCH   1  17
HETATM   17  C   UNL     1      42.513 -14.516   1.909  1.00  0.00     0.194 C 
HETATM   18  C   UNL     1      43.082 -13.354   2.728  1.00  0.00     0.041 C 
BRANCH  17  19
HETATM   19  C   UNL     1      41.739 -15.626   2.726  1.00  0.00     0.007 C 
HETATM   20  C   UNL     1      41.103 -14.966   3.985  1.00  0.00     0.022 C 
HETATM   21  C   UNL     1      40.518 -16.138   1.914  1.00  0.00     0.022 C 
BRANCH  19  22
HETATM   22  C   UNL     1      42.684 -16.788   3.105  1.00  0.00    -0.048 A 
HETATM   23  C   UNL     1      42.841 -17.920   2.282  1.00  0.00     0.008 A 
HETATM   24  C   UNL     1      43.667 -18.985   2.656  1.00  0.00     0.001 A 
HETATM   25  C   UNL     1      44.360 -18.945   3.860  1.00  0.00     0.000 A 
HETATM   26  C   UNL     1      44.231 -17.838   4.688  1.00  0.00     0.001 A 
HETATM   27  C   UNL     1      43.403 -16.774   4.316  1.00  0.00     0.008 A 
ENDBRANCH  19  22
ENDBRANCH  17  19
ENDBRANCH   1  17
TORSDOF 6
ENDMDL
MODEL 8
REMARK VINA RESULT:      -7.6      1.488      2.821
REMARK  6 active torsions:
REMARK  status: ('A' for Active; 'I' for Inactive)
REMARK    1  A    between atoms: C_8  and  N_9 
REMARK       I    between atoms: N_9  and  C_10 
REMARK    2  A    between atoms: C_10  and  C_11 
REMARK    3  A    between atoms: C_11  and  N_12 
REMARK    4  A    between atoms: N_12  and  C_15 
REMARK    5  A    between atoms: C_15  and  C_16 
REMARK    6  A    between atoms: C_16  and  C_17 
ROOT
HETATM    1  N   UNL     1      41.572 -14.074   1.091  1.00  0.00    -0.062 N 
HETATM    2  H   UNL     1      41.124 -14.313   0.192  1.00  0.00     0.278 HD
HETATM    3  H   UNL     1      42.581 -14.100   0.864  1.00  0.00     0.278 HD
ENDROOT
BRANCH   1   4
HETATM    4  C   UNL     1      41.299 -12.619   1.429  1.00  0.00     0.335 C 
BRANCH   4   5
HETATM    5  C   UNL     1      39.872 -12.283   1.031  1.00  0.00     0.248 C 
HETATM    6  N   UNL     1      39.447 -12.279  -0.255  1.00  0.00    -0.322 N 
HETATM    7  H   UNL     1      38.529 -11.856  -0.363  1.00  0.00     0.169 HD
HETATM    8  O   UNL     1      39.102 -11.929   1.936  1.00  0.00    -0.271 OA
BRANCH   6   9
HETATM    9  C   UNL     1      40.062 -12.652  -1.437  1.00  0.00     0.085 A 
HETATM   10  C   UNL     1      40.990 -11.819  -2.039  1.00  0.00     0.052 A 
HETATM   11  C   UNL     1      41.531 -10.484  -1.677  1.00  0.00     0.072 C 
HETATM   12  N   UNL     1      41.438 -12.481  -3.147  1.00  0.00    -0.280 N 
HETATM   13  H   UNL     1      42.136 -12.183  -3.823  1.00  0.00     0.189 HD
HETATM   14  N   UNL     1      40.845 -13.663  -3.329  1.00  0.00    -0.177 NA
HETATM   15  C   UNL     1      39.952 -13.754  -2.338  1.00  0.00     0.079 A 
HETATM   16  C   UNL     1      38.997 -14.886  -2.410  1.00  0.00     0.075 C 
ENDBRANCH   6   9
ENDBRANCH   4   5
ENDBRANCH   1   4
BRANCH   1  17
HETATM   17  C   UNL     1      41.231 -15.111   2.134  1.00  0.00     0.194 C 
HETATM   18  C   UNL     1      40.040 -15.919   1.612  1.00  0.00     0.041 C 
BRANCH  17  19
HETATM   19  C   UNL     1      42.516 -15.945   2.524  1.00  0.00     0.007 C 
HETATM   20  C   UNL     1      42.203 -17.460   2.342  1.00  0.00     0.022 C 
HETATM   21  C   UNL     1      43.661 -15.674   1.510  1.00  0.00     0.022 C 
BRANCH  19  22
HETATM   22  C   UNL     1      42.962 -15.624   3.968  1.00  0.00    -0.048 A 
HETATM   23  C   UNL     1      42.752 -14.358   4.549  1.00  0.00     0.008 A 
HETATM   24  C   UNL     1      43.199 -14.065   5.842  1.00  0.00     0.001 A 
HETATM   25  C   UNL     1      43.862 -15.030   6.590  1.00  0.00     0.000 A 
HETATM   26  C   UNL     1      44.075 -16.290   6.046  1.00  0.00     0.001 A 
HETATM   27  C   UNL     1      43.633 -16.582   4.753  1.00  0.00     0.008 A 
ENDBRANCH  19  22
ENDBRANCH  17  19
ENDBRANCH   1  17
TORSDOF 6
ENDMDL
MODEL 9
REMARK VINA RESULT:      -7.5      1.816      2.766
REMARK  6 active torsions:
REMARK  status: ('A' for Active; 'I' for Inactive)
REMARK    1  A    between atoms: C_8  and  N_9 
REMARK       I    between atoms: N_9  and  C_10 
REMARK    2  A    between atoms: C_10  and  C_11 
REMARK    3  A    between atoms: C_11  and  N_12 
REMARK    4  A    between atoms: N_12  and  C_15 
REMARK    5  A    between atoms: C_15  and  C_16 
REMARK    6  A    between atoms: C_16  and  C_17 
ROOT
HETATM    1  N   UNL     1      41.454 -13.668   4.934  1.00  0.00    -0.062 N 
HETATM    2  H   UNL     1      41.418 -12.857   5.572  1.00  0.00     0.278 HD
HETATM    3  H   UNL     1      40.578 -14.174   5.150  1.00  0.00     0.278 HD
ENDROOT
BRANCH   1   4
HETATM    4  C   UNL     1      41.275 -13.201   3.500  1.00  0.00     0.335 C 
BRANCH   4   5
HETATM    5  C   UNL     1      39.800 -12.933   3.253  1.00  0.00     0.248 C 
HETATM    6  N   UNL     1      39.269 -12.815   2.013  1.00  0.00    -0.322 N 
HETATM    7  H   UNL     1      38.318 -12.455   2.027  1.00  0.00     0.169 HD
HETATM    8  O   UNL     1      39.086 -12.747   4.251  1.00  0.00    -0.271 OA
BRANCH   6   9
HETATM    9  C   UNL     1      39.806 -13.001   0.752  1.00  0.00     0.085 A 
HETATM   10  C   UNL     1      40.139 -14.270   0.311  1.00  0.00     0.052 A 
HETATM   11  C   UNL     1      40.049 -15.612   0.941  1.00  0.00     0.072 C 
HETATM   12  N   UNL     1      40.596 -14.125  -0.967  1.00  0.00    -0.280 N 
HETATM   13  H   UNL     1      40.915 -14.845  -1.611  1.00  0.00     0.189 HD
HETATM   14  N   UNL     1      40.619 -12.855  -1.377  1.00  0.00    -0.177 NA
HETATM   15  C   UNL     1      40.209 -12.148  -0.319  1.00  0.00     0.079 A 
HETATM   16  C   UNL     1      40.332 -10.673  -0.422  1.00  0.00     0.075 C 
ENDBRANCH   6   9
ENDBRANCH   4   5
ENDBRANCH   1   4
BRANCH   1  17
HETATM   17  C   UNL     1      42.658 -14.524   5.246  1.00  0.00     0.194 C 
HETATM   18  C   UNL     1      43.475 -13.800   6.320  1.00  0.00     0.041 C 
BRANCH  17  19
HETATM   19  C   UNL     1      42.210 -16.000   5.595  1.00  0.00     0.007 C 
HETATM   20  C   UNL     1      42.556 -16.288   7.085  1.00  0.00     0.022 C 
HETATM   21  C   UNL     1      40.663 -16.119   5.539  1.00  0.00     0.022 C 
BRANCH  19  22
HETATM   22  C   UNL     1      42.883 -17.016   4.645  1.00  0.00    -0.048 A 
HETATM   23  C   UNL     1      42.574 -17.072   3.272  1.00  0.00     0.008 A 
HETATM   24  C   UNL     1      43.157 -18.025   2.430  1.00  0.00     0.001 A 
HETATM   25  C   UNL     1      44.067 -18.944   2.937  1.00  0.00     0.000 A 
HETATM   26  C   UNL     1      44.397 -18.908   4.286  1.00  0.00     0.001 A 
HETATM   27  C   UNL     1      43.812 -17.958   5.128  1.00  0.00     0.008 A 
ENDBRANCH  19  22
ENDBRANCH  17  19
ENDBRANCH   1  17
TORSDOF 6
ENDMDL
MODEL 10
REMARK VINA RESULT:      -7.1      4.623      6.844
REMARK  6 active torsions:
REMARK  status: ('A' for Active; 'I' for Inactive)
REMARK    1  A    between atoms: C_8  and  N_9 
REMARK       I    between atoms: N_9  and  C_10 
REMARK    2  A    between atoms: C_10  and  C_11 
REMARK    3  A    between atoms: C_11  and  N_12 
REMARK    4  A    between atoms: N_12  and  C_15 
REMARK    5  A    between atoms: C_15  and  C_16 
REMARK    6  A    between atoms: C_16  and  C_17 
ROOT
HETATM    1  N   UNL     1      41.384 -13.240   4.388  1.00  0.00    -0.062 N 
HETATM    2  H   UNL     1      40.464 -13.576   4.063  1.00  0.00     0.278 HD
HETATM    3  H   UNL     1      41.717 -12.665   3.595  1.00  0.00     0.278 HD
ENDROOT
BRANCH   1   4
HETATM    4  C   UNL     1      41.196 -12.247   5.521  1.00  0.00     0.335 C 
BRANCH   4   5
HETATM    5  C   UNL     1      41.746 -10.899   5.086  1.00  0.00     0.248 C 
HETATM    6  N   UNL     1      42.514 -10.122   5.888  1.00  0.00    -0.322 N 
HETATM    7  H   UNL     1      42.640  -9.184   5.518  1.00  0.00     0.169 HD
HETATM    8  O   UNL     1      41.401 -10.483   3.970  1.00  0.00    -0.271 OA
BRANCH   6   9
HETATM    9  C   UNL     1      43.068 -10.339   7.136  1.00  0.00     0.085 A 
HETATM   10  C   UNL     1      42.456  -9.836   8.272  1.00  0.00     0.052 A 
HETATM   11  C   UNL     1      41.224  -9.035   8.484  1.00  0.00     0.072 C 
HETATM   12  N   UNL     1      43.213 -10.252   9.331  1.00  0.00    -0.280 N 
HETATM   13  H   UNL     1      43.060 -10.086  10.322  1.00  0.00     0.189 HD
HETATM   14  N   UNL     1      44.287 -10.956   8.966  1.00  0.00    -0.177 NA
HETATM   15  C   UNL     1      44.255 -10.959   7.630  1.00  0.00     0.079 A 
HETATM   16  C   UNL     1      45.452 -11.501   6.941  1.00  0.00     0.075 C 
ENDBRANCH   6   9
ENDBRANCH   4   5
ENDBRANCH   1   4
BRANCH   1  17
HETATM   17  C   UNL     1      42.312 -14.407   4.627  1.00  0.00     0.194 C 
HETATM   18  C   UNL     1      43.021 -14.167   5.963  1.00  0.00     0.041 C 
BRANCH  17  19
HETATM   19  C   UNL     1      41.527 -15.774   4.495  1.00  0.00     0.007 C 
HETATM   20  C   UNL     1      40.882 -16.113   5.870  1.00  0.00     0.022 C 
HETATM   21  C   UNL     1      40.312 -15.604   3.542  1.00  0.00     0.022 C 
BRANCH  19  22
HETATM   22  C   UNL     1      42.465 -16.900   4.009  1.00  0.00    -0.048 A 
HETATM   23  C   UNL     1      43.421 -17.493   4.857  1.00  0.00     0.008 A 
HETATM   24  C   UNL     1      44.294 -18.483   4.394  1.00  0.00     0.001 A 
HETATM   25  C   UNL     1      44.233 -18.909   3.073  1.00  0.00     0.000 A 
HETATM   26  C   UNL     1      43.296 -18.348   2.215  1.00  0.00     0.001 A 
HETATM   27  C   UNL     1      42.425 -17.357   2.677  1.00  0.00     0.008 A 
ENDBRANCH  19  22
ENDBRANCH  17  19
ENDBRANCH   1  17
TORSDOF 6
ENDMDL
