MODEL 1
REMARK VINA RESULT:      -8.3      0.000      0.000
REMARK  3 active torsions:
REMARK  status: ('A' for Active; 'I' for Inactive)
REMARK    1  A    between atoms: C_6  and  N_7 
REMARK       I    between atoms: N_7  and  C_8 
REMARK    2  A    between atoms: C_8  and  C_9 
REMARK    3  A    between atoms: C_9  and  C_10 
ROOT
HETATM    1  C   UNL     1      40.608 -13.769   1.310  1.00  0.00     0.286 C 
HETATM    2  N   UNL     1      41.008 -13.829  -0.162  1.00  0.00    -0.056 N 
HETATM    3  H   UNL     1      41.591 -12.985  -0.352  1.00  0.00     0.278 HD
HETATM    4  H   UNL     1      41.636 -14.625  -0.327  1.00  0.00     0.278 HD
HETATM    5  C   UNL     1      39.827 -13.868  -1.099  1.00  0.00     0.209 C 
HETATM    6  C   UNL     1      38.918 -12.642  -0.826  1.00  0.00     0.115 C 
HETATM    7  N   UNL     1      38.580 -12.517   0.591  1.00  0.00    -0.353 N 
HETATM    8  C   UNL     1      39.456 -12.787   1.610  1.00  0.00     0.249 C 
HETATM    9  O   UNL     1      39.265 -12.330   2.732  1.00  0.00    -0.271 OA
HETATM   10  C   UNL     1      40.328 -13.915  -2.542  1.00  0.00     0.035 C 
HETATM   11  C   UNL     1      40.930 -12.595  -3.018  1.00  0.00     0.002 C 
HETATM   12  C   UNL     1      39.975 -11.429  -2.788  1.00  0.00     0.002 C 
HETATM   13  C   UNL     1      39.538 -11.331  -1.331  1.00  0.00     0.027 C 
HETATM   14  H   UNL     1      37.840 -11.866   0.850  1.00  0.00     0.163 HD
ENDROOT
BRANCH   1  15
HETATM   15  C   UNL     1      41.816 -13.440   2.196  1.00  0.00     0.146 C 
BRANCH  15  16
HETATM   16  C   UNL     1      42.705 -14.660   2.268  1.00  0.00     0.224 C 
HETATM   17  N   UNL     1      42.283 -15.640   3.130  1.00  0.00    -0.327 N 
HETATM   18  H   UNL     1      41.497 -15.434   3.740  1.00  0.00     0.169 HD
HETATM   19  O   UNL     1      43.739 -14.647   1.597  1.00  0.00    -0.273 OA
BRANCH  17  20
HETATM   20  C   UNL     1      42.915 -16.881   3.372  1.00  0.00     0.036 A 
HETATM   21  C   UNL     1      42.934 -17.936   2.456  1.00  0.00     0.053 A 
HETATM   22  C   UNL     1      43.584 -19.131   2.776  1.00  0.00     0.036 A 
HETATM   23  C   UNL     1      44.216 -19.290   4.005  1.00  0.00     0.024 A 
HETATM   24 CL   UNL     1      43.597 -20.421   1.636  1.00  0.00    -0.084 Cl
HETATM   25  C   UNL     1      44.195 -18.247   4.927  1.00  0.00     0.004 A 
HETATM   26  C   UNL     1      43.543 -17.051   4.614  1.00  0.00     0.029 A 
ENDBRANCH  17  20
ENDBRANCH  15  16
ENDBRANCH   1  15
TORSDOF 3
ENDMDL
MODEL 2
REMARK VINA RESULT:      -8.3      2.768      5.020
REMARK  3 active torsions:
REMARK  status: ('A' for Active; 'I' for Inactive)
REMARK    1  A    between atoms: C_6  and  N_7 
REMARK       I    between atoms: N_7  and  C_8 
REMARK    2  A    between atoms: C_8  and  C_9 
REMARK    3  A    between atoms: C_9  and  C_10 
ROOT
HETATM    1  C   UNL     1      41.388 -12.863   3.226  1.00  0.00     0.286 C 
HETATM    2  N   UNL     1      42.493 -13.132   4.244  1.00  0.00    -0.056 N 
HETATM    3  H   UNL     1      42.716 -14.150   4.188  1.00  0.00     0.278 HD
HETATM    4  H   UNL     1      43.359 -12.657   3.961  1.00  0.00     0.278 HD
HETATM    5  C   UNL     1      42.108 -12.761   5.654  1.00  0.00     0.209 C 
HETATM    6  C   UNL     1      40.809 -13.512   6.043  1.00  0.00     0.115 C 
HETATM    7  N   UNL     1      39.755 -13.333   5.045  1.00  0.00    -0.353 N 
HETATM    8  C   UNL     1      39.983 -13.295   3.694  1.00  0.00     0.249 C 
HETATM    9  O   UNL     1      39.070 -13.512   2.904  1.00  0.00    -0.271 OA
HETATM   10  C   UNL     1      43.270 -13.076   6.595  1.00  0.00     0.035 C 
HETATM   11  C   UNL     1      43.478 -14.572   6.822  1.00  0.00     0.002 C 
HETATM   12  C   UNL     1      42.190 -15.256   7.264  1.00  0.00     0.002 C 
HETATM   13  C   UNL     1      41.049 -15.010   6.282  1.00  0.00     0.027 C 
HETATM   14  H   UNL     1      38.809 -13.622   5.293  1.00  0.00     0.163 HD
ENDROOT
BRANCH   1  15
HETATM   15  C   UNL     1      41.710 -13.517   1.877  1.00  0.00     0.146 C 
BRANCH  15  16
HETATM   16  C   UNL     1      42.679 -14.653   2.114  1.00  0.00     0.224 C 
HETATM   17  N   UNL     1      42.140 -15.766   2.707  1.00  0.00    -0.327 N 
HETATM   18  H   UNL     1      41.186 -15.709   3.054  1.00  0.00     0.169 HD
HETATM   19  O   UNL     1      43.858 -14.465   1.808  1.00  0.00    -0.273 OA
BRANCH  17  20
HETATM   20  C   UNL     1      42.817 -16.967   3.022  1.00  0.00     0.036 A 
HETATM   21  C   UNL     1      42.840 -18.089   2.189  1.00  0.00     0.053 A 
HETATM   22  C   UNL     1      43.535 -19.237   2.578  1.00  0.00     0.036 A 
HETATM   23  C   UNL     1      44.210 -19.282   3.795  1.00  0.00     0.024 A 
HETATM   24 CL   UNL     1      43.553 -20.611   1.542  1.00  0.00    -0.084 Cl
HETATM   25  C   UNL     1      44.186 -18.172   4.634  1.00  0.00     0.004 A 
HETATM   26  C   UNL     1      43.488 -17.022   4.252  1.00  0.00     0.029 A 
ENDBRANCH  17  20
ENDBRANCH  15  16
ENDBRANCH   1  15
TORSDOF 3
ENDMDL
MODEL 3
REMARK VINA RESULT:      -7.9      3.006      3.951
REMARK  3 active torsions:
REMARK  status: ('A' for Active; 'I' for Inactive)
REMARK    1  A    between atoms: C_6  and  N_7 
REMARK       I    between atoms: N_7  and  C_8 
REMARK    2  A    between atoms: C_8  and  C_9 
REMARK    3  A    between atoms: C_9  and  C_10 
ROOT
HETATM    1  C   UNL     1      42.120 -13.122   5.049  1.00  0.00     0.286 C 
HETATM    2  N   UNL     1      41.079 -14.006   4.367  1.00  0.00    -0.056 N 
HETATM    3  H   UNL     1      41.575 -14.863   4.040  1.00  0.00     0.278 HD
HETATM    4  H   UNL     1      40.395 -14.344   5.056  1.00  0.00     0.278 HD
HETATM    5  C   UNL     1      40.390 -13.330   3.209  1.00  0.00     0.209 C 
HETATM    6  C   UNL     1      41.456 -12.852   2.189  1.00  0.00     0.115 C 
HETATM    7  N   UNL     1      42.509 -12.064   2.829  1.00  0.00    -0.353 N 
HETATM    8  C   UNL     1      43.022 -12.343   4.069  1.00  0.00     0.249 C 
HETATM    9  O   UNL     1      44.119 -11.905   4.401  1.00  0.00    -0.271 OA
HETATM   10  C   UNL     1      39.379 -14.294   2.589  1.00  0.00     0.035 C 
HETATM   11  C   UNL     1      40.029 -15.435   1.809  1.00  0.00     0.002 C 
HETATM   12  C   UNL     1      41.021 -14.914   0.776  1.00  0.00     0.002 C 
HETATM   13  C   UNL     1      42.081 -14.017   1.407  1.00  0.00     0.027 C 
HETATM   14  H   UNL     1      43.149 -11.545   2.229  1.00  0.00     0.163 HD
ENDROOT
BRANCH   1  15
HETATM   15  C   UNL     1      42.986 -13.937   6.016  1.00  0.00     0.146 C 
BRANCH  15  16
HETATM   16  C   UNL     1      42.817 -15.404   5.691  1.00  0.00     0.224 C 
HETATM   17  N   UNL     1      43.558 -15.855   4.628  1.00  0.00    -0.327 N 
HETATM   18  H   UNL     1      44.057 -15.170   4.067  1.00  0.00     0.169 HD
HETATM   19  O   UNL     1      42.006 -16.043   6.363  1.00  0.00    -0.273 OA
BRANCH  17  20
HETATM   20  C   UNL     1      43.600 -17.177   4.129  1.00  0.00     0.036 A 
HETATM   21  C   UNL     1      44.073 -18.270   4.859  1.00  0.00     0.053 A 
HETATM   22  C   UNL     1      44.079 -19.545   4.288  1.00  0.00     0.036 A 
HETATM   23  C   UNL     1      43.618 -19.746   2.990  1.00  0.00     0.024 A 
HETATM   24 CL   UNL     1      44.667 -20.881   5.201  1.00  0.00    -0.084 Cl
HETATM   25  C   UNL     1      43.152 -18.662   2.253  1.00  0.00     0.004 A 
HETATM   26  C   UNL     1      43.148 -17.383   2.818  1.00  0.00     0.029 A 
ENDBRANCH  17  20
ENDBRANCH  15  16
ENDBRANCH   1  15
TORSDOF 3
ENDMDL
MODEL 4
REMARK VINA RESULT:      -7.7      4.953      6.749
REMARK  3 active torsions:
REMARK  status: ('A' for Active; 'I' for Inactive)
REMARK    1  A    between atoms: C_6  and  N_7 
REMARK       I    between atoms: N_7  and  C_8 
REMARK    2  A    between atoms: C_8  and  C_9 
REMARK    3  A    between atoms: C_9  and  C_10 
ROOT
HETATM    1  C   UNL     1      43.309 -13.466   6.365  1.00  0.00     0.286 C 
HETATM    2  N   UNL     1      44.502 -12.744   6.987  1.00  0.00    -0.056 N 
HETATM    3  H   UNL     1      44.279 -12.602   7.996  1.00  0.00     0.278 HD
HETATM    4  H   UNL     1      45.328 -13.354   6.982  1.00  0.00     0.278 HD
HETATM    5  C   UNL     1      44.805 -11.420   6.331  1.00  0.00     0.209 C 
HETATM    6  C   UNL     1      43.538 -10.527   6.375  1.00  0.00     0.115 C 
HETATM    7  N   UNL     1      42.361 -11.221   5.854  1.00  0.00    -0.353 N 
HETATM    8  C   UNL     1      42.103 -12.550   6.070  1.00  0.00     0.249 C 
HETATM    9  O   UNL     1      40.966 -12.991   5.941  1.00  0.00    -0.271 OA
HETATM   10  C   UNL     1      46.001 -10.773   7.027  1.00  0.00     0.035 C 
HETATM   11  C   UNL     1      45.677 -10.245   8.423  1.00  0.00     0.002 C 
HETATM   12  C   UNL     1      44.465  -9.322   8.406  1.00  0.00     0.002 C 
HETATM   13  C   UNL     1      43.246  -9.996   7.786  1.00  0.00     0.027 C 
HETATM   14  H   UNL     1      41.527 -10.669   5.661  1.00  0.00     0.163 HD
ENDROOT
BRANCH   1  15
HETATM   15  C   UNL     1      42.864 -14.646   7.238  1.00  0.00     0.146 C 
BRANCH  15  16
HETATM   16  C   UNL     1      42.583 -15.828   6.338  1.00  0.00     0.224 C 
HETATM   17  N   UNL     1      43.547 -16.088   5.397  1.00  0.00    -0.327 N 
HETATM   18  H   UNL     1      44.300 -15.415   5.286  1.00  0.00     0.169 HD
HETATM   19  O   UNL     1      41.508 -16.412   6.491  1.00  0.00    -0.273 OA
BRANCH  17  20
HETATM   20  C   UNL     1      43.540 -17.138   4.450  1.00  0.00     0.036 A 
HETATM   21  C   UNL     1      43.835 -18.467   4.760  1.00  0.00     0.053 A 
HETATM   22  C   UNL     1      43.806 -19.444   3.761  1.00  0.00     0.036 A 
HETATM   23  C   UNL     1      43.485 -19.109   2.448  1.00  0.00     0.024 A 
HETATM   24 CL   UNL     1      44.173 -21.078   4.159  1.00  0.00    -0.084 Cl
HETATM   25  C   UNL     1      43.197 -17.785   2.129  1.00  0.00     0.004 A 
HETATM   26  C   UNL     1      43.230 -16.804   3.124  1.00  0.00     0.029 A 
ENDBRANCH  17  20
ENDBRANCH  15  16
ENDBRANCH   1  15
TORSDOF 3
ENDMDL
MODEL 5
REMARK VINA RESULT:      -7.6      2.870      7.863
REMARK  3 active torsions:
REMARK  status: ('A' for Active; 'I' for Inactive)
REMARK    1  A    between atoms: C_6  and  N_7 
REMARK       I    between atoms: N_7  and  C_8 
REMARK    2  A    between atoms: C_8  and  C_9 
REMARK    3  A    between atoms: C_9  and  C_10 
ROOT
HETATM    1  C   UNL     1      41.929 -16.457   3.057  1.00  0.00     0.286 C 
HETATM    2  N   UNL     1      41.735 -15.749   4.395  1.00  0.00    -0.056 N 
HETATM    3  H   UNL     1      42.502 -15.047   4.482  1.00  0.00     0.278 HD
HETATM    4  H   UNL     1      40.870 -15.194   4.381  1.00  0.00     0.278 HD
HETATM    5  C   UNL     1      41.755 -16.688   5.575  1.00  0.00     0.209 C 
HETATM    6  C   UNL     1      43.081 -17.491   5.566  1.00  0.00     0.115 C 
HETATM    7  N   UNL     1      43.330 -18.120   4.269  1.00  0.00    -0.353 N 
HETATM    8  C   UNL     1      43.039 -17.529   3.067  1.00  0.00     0.249 C 
HETATM    9  O   UNL     1      43.584 -17.912   2.038  1.00  0.00    -0.271 OA
HETATM   10  C   UNL     1      41.565 -15.888   6.862  1.00  0.00     0.035 C 
HETATM   11  C   UNL     1      42.785 -15.050   7.241  1.00  0.00     0.002 C 
HETATM   12  C   UNL     1      44.053 -15.895   7.281  1.00  0.00     0.002 C 
HETATM   13  C   UNL     1      44.288 -16.631   5.967  1.00  0.00     0.027 C 
HETATM   14  H   UNL     1      44.068 -18.821   4.212  1.00  0.00     0.163 HD
ENDROOT
BRANCH   1  15
HETATM   15  C   UNL     1      42.191 -15.447   1.933  1.00  0.00     0.146 C 
BRANCH  15  16
HETATM   16  C   UNL     1      40.883 -15.160   1.232  1.00  0.00     0.224 C 
HETATM   17  N   UNL     1      40.966 -14.286   0.177  1.00  0.00    -0.327 N 
HETATM   18  H   UNL     1      41.848 -13.807   0.022  1.00  0.00     0.169 HD
HETATM   19  O   UNL     1      39.867 -15.684   1.692  1.00  0.00    -0.273 OA
BRANCH  17  20
HETATM   20  C   UNL     1      39.903 -13.864  -0.654  1.00  0.00     0.036 A 
HETATM   21  C   UNL     1      39.513 -14.531  -1.818  1.00  0.00     0.053 A 
HETATM   22  C   UNL     1      38.449 -14.044  -2.582  1.00  0.00     0.036 A 
HETATM   23  C   UNL     1      37.767 -12.892  -2.200  1.00  0.00     0.024 A 
HETATM   24 CL   UNL     1      37.982 -14.877  -4.014  1.00  0.00    -0.084 Cl
HETATM   25  C   UNL     1      38.154 -12.217  -1.046  1.00  0.00     0.004 A 
HETATM   26  C   UNL     1      39.220 -12.698  -0.280  1.00  0.00     0.029 A 
ENDBRANCH  17  20
ENDBRANCH  15  16
ENDBRANCH   1  15
TORSDOF 3
ENDMDL
MODEL 6
REMARK VINA RESULT:      -7.6      6.102      7.968
REMARK  3 active torsions:
REMARK  status: ('A' for Active; 'I' for Inactive)
REMARK    1  A    between atoms: C_6  and  N_7 
REMARK       I    between atoms: N_7  and  C_8 
REMARK    2  A    between atoms: C_8  and  C_9 
REMARK    3  A    between atoms: C_9  and  C_10 
ROOT
HETATM    1  C   UNL     1      41.622 -13.105   5.813  1.00  0.00     0.286 C 
HETATM    2  N   UNL     1      42.562 -13.921   4.930  1.00  0.00    -0.056 N 
HETATM    3  H   UNL     1      42.270 -13.756   3.942  1.00  0.00     0.278 HD
HETATM    4  H   UNL     1      43.517 -13.546   4.988  1.00  0.00     0.278 HD
HETATM    5  C   UNL     1      42.540 -15.396   5.240  1.00  0.00     0.209 C 
HETATM    6  C   UNL     1      41.086 -15.921   5.124  1.00  0.00     0.115 C 
HETATM    7  N   UNL     1      40.149 -15.110   5.902  1.00  0.00    -0.353 N 
HETATM    8  C   UNL     1      40.233 -13.747   6.015  1.00  0.00     0.249 C 
HETATM    9  O   UNL     1      39.254 -13.089   6.352  1.00  0.00    -0.271 OA
HETATM   10  C   UNL     1      43.501 -16.125   4.301  1.00  0.00     0.035 C 
HETATM   11  C   UNL     1      42.996 -16.206   2.862  1.00  0.00     0.002 C 
HETATM   12  C   UNL     1      41.589 -16.786   2.793  1.00  0.00     0.002 C 
HETATM   13  C   UNL     1      40.610 -16.009   3.667  1.00  0.00     0.027 C 
HETATM   14  H   UNL     1      39.209 -15.476   6.050  1.00  0.00     0.163 HD
ENDROOT
BRANCH   1  15
HETATM   15  C   UNL     1      41.461 -11.678   5.275  1.00  0.00     0.146 C 
BRANCH  15  16
HETATM   16  C   UNL     1      42.206 -10.733   6.190  1.00  0.00     0.224 C 
HETATM   17  N   UNL     1      43.009 -11.338   7.124  1.00  0.00    -0.327 N 
HETATM   18  H   UNL     1      42.954 -12.348   7.220  1.00  0.00     0.169 HD
HETATM   19  O   UNL     1      41.992  -9.527   6.056  1.00  0.00    -0.273 OA
BRANCH  17  20
HETATM   20  C   UNL     1      43.823 -10.692   8.083  1.00  0.00     0.036 A 
HETATM   21  C   UNL     1      43.360 -10.250   9.325  1.00  0.00     0.053 A 
HETATM   22  C   UNL     1      44.233  -9.619  10.215  1.00  0.00     0.036 A 
HETATM   23  C   UNL     1      45.569  -9.420   9.879  1.00  0.00     0.024 A 
HETATM   24 CL   UNL     1      43.647  -9.080  11.741  1.00  0.00    -0.084 Cl
HETATM   25  C   UNL     1      46.037  -9.850   8.641  1.00  0.00     0.004 A 
HETATM   26  C   UNL     1      45.166 -10.477   7.745  1.00  0.00     0.029 A 
ENDBRANCH  17  20
ENDBRANCH  15  16
ENDBRANCH   1  15
TORSDOF 3
ENDMDL
MODEL 7
REMARK VINA RESULT:      -7.4      5.020      6.437
REMARK  3 active torsions:
REMARK  status: ('A' for Active; 'I' for Inactive)
REMARK    1  A    between atoms: C_6  and  N_7 
REMARK       I    between atoms: N_7  and  C_8 
REMARK    2  A    between atoms: C_8  and  C_9 
REMARK    3  A    between atoms: C_9  and  C_10 
ROOT
HETATM    1  C   UNL     1      40.057 -13.451   4.389  1.00  0.00     0.286 C 
HETATM    2  N   UNL     1      40.523 -14.837   3.951  1.00  0.00    -0.056 N 
HETATM    3  H   UNL     1      41.465 -14.989   4.374  1.00  0.00     0.278 HD
HETATM    4  H   UNL     1      39.926 -15.561   4.370  1.00  0.00     0.278 HD
HETATM    5  C   UNL     1      40.594 -14.996   2.453  1.00  0.00     0.209 C 
HETATM    6  C   UNL     1      41.516 -13.896   1.866  1.00  0.00     0.115 C 
HETATM    7  N   UNL     1      41.139 -12.562   2.331  1.00  0.00    -0.353 N 
HETATM    8  C   UNL     1      40.704 -12.292   3.603  1.00  0.00     0.249 C 
HETATM    9  O   UNL     1      40.753 -11.150   4.047  1.00  0.00    -0.271 OA
HETATM   10  C   UNL     1      41.079 -16.406   2.116  1.00  0.00     0.035 C 
HETATM   11  C   UNL     1      42.559 -16.627   2.421  1.00  0.00     0.002 C 
HETATM   12  C   UNL     1      43.430 -15.559   1.771  1.00  0.00     0.002 C 
HETATM   13  C   UNL     1      43.000 -14.152   2.172  1.00  0.00     0.027 C 
HETATM   14  H   UNL     1      41.553 -11.757   1.861  1.00  0.00     0.163 HD
ENDROOT
BRANCH   1  15
HETATM   15  C   UNL     1      40.278 -13.246   5.893  1.00  0.00     0.146 C 
BRANCH  15  16
HETATM   16  C   UNL     1      41.762 -13.092   6.143  1.00  0.00     0.224 C 
HETATM   17  N   UNL     1      42.147 -11.871   6.633  1.00  0.00    -0.327 N 
HETATM   18  H   UNL     1      41.452 -11.130   6.674  1.00  0.00     0.169 HD
HETATM   19  O   UNL     1      42.488 -14.042   5.841  1.00  0.00    -0.273 OA
BRANCH  17  20
HETATM   20  C   UNL     1      43.462 -11.473   6.968  1.00  0.00     0.036 A 
HETATM   21  C   UNL     1      43.812 -10.894   8.190  1.00  0.00     0.053 A 
HETATM   22  C   UNL     1      45.138 -10.529   8.440  1.00  0.00     0.036 A 
HETATM   23  C   UNL     1      46.125 -10.734   7.480  1.00  0.00     0.024 A 
HETATM   24 CL   UNL     1      45.552  -9.815   9.950  1.00  0.00    -0.084 Cl
HETATM   25  C   UNL     1      45.783 -11.304   6.257  1.00  0.00     0.004 A 
HETATM   26  C   UNL     1      44.458 -11.666   6.000  1.00  0.00     0.029 A 
ENDBRANCH  17  20
ENDBRANCH  15  16
ENDBRANCH   1  15
TORSDOF 3
ENDMDL
MODEL 8
REMARK VINA RESULT:      -7.4      2.336      3.263
REMARK  3 active torsions:
REMARK  status: ('A' for Active; 'I' for Inactive)
REMARK    1  A    between atoms: C_6  and  N_7 
REMARK       I    between atoms: N_7  and  C_8 
REMARK    2  A    between atoms: C_8  and  C_9 
REMARK    3  A    between atoms: C_9  and  C_10 
ROOT
HETATM    1  C   UNL     1      40.244 -13.772   0.138  1.00  0.00     0.286 C 
HETATM    2  N   UNL     1      40.076 -12.640   1.147  1.00  0.00    -0.056 N 
HETATM    3  H   UNL     1      39.224 -12.857   1.708  1.00  0.00     0.278 HD
HETATM    4  H   UNL     1      40.848 -12.652   1.826  1.00  0.00     0.278 HD
HETATM    5  C   UNL     1      39.945 -11.282   0.504  1.00  0.00     0.209 C 
HETATM    6  C   UNL     1      38.761 -11.305  -0.497  1.00  0.00     0.115 C 
HETATM    7  N   UNL     1      38.856 -12.426  -1.431  1.00  0.00    -0.353 N 
HETATM    8  C   UNL     1      39.301 -13.674  -1.080  1.00  0.00     0.249 C 
HETATM    9  O   UNL     1      39.024 -14.650  -1.770  1.00  0.00    -0.271 OA
HETATM   10  C   UNL     1      39.771 -10.223   1.591  1.00  0.00     0.035 C 
HETATM   11  C   UNL     1      38.403 -10.267   2.268  1.00  0.00     0.002 C 
HETATM   12  C   UNL     1      37.271 -10.222   1.249  1.00  0.00     0.002 C 
HETATM   13  C   UNL     1      37.398 -11.331   0.210  1.00  0.00     0.027 C 
HETATM   14  H   UNL     1      38.241 -12.425  -2.243  1.00  0.00     0.163 HD
ENDROOT
BRANCH   1  15
HETATM   15  C   UNL     1      40.082 -15.140   0.812  1.00  0.00     0.146 C 
BRANCH  15  16
HETATM   16  C   UNL     1      41.380 -15.491   1.503  1.00  0.00     0.224 C 
HETATM   17  N   UNL     1      41.353 -16.646   2.242  1.00  0.00    -0.327 N 
HETATM   18  H   UNL     1      40.458 -17.106   2.378  1.00  0.00     0.169 HD
HETATM   19  O   UNL     1      42.316 -14.698   1.385  1.00  0.00    -0.273 OA
BRANCH  17  20
HETATM   20  C   UNL     1      42.429 -17.208   2.968  1.00  0.00     0.036 A 
HETATM   21  C   UNL     1      42.928 -16.673   4.158  1.00  0.00     0.053 A 
HETATM   22  C   UNL     1      43.996 -17.294   4.812  1.00  0.00     0.036 A 
HETATM   23  C   UNL     1      44.577 -18.446   4.290  1.00  0.00     0.024 A 
HETATM   24 CL   UNL     1      44.600 -16.621   6.277  1.00  0.00    -0.084 Cl
HETATM   25  C   UNL     1      44.091 -18.981   3.101  1.00  0.00     0.004 A 
HETATM   26  C   UNL     1      43.026 -18.362   2.441  1.00  0.00     0.029 A 
ENDBRANCH  17  20
ENDBRANCH  15  16
ENDBRANCH   1  15
TORSDOF 3
ENDMDL
MODEL 9
REMARK VINA RESULT:      -7.2      3.047      6.475
REMARK  3 active torsions:
REMARK  status: ('A' for Active; 'I' for Inactive)
REMARK    1  A    between atoms: C_6  and  N_7 
REMARK       I    between atoms: N_7  and  C_8 
REMARK    2  A    between atoms: C_8  and  C_9 
REMARK    3  A    between atoms: C_9  and  C_10 
ROOT
HETATM    1  C   UNL     1      41.884 -13.417   5.919  1.00  0.00     0.286 C 
HETATM    2  N   UNL     1      42.802 -14.326   5.107  1.00  0.00    -0.056 N 
HETATM    3  H   UNL     1      42.709 -14.038   4.108  1.00  0.00     0.278 HD
HETATM    4  H   UNL     1      43.785 -14.142   5.344  1.00  0.00     0.278 HD
HETATM    5  C   UNL     1      42.476 -15.791   5.258  1.00  0.00     0.209 C 
HETATM    6  C   UNL     1      40.992 -16.025   4.874  1.00  0.00     0.115 C 
HETATM    7  N   UNL     1      40.094 -15.114   5.583  1.00  0.00    -0.353 N 
HETATM    8  C   UNL     1      40.392 -13.802   5.847  1.00  0.00     0.249 C 
HETATM    9  O   UNL     1      39.499 -13.001   6.100  1.00  0.00    -0.271 OA
HETATM   10  C   UNL     1      43.438 -16.614   4.402  1.00  0.00     0.035 C 
HETATM   11  C   UNL     1      43.170 -16.493   2.903  1.00  0.00     0.002 C 
HETATM   12  C   UNL     1      41.715 -16.794   2.567  1.00  0.00     0.002 C 
HETATM   13  C   UNL     1      40.754 -15.916   3.361  1.00  0.00     0.027 C 
HETATM   14  H   UNL     1      39.094 -15.308   5.552  1.00  0.00     0.163 HD
ENDROOT
BRANCH   1  15
HETATM   15  C   UNL     1      42.062 -11.949   5.512  1.00  0.00     0.146 C 
BRANCH  15  16
HETATM   16  C   UNL     1      42.279 -11.889   4.017  1.00  0.00     0.224 C 
HETATM   17  N   UNL     1      41.136 -11.934   3.260  1.00  0.00    -0.327 N 
HETATM   18  H   UNL     1      40.257 -12.128   3.731  1.00  0.00     0.169 HD
HETATM   19  O   UNL     1      43.443 -11.857   3.615  1.00  0.00    -0.273 OA
BRANCH  17  20
HETATM   20  C   UNL     1      41.056 -11.877   1.849  1.00  0.00     0.036 A 
HETATM   21  C   UNL     1      40.650 -12.947   1.049  1.00  0.00     0.053 A 
HETATM   22  C   UNL     1      40.599 -12.804  -0.340  1.00  0.00     0.036 A 
HETATM   23  C   UNL     1      40.952 -11.601  -0.945  1.00  0.00     0.024 A 
HETATM   24 CL   UNL     1      40.098 -14.133  -1.313  1.00  0.00    -0.084 Cl
HETATM   25  C   UNL     1      41.365 -10.532  -0.156  1.00  0.00     0.004 A 
HETATM   26  C   UNL     1      41.422 -10.671   1.234  1.00  0.00     0.029 A 
ENDBRANCH  17  20
ENDBRANCH  15  16
ENDBRANCH   1  15
TORSDOF 3
ENDMDL
MODEL 10
REMARK VINA RESULT:      -7.1      2.933      7.579
REMARK  3 active torsions:
REMARK  status: ('A' for Active; 'I' for Inactive)
REMARK    1  A    between atoms: C_6  and  N_7 
REMARK       I    between atoms: N_7  and  C_8 
REMARK    2  A    between atoms: C_8  and  C_9 
REMARK    3  A    between atoms: C_9  and  C_10 
ROOT
HETATM    1  C   UNL     1      41.580 -15.301   3.646  1.00  0.00     0.286 C 
HETATM    2  N   UNL     1      42.320 -16.630   3.775  1.00  0.00    -0.056 N 
HETATM    3  H   UNL     1      41.695 -17.275   4.305  1.00  0.00     0.278 HD
HETATM    4  H   UNL     1      42.428 -17.067   2.851  1.00  0.00     0.278 HD
HETATM    5  C   UNL     1      43.652 -16.506   4.472  1.00  0.00     0.209 C 
HETATM    6  C   UNL     1      43.440 -15.858   5.865  1.00  0.00     0.115 C 
HETATM    7  N   UNL     1      42.668 -14.619   5.780  1.00  0.00    -0.353 N 
HETATM    8  C   UNL     1      41.612 -14.437   4.924  1.00  0.00     0.249 C 
HETATM    9  O   UNL     1      40.785 -13.556   5.136  1.00  0.00    -0.271 OA
HETATM   10  C   UNL     1      44.306 -17.883   4.561  1.00  0.00     0.035 C 
HETATM   11  C   UNL     1      43.629 -18.812   5.567  1.00  0.00     0.002 C 
HETATM   12  C   UNL     1      43.501 -18.157   6.936  1.00  0.00     0.002 C 
HETATM   13  C   UNL     1      42.775 -16.818   6.861  1.00  0.00     0.027 C 
HETATM   14  H   UNL     1      42.636 -14.019   6.602  1.00  0.00     0.163 HD
ENDROOT
BRANCH   1  15
HETATM   15  C   UNL     1      40.129 -15.519   3.203  1.00  0.00     0.146 C 
BRANCH  15  16
HETATM   16  C   UNL     1      39.832 -14.580   2.055  1.00  0.00     0.224 C 
HETATM   17  N   UNL     1      40.278 -15.000   0.828  1.00  0.00    -0.327 N 
HETATM   18  H   UNL     1      40.872 -15.823   0.791  1.00  0.00     0.169 HD
HETATM   19  O   UNL     1      39.271 -13.517   2.325  1.00  0.00    -0.273 OA
BRANCH  17  20
HETATM   20  C   UNL     1      40.117 -14.325  -0.404  1.00  0.00     0.036 A 
HETATM   21  C   UNL     1      40.697 -13.088  -0.695  1.00  0.00     0.053 A 
HETATM   22  C   UNL     1      40.486 -12.490  -1.940  1.00  0.00     0.036 A 
HETATM   23  C   UNL     1      39.697 -13.112  -2.904  1.00  0.00     0.024 A 
HETATM   24 CL   UNL     1      41.206 -10.964  -2.283  1.00  0.00    -0.084 Cl
HETATM   25  C   UNL     1      39.110 -14.342  -2.620  1.00  0.00     0.004 A 
HETATM   26  C   UNL     1      39.314 -14.942  -1.374  1.00  0.00     0.029 A 
ENDBRANCH  17  20
ENDBRANCH  15  16
ENDBRANCH   1  15
TORSDOF 3
ENDMDL
