MODEL 1
REMARK VINA RESULT:      -9.2      0.000      0.000
REMARK  6 active torsions:
REMARK  status: ('A' for Active; 'I' for Inactive)
REMARK    1  A    between atoms: C_3  and  C_4 
REMARK       I    between atoms: C_4  and  N_5 
REMARK    2  A    between atoms: N_5  and  C_6 
REMARK    3  A    between atoms: C_6  and  C_7 
REMARK    4  A    between atoms: C_6  and  C_22 
REMARK       I    between atoms: C_7  and  N_8 
REMARK    5  A    between atoms: N_8  and  C_9 
REMARK    6  A    between atoms: C_11  and  C_12 
ROOT
HETATM    1  C   UNL     1      42.390 -13.966   4.423  1.00  0.00     0.245 C 
HETATM    2  N   UNL     1      41.473 -14.456   3.513  1.00  0.00    -0.325 N 
HETATM    3  O   UNL     1      42.824 -12.816   4.466  1.00  0.00    -0.271 OA
HETATM    4  H   UNL     1      41.357 -15.472   3.516  1.00  0.00     0.169 HD
ENDROOT
BRANCH   1   5
HETATM    5  C   UNL     1      42.842 -15.006   5.484  1.00  0.00     0.180 C 
BRANCH   5   6
HETATM    6  N   UNL     1      42.885 -16.359   4.924  1.00  0.00    -0.343 N 
HETATM    7  C   UNL     1      43.980 -17.188   4.984  1.00  0.00     0.252 C 
HETATM    8  O   UNL     1      45.015 -16.883   5.567  1.00  0.00    -0.268 OA
HETATM    9  H   UNL     1      42.149 -16.597   4.272  1.00  0.00     0.163 HD
BRANCH   7  10
HETATM   10  C   UNL     1      43.881 -18.475   4.238  1.00  0.00     0.037 A 
HETATM   11  C   UNL     1      43.574 -18.576   2.865  1.00  0.00    -0.046 A 
HETATM   12  C   UNL     1      43.245 -17.395   1.994  1.00  0.00     0.049 C 
HETATM   13  C   UNL     1      43.571 -19.853   2.271  1.00  0.00     0.007 A 
HETATM   14  C   UNL     1      43.812 -21.000   3.028  1.00  0.00     0.001 A 
HETATM   15  C   UNL     1      44.064 -20.896   4.391  1.00  0.00     0.001 A 
HETATM   16  C   UNL     1      44.099 -19.639   4.994  1.00  0.00     0.017 A 
ENDBRANCH   7  10
ENDBRANCH   5   6
BRANCH   5  17
HETATM   17  C   UNL     1      42.069 -14.905   6.824  1.00  0.00     0.009 C 
HETATM   18  C   UNL     1      40.756 -15.696   6.765  1.00  0.00     0.012 C 
HETATM   19  C   UNL     1      42.910 -15.424   7.998  1.00  0.00     0.012 C 
ENDBRANCH   5  17
ENDBRANCH   1   5
BRANCH   2  20
HETATM   20  C   UNL     1      40.717 -13.743   2.564  1.00  0.00     0.035 A 
HETATM   21  C   UNL     1      41.003 -13.714   1.195  1.00  0.00     0.042 A 
HETATM   22  C   UNL     1      40.226 -12.955   0.300  1.00  0.00    -0.021 A 
HETATM   23  C   UNL     1      39.163 -12.202   0.817  1.00  0.00     0.012 A 
HETATM   24  C   UNL     1      38.868 -12.225   2.181  1.00  0.00     0.003 A 
HETATM   25  C   UNL     1      39.636 -13.001   3.047  1.00  0.00     0.029 A 
BRANCH  22  26
HETATM   26  C   UNL     1      40.531 -12.968  -1.128  1.00  0.00     0.010 A 
HETATM   27  C   UNL     1      40.146 -13.873  -2.150  1.00  0.00     0.152 A 
HETATM   28  N   UNL     1      40.617 -13.534  -3.355  1.00  0.00    -0.187 NA
HETATM   29  N   UNL     1      41.301 -12.408  -3.114  1.00  0.00    -0.289 N 
HETATM   30  H   UNL     1      41.755 -11.946  -3.895  1.00  0.00     0.188 HD
HETATM   31  C   UNL     1      41.282 -12.027  -1.803  1.00  0.00     0.123 A 
ENDBRANCH  22  26
ENDBRANCH   2  20
TORSDOF 6
ENDMDL
MODEL 2
REMARK VINA RESULT:      -8.9      4.789      8.022
REMARK  6 active torsions:
REMARK  status: ('A' for Active; 'I' for Inactive)
REMARK    1  A    between atoms: C_3  and  C_4 
REMARK       I    between atoms: C_4  and  N_5 
REMARK    2  A    between atoms: N_5  and  C_6 
REMARK    3  A    between atoms: C_6  and  C_7 
REMARK    4  A    between atoms: C_6  and  C_22 
REMARK       I    between atoms: C_7  and  N_8 
REMARK    5  A    between atoms: N_8  and  C_9 
REMARK    6  A    between atoms: C_11  and  C_12 
ROOT
HETATM    1  C   UNL     1      43.523 -13.157   6.576  1.00  0.00     0.245 C 
HETATM    2  N   UNL     1      44.049 -11.886   6.457  1.00  0.00    -0.325 N 
HETATM    3  O   UNL     1      43.572 -13.871   7.577  1.00  0.00    -0.271 OA
HETATM    4  H   UNL     1      44.069 -11.510   5.506  1.00  0.00     0.169 HD
ENDROOT
BRANCH   1   5
HETATM    5  C   UNL     1      42.781 -13.654   5.305  1.00  0.00     0.180 C 
BRANCH   5   6
HETATM    6  N   UNL     1      43.206 -15.006   4.931  1.00  0.00    -0.343 N 
HETATM    7  C   UNL     1      42.373 -16.100   4.906  1.00  0.00     0.252 C 
HETATM    8  O   UNL     1      41.173 -16.030   5.148  1.00  0.00    -0.268 OA
HETATM    9  H   UNL     1      44.203 -15.172   4.910  1.00  0.00     0.163 HD
BRANCH   7  10
HETATM   10  C   UNL     1      43.017 -17.417   4.633  1.00  0.00     0.037 A 
HETATM   11  C   UNL     1      43.364 -17.881   3.346  1.00  0.00    -0.046 A 
HETATM   12  C   UNL     1      43.067 -17.127   2.079  1.00  0.00     0.049 C 
HETATM   13  C   UNL     1      44.022 -19.120   3.236  1.00  0.00     0.007 A 
HETATM   14  C   UNL     1      44.281 -19.902   4.363  1.00  0.00     0.001 A 
HETATM   15  C   UNL     1      43.891 -19.460   5.622  1.00  0.00     0.001 A 
HETATM   16  C   UNL     1      43.262 -18.223   5.757  1.00  0.00     0.017 A 
ENDBRANCH   7  10
ENDBRANCH   5   6
BRANCH   5  17
HETATM   17  C   UNL     1      42.806 -12.641   4.133  1.00  0.00     0.009 C 
HETATM   18  C   UNL     1      43.245 -13.317   2.828  1.00  0.00     0.012 C 
HETATM   19  C   UNL     1      41.431 -11.994   3.920  1.00  0.00     0.012 C 
ENDBRANCH   5  17
ENDBRANCH   1   5
BRANCH   2  20
HETATM   20  C   UNL     1      44.594 -11.067   7.463  1.00  0.00     0.035 A 
HETATM   21  C   UNL     1      43.956 -10.784   8.676  1.00  0.00     0.042 A 
HETATM   22  C   UNL     1      44.541  -9.930   9.629  1.00  0.00    -0.021 A 
HETATM   23  C   UNL     1      45.777  -9.343   9.327  1.00  0.00     0.012 A 
HETATM   24  C   UNL     1      46.423  -9.619   8.121  1.00  0.00     0.003 A 
HETATM   25  C   UNL     1      45.837 -10.486   7.200  1.00  0.00     0.029 A 
BRANCH  22  26
HETATM   26  C   UNL     1      43.864  -9.677  10.898  1.00  0.00     0.010 A 
HETATM   27  C   UNL     1      43.560  -8.459  11.561  1.00  0.00     0.152 A 
HETATM   28  N   UNL     1      42.906  -8.638  12.713  1.00  0.00    -0.187 NA
HETATM   29  N   UNL     1      42.781  -9.970  12.794  1.00  0.00    -0.289 N 
HETATM   30  H   UNL     1      42.301 -10.359  13.599  1.00  0.00     0.188 HD
HETATM   31  C   UNL     1      43.335 -10.636  11.739  1.00  0.00     0.123 A 
ENDBRANCH  22  26
ENDBRANCH   2  20
TORSDOF 6
ENDMDL
MODEL 3
REMARK VINA RESULT:      -8.6      1.813      2.536
REMARK  6 active torsions:
REMARK  status: ('A' for Active; 'I' for Inactive)
REMARK    1  A    between atoms: C_3  and  C_4 
REMARK       I    between atoms: C_4  and  N_5 
REMARK    2  A    between atoms: N_5  and  C_6 
REMARK    3  A    between atoms: C_6  and  C_7 
REMARK    4  A    between atoms: C_6  and  C_22 
REMARK       I    between atoms: C_7  and  N_8 
REMARK    5  A    between atoms: N_8  and  C_9 
REMARK    6  A    between atoms: C_11  and  C_12 
ROOT
HETATM    1  C   UNL     1      40.661 -13.912   3.237  1.00  0.00     0.245 C 
HETATM    2  N   UNL     1      40.471 -12.678   2.646  1.00  0.00    -0.325 N 
HETATM    3  O   UNL     1      39.916 -14.886   3.136  1.00  0.00    -0.271 OA
HETATM    4  H   UNL     1      41.093 -11.937   2.976  1.00  0.00     0.169 HD
ENDROOT
BRANCH   1   5
HETATM    5  C   UNL     1      41.974 -14.022   4.058  1.00  0.00     0.180 C 
BRANCH   5   6
HETATM    6  N   UNL     1      42.464 -15.402   4.103  1.00  0.00    -0.343 N 
HETATM    7  C   UNL     1      43.205 -15.994   3.107  1.00  0.00     0.252 C 
HETATM    8  O   UNL     1      43.570 -15.394   2.102  1.00  0.00    -0.268 OA
HETATM    9  H   UNL     1      42.044 -16.004   4.798  1.00  0.00     0.163 HD
BRANCH   7  10
HETATM   10  C   UNL     1      43.495 -17.447   3.270  1.00  0.00     0.037 A 
HETATM   11  C   UNL     1      44.147 -18.008   4.389  1.00  0.00    -0.046 A 
HETATM   12  C   UNL     1      44.691 -17.194   5.531  1.00  0.00     0.049 C 
HETATM   13  C   UNL     1      44.305 -19.405   4.442  1.00  0.00     0.007 A 
HETATM   14  C   UNL     1      43.875 -20.219   3.393  1.00  0.00     0.001 A 
HETATM   15  C   UNL     1      43.278 -19.655   2.272  1.00  0.00     0.001 A 
HETATM   16  C   UNL     1      43.088 -18.275   2.210  1.00  0.00     0.017 A 
ENDBRANCH   7  10
ENDBRANCH   5   6
BRANCH   5  17
HETATM   17  C   UNL     1      41.901 -13.336   5.446  1.00  0.00     0.009 C 
HETATM   18  C   UNL     1      40.527 -13.547   6.094  1.00  0.00     0.012 C 
HETATM   19  C   UNL     1      42.985 -13.868   6.393  1.00  0.00     0.012 C 
ENDBRANCH   5  17
ENDBRANCH   1   5
BRANCH   2  20
HETATM   20  C   UNL     1      39.510 -12.306   1.687  1.00  0.00     0.035 A 
HETATM   21  C   UNL     1      39.404 -12.886   0.418  1.00  0.00     0.042 A 
HETATM   22  C   UNL     1      38.441 -12.447  -0.509  1.00  0.00    -0.021 A 
HETATM   23  C   UNL     1      37.598 -11.389  -0.142  1.00  0.00     0.012 A 
HETATM   24  C   UNL     1      37.695 -10.804   1.122  1.00  0.00     0.003 A 
HETATM   25  C   UNL     1      38.641 -11.270   2.034  1.00  0.00     0.029 A 
BRANCH  22  26
HETATM   26  C   UNL     1      38.334 -13.091  -1.815  1.00  0.00     0.010 A 
HETATM   27  C   UNL     1      39.283 -13.836  -2.562  1.00  0.00     0.152 A 
HETATM   28  N   UNL     1      38.799 -14.287  -3.724  1.00  0.00    -0.187 NA
HETATM   29  N   UNL     1      37.536 -13.840  -3.727  1.00  0.00    -0.289 N 
HETATM   30  H   UNL     1      36.949 -14.066  -4.523  1.00  0.00     0.188 HD
HETATM   31  C   UNL     1      37.208 -13.122  -2.613  1.00  0.00     0.123 A 
ENDBRANCH  22  26
ENDBRANCH   2  20
TORSDOF 6
ENDMDL
MODEL 4
REMARK VINA RESULT:      -8.6      2.671      3.555
REMARK  6 active torsions:
REMARK  status: ('A' for Active; 'I' for Inactive)
REMARK    1  A    between atoms: C_3  and  C_4 
REMARK       I    between atoms: C_4  and  N_5 
REMARK    2  A    between atoms: N_5  and  C_6 
REMARK    3  A    between atoms: C_6  and  C_7 
REMARK    4  A    between atoms: C_6  and  C_22 
REMARK       I    between atoms: C_7  and  N_8 
REMARK    5  A    between atoms: N_8  and  C_9 
REMARK    6  A    between atoms: C_11  and  C_12 
ROOT
HETATM    1  C   UNL     1      40.336 -14.642   2.212  1.00  0.00     0.245 C 
HETATM    2  N   UNL     1      40.419 -13.674   1.231  1.00  0.00    -0.325 N 
HETATM    3  O   UNL     1      39.476 -15.518   2.293  1.00  0.00    -0.271 OA
HETATM    4  H   UNL     1      41.092 -12.925   1.413  1.00  0.00     0.169 HD
ENDROOT
BRANCH   1   5
HETATM    5  C   UNL     1      41.487 -14.586   3.252  1.00  0.00     0.180 C 
BRANCH   5   6
HETATM    6  N   UNL     1      42.045 -15.917   3.507  1.00  0.00    -0.343 N 
HETATM    7  C   UNL     1      43.006 -16.516   2.726  1.00  0.00     0.252 C 
HETATM    8  O   UNL     1      43.526 -15.959   1.765  1.00  0.00    -0.268 OA
HETATM    9  H   UNL     1      41.533 -16.500   4.154  1.00  0.00     0.163 HD
BRANCH   7  10
HETATM   10  C   UNL     1      43.350 -17.927   3.063  1.00  0.00     0.037 A 
HETATM   11  C   UNL     1      43.958 -18.331   4.271  1.00  0.00    -0.046 A 
HETATM   12  C   UNL     1      44.397 -17.373   5.345  1.00  0.00     0.049 C 
HETATM   13  C   UNL     1      44.174 -19.705   4.486  1.00  0.00     0.007 A 
HETATM   14  C   UNL     1      43.844 -20.647   3.511  1.00  0.00     0.001 A 
HETATM   15  C   UNL     1      43.291 -20.236   2.303  1.00  0.00     0.001 A 
HETATM   16  C   UNL     1      43.044 -18.883   2.080  1.00  0.00     0.017 A 
ENDBRANCH   7  10
ENDBRANCH   5   6
BRANCH   5  17
HETATM   17  C   UNL     1      41.126 -13.800   4.539  1.00  0.00     0.009 C 
HETATM   18  C   UNL     1      41.373 -14.649   5.792  1.00  0.00     0.012 C 
HETATM   19  C   UNL     1      41.937 -12.502   4.649  1.00  0.00     0.012 C 
ENDBRANCH   5  17
ENDBRANCH   1   5
BRANCH   2  20
HETATM   20  C   UNL     1      39.672 -13.565   0.042  1.00  0.00     0.035 A 
HETATM   21  C   UNL     1      38.828 -12.491  -0.258  1.00  0.00     0.042 A 
HETATM   22  C   UNL     1      38.082 -12.458  -1.451  1.00  0.00    -0.021 A 
HETATM   23  C   UNL     1      38.185 -13.545  -2.330  1.00  0.00     0.012 A 
HETATM   24  C   UNL     1      39.025 -14.621  -2.041  1.00  0.00     0.003 A 
HETATM   25  C   UNL     1      39.772 -14.624  -0.864  1.00  0.00     0.029 A 
BRANCH  22  26
HETATM   26  C   UNL     1      37.232 -11.309  -1.751  1.00  0.00     0.010 A 
HETATM   27  C   UNL     1      36.404 -11.035  -2.871  1.00  0.00     0.152 A 
HETATM   28  N   UNL     1      35.758  -9.870  -2.772  1.00  0.00    -0.187 NA
HETATM   29  N   UNL     1      36.161  -9.391  -1.587  1.00  0.00    -0.289 N 
HETATM   30  H   UNL     1      35.792  -8.498  -1.279  1.00  0.00     0.188 HD
HETATM   31  C   UNL     1      37.039 -10.210  -0.938  1.00  0.00     0.123 A 
ENDBRANCH  22  26
ENDBRANCH   2  20
TORSDOF 6
ENDMDL
MODEL 5
REMARK VINA RESULT:      -8.2      2.325      7.504
REMARK  6 active torsions:
REMARK  status: ('A' for Active; 'I' for Inactive)
REMARK    1  A    between atoms: C_3  and  C_4 
REMARK       I    between atoms: C_4  and  N_5 
REMARK    2  A    between atoms: N_5  and  C_6 
REMARK    3  A    between atoms: C_6  and  C_7 
REMARK    4  A    between atoms: C_6  and  C_22 
REMARK       I    between atoms: C_7  and  N_8 
REMARK    5  A    between atoms: N_8  and  C_9 
REMARK    6  A    between atoms: C_11  and  C_12 
ROOT
HETATM    1  C   UNL     1      40.794 -13.707   4.194  1.00  0.00     0.245 C 
HETATM    2  N   UNL     1      41.865 -14.346   3.600  1.00  0.00    -0.325 N 
HETATM    3  O   UNL     1      40.232 -14.049   5.233  1.00  0.00    -0.271 OA
HETATM    4  H   UNL     1      42.093 -14.028   2.655  1.00  0.00     0.169 HD
ENDROOT
BRANCH   1   5
HETATM    5  C   UNL     1      40.335 -12.423   3.449  1.00  0.00     0.180 C 
BRANCH   5   6
HETATM    6  N   UNL     1      40.576 -12.526   2.007  1.00  0.00    -0.343 N 
HETATM    7  C   UNL     1      39.633 -12.257   1.043  1.00  0.00     0.252 C 
HETATM    8  O   UNL     1      38.507 -11.851   1.308  1.00  0.00    -0.268 OA
HETATM    9  H   UNL     1      41.405 -13.033   1.727  1.00  0.00     0.163 HD
BRANCH   7  10
HETATM   10  C   UNL     1      40.022 -12.549  -0.366  1.00  0.00     0.037 A 
HETATM   11  C   UNL     1      40.802 -11.691  -1.171  1.00  0.00    -0.046 A 
HETATM   12  C   UNL     1      41.284 -10.338  -0.724  1.00  0.00     0.049 C 
HETATM   13  C   UNL     1      41.147 -12.117  -2.467  1.00  0.00     0.007 A 
HETATM   14  C   UNL     1      40.690 -13.336  -2.970  1.00  0.00     0.001 A 
HETATM   15  C   UNL     1      39.881 -14.153  -2.189  1.00  0.00     0.001 A 
HETATM   16  C   UNL     1      39.549 -13.763  -0.893  1.00  0.00     0.017 A 
ENDBRANCH   7  10
ENDBRANCH   5   6
BRANCH   5  17
HETATM   17  C   UNL     1      40.864 -11.112   4.083  1.00  0.00     0.009 C 
HETATM   18  C   UNL     1      42.043 -10.547   3.280  1.00  0.00     0.012 C 
HETATM   19  C   UNL     1      39.764 -10.046   4.168  1.00  0.00     0.012 C 
ENDBRANCH   5  17
ENDBRANCH   1   5
BRANCH   2  20
HETATM   20  C   UNL     1      42.647 -15.399   4.110  1.00  0.00     0.035 A 
HETATM   21  C   UNL     1      42.747 -16.662   3.516  1.00  0.00     0.042 A 
HETATM   22  C   UNL     1      43.522 -17.684   4.094  1.00  0.00    -0.021 A 
HETATM   23  C   UNL     1      44.179 -17.417   5.303  1.00  0.00     0.012 A 
HETATM   24  C   UNL     1      44.087 -16.161   5.904  1.00  0.00     0.003 A 
HETATM   25  C   UNL     1      43.332 -15.155   5.303  1.00  0.00     0.029 A 
BRANCH  22  26
HETATM   26  C   UNL     1      43.631 -18.982   3.435  1.00  0.00     0.010 A 
HETATM   27  C   UNL     1      44.019 -20.250   3.941  1.00  0.00     0.152 A 
HETATM   28  N   UNL     1      43.976 -21.218   3.020  1.00  0.00    -0.187 NA
HETATM   29  N   UNL     1      43.555 -20.579   1.920  1.00  0.00    -0.289 N 
HETATM   30  H   UNL     1      43.435 -21.118   1.068  1.00  0.00     0.188 HD
HETATM   31  C   UNL     1      43.335 -19.246   2.113  1.00  0.00     0.123 A 
ENDBRANCH  22  26
ENDBRANCH   2  20
TORSDOF 6
ENDMDL
MODEL 6
REMARK VINA RESULT:      -8.1      7.219     10.615
REMARK  6 active torsions:
REMARK  status: ('A' for Active; 'I' for Inactive)
REMARK    1  A    between atoms: C_3  and  C_4 
REMARK       I    between atoms: C_4  and  N_5 
REMARK    2  A    between atoms: N_5  and  C_6 
REMARK    3  A    between atoms: C_6  and  C_7 
REMARK    4  A    between atoms: C_6  and  C_22 
REMARK       I    between atoms: C_7  and  N_8 
REMARK    5  A    between atoms: N_8  and  C_9 
REMARK    6  A    between atoms: C_11  and  C_12 
ROOT
HETATM    1  C   UNL     1      43.584 -10.633   9.804  1.00  0.00     0.245 C 
HETATM    2  N   UNL     1      42.571  -9.700   9.900  1.00  0.00    -0.325 N 
HETATM    3  O   UNL     1      44.045 -11.300  10.730  1.00  0.00    -0.271 OA
HETATM    4  H   UNL     1      42.434  -9.119   9.069  1.00  0.00     0.169 HD
ENDROOT
BRANCH   1   5
HETATM    5  C   UNL     1      44.118 -10.838   8.360  1.00  0.00     0.180 C 
BRANCH   5   6
HETATM    6  N   UNL     1      43.714 -12.140   7.819  1.00  0.00    -0.343 N 
HETATM    7  C   UNL     1      43.058 -12.312   6.623  1.00  0.00     0.252 C 
HETATM    8  O   UNL     1      42.796 -11.383   5.867  1.00  0.00    -0.268 OA
HETATM    9  H   UNL     1      43.723 -12.915   8.468  1.00  0.00     0.163 HD
BRANCH   7  10
HETATM   10  C   UNL     1      42.609 -13.697   6.306  1.00  0.00     0.037 A 
HETATM   11  C   UNL     1      41.273 -14.056   6.027  1.00  0.00    -0.046 A 
HETATM   12  C   UNL     1      40.121 -13.090   6.079  1.00  0.00     0.049 C 
HETATM   13  C   UNL     1      40.996 -15.393   5.685  1.00  0.00     0.007 A 
HETATM   14  C   UNL     1      42.004 -16.357   5.670  1.00  0.00     0.001 A 
HETATM   15  C   UNL     1      43.310 -16.006   5.995  1.00  0.00     0.001 A 
HETATM   16  C   UNL     1      43.611 -14.682   6.311  1.00  0.00     0.017 A 
ENDBRANCH   7  10
ENDBRANCH   5   6
BRANCH   5  17
HETATM   17  C   UNL     1      45.630 -10.536   8.205  1.00  0.00     0.009 C 
HETATM   18  C   UNL     1      46.159 -11.042   6.858  1.00  0.00     0.012 C 
HETATM   19  C   UNL     1      45.916  -9.033   8.319  1.00  0.00     0.012 C 
ENDBRANCH   5  17
ENDBRANCH   1   5
BRANCH   2  20
HETATM   20  C   UNL     1      41.739  -9.422  11.000  1.00  0.00     0.035 A 
HETATM   21  C   UNL     1      42.171  -8.789  12.171  1.00  0.00     0.042 A 
HETATM   22  C   UNL     1      41.295  -8.569  13.250  1.00  0.00    -0.021 A 
HETATM   23  C   UNL     1      39.974  -9.022  13.138  1.00  0.00     0.012 A 
HETATM   24  C   UNL     1      39.532  -9.653  11.974  1.00  0.00     0.003 A 
HETATM   25  C   UNL     1      40.409  -9.841  10.908  1.00  0.00     0.029 A 
BRANCH  22  26
HETATM   26  C   UNL     1      41.768  -7.880  14.448  1.00  0.00     0.010 A 
HETATM   27  C   UNL     1      41.273  -7.885  15.777  1.00  0.00     0.152 A 
HETATM   28  N   UNL     1      41.997  -7.130  16.610  1.00  0.00    -0.187 NA
HETATM   29  N   UNL     1      42.965  -6.642  15.822  1.00  0.00    -0.289 N 
HETATM   30  H   UNL     1      43.660  -6.032  16.238  1.00  0.00     0.188 HD
HETATM   31  C   UNL     1      42.874  -7.058  14.525  1.00  0.00     0.123 A 
ENDBRANCH  22  26
ENDBRANCH   2  20
TORSDOF 6
ENDMDL
MODEL 7
REMARK VINA RESULT:      -8.1      4.194      7.084
REMARK  6 active torsions:
REMARK  status: ('A' for Active; 'I' for Inactive)
REMARK    1  A    between atoms: C_3  and  C_4 
REMARK       I    between atoms: C_4  and  N_5 
REMARK    2  A    between atoms: N_5  and  C_6 
REMARK    3  A    between atoms: C_6  and  C_7 
REMARK    4  A    between atoms: C_6  and  C_22 
REMARK       I    between atoms: C_7  and  N_8 
REMARK    5  A    between atoms: N_8  and  C_9 
REMARK    6  A    between atoms: C_11  and  C_12 
ROOT
HETATM    1  C   UNL     1      42.046 -12.811   4.444  1.00  0.00     0.245 C 
HETATM    2  N   UNL     1      42.260 -12.714   5.805  1.00  0.00    -0.325 N 
HETATM    3  O   UNL     1      42.563 -12.107   3.578  1.00  0.00    -0.271 OA
HETATM    4  H   UNL     1      41.620 -13.260   6.387  1.00  0.00     0.169 HD
ENDROOT
BRANCH   1   5
HETATM    5  C   UNL     1      41.085 -13.961   4.038  1.00  0.00     0.180 C 
BRANCH   5   6
HETATM    6  N   UNL     1      41.751 -15.265   4.107  1.00  0.00    -0.343 N 
HETATM    7  C   UNL     1      42.849 -15.615   3.358  1.00  0.00     0.252 C 
HETATM    8  O   UNL     1      43.409 -14.838   2.593  1.00  0.00    -0.268 OA
HETATM    9  H   UNL     1      41.236 -16.006   4.564  1.00  0.00     0.163 HD
BRANCH   7  10
HETATM   10  C   UNL     1      43.302 -17.031   3.466  1.00  0.00     0.037 A 
HETATM   11  C   UNL     1      44.035 -17.552   4.554  1.00  0.00    -0.046 A 
HETATM   12  C   UNL     1      44.507 -16.720   5.716  1.00  0.00     0.049 C 
HETATM   13  C   UNL     1      44.347 -18.924   4.557  1.00  0.00     0.007 A 
HETATM   14  C   UNL     1      43.991 -19.746   3.488  1.00  0.00     0.001 A 
HETATM   15  C   UNL     1      43.313 -19.216   2.396  1.00  0.00     0.001 A 
HETATM   16  C   UNL     1      42.969 -17.865   2.385  1.00  0.00     0.017 A 
ENDBRANCH   7  10
ENDBRANCH   5   6
BRANCH   5  17
HETATM   17  C   UNL     1      40.339 -13.707   2.703  1.00  0.00     0.009 C 
HETATM   18  C   UNL     1      39.749 -15.008   2.145  1.00  0.00     0.012 C 
HETATM   19  C   UNL     1      39.210 -12.683   2.878  1.00  0.00     0.012 C 
ENDBRANCH   5  17
ENDBRANCH   1   5
BRANCH   2  20
HETATM   20  C   UNL     1      43.211 -11.933   6.488  1.00  0.00     0.035 A 
HETATM   21  C   UNL     1      42.889 -10.853   7.318  1.00  0.00     0.042 A 
HETATM   22  C   UNL     1      43.890 -10.090   7.948  1.00  0.00    -0.021 A 
HETATM   23  C   UNL     1      45.230 -10.422   7.706  1.00  0.00     0.012 A 
HETATM   24  C   UNL     1      45.562 -11.498   6.881  1.00  0.00     0.003 A 
HETATM   25  C   UNL     1      44.555 -12.255   6.285  1.00  0.00     0.029 A 
BRANCH  22  26
HETATM   26  C   UNL     1      43.523  -8.987   8.832  1.00  0.00     0.010 A 
HETATM   27  C   UNL     1      43.771  -7.594   8.729  1.00  0.00     0.152 A 
HETATM   28  N   UNL     1      43.253  -6.893   9.742  1.00  0.00    -0.187 NA
HETATM   29  N   UNL     1      42.665  -7.830  10.498  1.00  0.00    -0.289 N 
HETATM   30  H   UNL     1      42.185  -7.534  11.341  1.00  0.00     0.188 HD
HETATM   31  C   UNL     1      42.796  -9.094  10.000  1.00  0.00     0.123 A 
ENDBRANCH  22  26
ENDBRANCH   2  20
TORSDOF 6
ENDMDL
MODEL 8
REMARK VINA RESULT:      -8.0      4.198      8.423
REMARK  6 active torsions:
REMARK  status: ('A' for Active; 'I' for Inactive)
REMARK    1  A    between atoms: C_3  and  C_4 
REMARK       I    between atoms: C_4  and  N_5 
REMARK    2  A    between atoms: N_5  and  C_6 
REMARK    3  A    between atoms: C_6  and  C_7 
REMARK    4  A    between atoms: C_6  and  C_22 
REMARK       I    between atoms: C_7  and  N_8 
REMARK    5  A    between atoms: N_8  and  C_9 
REMARK    6  A    between atoms: C_11  and  C_12 
ROOT
HETATM    1  C   UNL     1      42.755 -12.210   5.184  1.00  0.00     0.245 C 
HETATM    2  N   UNL     1      42.009 -13.193   4.563  1.00  0.00    -0.325 N 
HETATM    3  O   UNL     1      43.978 -12.203   5.314  1.00  0.00    -0.271 OA
HETATM    4  H   UNL     1      40.998 -13.123   4.697  1.00  0.00     0.169 HD
ENDROOT
BRANCH   1   5
HETATM    5  C   UNL     1      41.911 -11.016   5.708  1.00  0.00     0.180 C 
BRANCH   5   6
HETATM    6  N   UNL     1      42.193 -10.740   7.119  1.00  0.00    -0.343 N 
HETATM    7  C   UNL     1      42.436  -9.487   7.630  1.00  0.00     0.252 C 
HETATM    8  O   UNL     1      42.386  -8.468   6.949  1.00  0.00    -0.268 OA
HETATM    9  H   UNL     1      42.438 -11.537   7.691  1.00  0.00     0.163 HD
BRANCH   7  10
HETATM   10  C   UNL     1      42.837  -9.421   9.064  1.00  0.00     0.037 A 
HETATM   11  C   UNL     1      44.173  -9.447   9.519  1.00  0.00    -0.046 A 
HETATM   12  C   UNL     1      45.360  -9.611   8.609  1.00  0.00     0.049 C 
HETATM   13  C   UNL     1      44.414  -9.319  10.899  1.00  0.00     0.007 A 
HETATM   14  C   UNL     1      43.360  -9.219  11.809  1.00  0.00     0.001 A 
HETATM   15  C   UNL     1      42.045  -9.244  11.357  1.00  0.00     0.001 A 
HETATM   16  C   UNL     1      41.784  -9.344   9.992  1.00  0.00     0.017 A 
ENDBRANCH   7  10
ENDBRANCH   5   6
BRANCH   5  17
HETATM   17  C   UNL     1      40.401 -11.127   5.378  1.00  0.00     0.009 C 
HETATM   18  C   UNL     1      39.577 -11.378   6.647  1.00  0.00     0.012 C 
HETATM   19  C   UNL     1      39.882  -9.858   4.690  1.00  0.00     0.012 C 
ENDBRANCH   5  17
ENDBRANCH   1   5
BRANCH   2  20
HETATM   20  C   UNL     1      42.464 -14.292   3.810  1.00  0.00     0.035 A 
HETATM   21  C   UNL     1      42.796 -15.535   4.358  1.00  0.00     0.042 A 
HETATM   22  C   UNL     1      43.277 -16.585   3.554  1.00  0.00    -0.021 A 
HETATM   23  C   UNL     1      43.441 -16.351   2.182  1.00  0.00     0.012 A 
HETATM   24  C   UNL     1      43.111 -15.115   1.624  1.00  0.00     0.003 A 
HETATM   25  C   UNL     1      42.615 -14.095   2.435  1.00  0.00     0.029 A 
BRANCH  22  26
HETATM   26  C   UNL     1      43.588 -17.881   4.151  1.00  0.00     0.010 A 
HETATM   27  C   UNL     1      43.579 -18.305   5.505  1.00  0.00     0.152 A 
HETATM   28  N   UNL     1      43.911 -19.591   5.654  1.00  0.00    -0.187 NA
HETATM   29  N   UNL     1      44.129 -20.002   4.398  1.00  0.00    -0.289 N 
HETATM   30  H   UNL     1      44.394 -20.970   4.249  1.00  0.00     0.188 HD
HETATM   31  C   UNL     1      43.951 -19.022   3.464  1.00  0.00     0.123 A 
ENDBRANCH  22  26
ENDBRANCH   2  20
TORSDOF 6
ENDMDL
MODEL 9
REMARK VINA RESULT:      -7.9      2.257      3.178
REMARK  6 active torsions:
REMARK  status: ('A' for Active; 'I' for Inactive)
REMARK    1  A    between atoms: C_3  and  C_4 
REMARK       I    between atoms: C_4  and  N_5 
REMARK    2  A    between atoms: N_5  and  C_6 
REMARK    3  A    between atoms: C_6  and  C_7 
REMARK    4  A    between atoms: C_6  and  C_22 
REMARK       I    between atoms: C_7  and  N_8 
REMARK    5  A    between atoms: N_8  and  C_9 
REMARK    6  A    between atoms: C_11  and  C_12 
ROOT
HETATM    1  C   UNL     1      41.701 -14.368   3.056  1.00  0.00     0.245 C 
HETATM    2  N   UNL     1      40.476 -14.529   2.438  1.00  0.00    -0.325 N 
HETATM    3  O   UNL     1      42.639 -13.690   2.639  1.00  0.00    -0.271 OA
HETATM    4  H   UNL     1      39.882 -15.261   2.833  1.00  0.00     0.169 HD
ENDROOT
BRANCH   1   5
HETATM    5  C   UNL     1      41.822 -15.108   4.416  1.00  0.00     0.180 C 
BRANCH   5   6
HETATM    6  N   UNL     1      42.172 -16.519   4.229  1.00  0.00    -0.343 N 
HETATM    7  C   UNL     1      43.393 -17.064   4.553  1.00  0.00     0.252 C 
HETATM    8  O   UNL     1      44.291 -16.418   5.082  1.00  0.00    -0.268 OA
HETATM    9  H   UNL     1      41.561 -17.056   3.629  1.00  0.00     0.163 HD
BRANCH   7  10
HETATM   10  C   UNL     1      43.608 -18.486   4.163  1.00  0.00     0.037 A 
HETATM   11  C   UNL     1      43.681 -19.559   5.077  1.00  0.00    -0.046 A 
HETATM   12  C   UNL     1      43.615 -19.389   6.570  1.00  0.00     0.049 C 
HETATM   13  C   UNL     1      43.829 -20.863   4.569  1.00  0.00     0.007 A 
HETATM   14  C   UNL     1      43.954 -21.093   3.199  1.00  0.00     0.001 A 
HETATM   15  C   UNL     1      43.931 -20.026   2.308  1.00  0.00     0.001 A 
HETATM   16  C   UNL     1      43.758 -18.728   2.787  1.00  0.00     0.017 A 
ENDBRANCH   7  10
ENDBRANCH   5   6
BRANCH   5  17
HETATM   17  C   UNL     1      40.614 -14.880   5.359  1.00  0.00     0.009 C 
HETATM   18  C   UNL     1      40.658 -15.840   6.554  1.00  0.00     0.012 C 
HETATM   19  C   UNL     1      40.573 -13.438   5.881  1.00  0.00     0.012 C 
ENDBRANCH   5  17
ENDBRANCH   1   5
BRANCH   2  20
HETATM   20  C   UNL     1      39.966 -13.847   1.317  1.00  0.00     0.035 A 
HETATM   21  C   UNL     1      39.213 -12.670   1.391  1.00  0.00     0.042 A 
HETATM   22  C   UNL     1      38.702 -12.053   0.234  1.00  0.00    -0.021 A 
HETATM   23  C   UNL     1      38.946 -12.660  -1.005  1.00  0.00     0.012 A 
HETATM   24  C   UNL     1      39.697 -13.834  -1.091  1.00  0.00     0.003 A 
HETATM   25  C   UNL     1      40.212 -14.416   0.066  1.00  0.00     0.029 A 
BRANCH  22  26
HETATM   26  C   UNL     1      37.945 -10.810   0.341  1.00  0.00     0.010 A 
HETATM   27  C   UNL     1      37.699  -9.966   1.455  1.00  0.00     0.152 A 
HETATM   28  N   UNL     1      36.964  -8.892   1.148  1.00  0.00    -0.187 NA
HETATM   29  N   UNL     1      36.739  -9.037  -0.165  1.00  0.00    -0.289 N 
HETATM   30  H   UNL     1      36.195  -8.324  -0.640  1.00  0.00     0.188 HD
HETATM   31  C   UNL     1      37.301 -10.162  -0.695  1.00  0.00     0.123 A 
ENDBRANCH  22  26
ENDBRANCH   2  20
TORSDOF 6
ENDMDL
MODEL 10
REMARK VINA RESULT:      -7.8      3.406      6.320
REMARK  6 active torsions:
REMARK  status: ('A' for Active; 'I' for Inactive)
REMARK    1  A    between atoms: C_3  and  C_4 
REMARK       I    between atoms: C_4  and  N_5 
REMARK    2  A    between atoms: N_5  and  C_6 
REMARK    3  A    between atoms: C_6  and  C_7 
REMARK    4  A    between atoms: C_6  and  C_22 
REMARK       I    between atoms: C_7  and  N_8 
REMARK    5  A    between atoms: N_8  and  C_9 
REMARK    6  A    between atoms: C_11  and  C_12 
ROOT
HETATM    1  C   UNL     1      41.860 -13.204   3.143  1.00  0.00     0.245 C 
HETATM    2  N   UNL     1      41.035 -12.491   3.991  1.00  0.00    -0.325 N 
HETATM    3  O   UNL     1      43.029 -12.933   2.873  1.00  0.00    -0.271 OA
HETATM    4  H   UNL     1      40.048 -12.758   3.964  1.00  0.00     0.169 HD
ENDROOT
BRANCH   1   5
HETATM    5  C   UNL     1      41.199 -14.474   2.542  1.00  0.00     0.180 C 
BRANCH   5   6
HETATM    6  N   UNL     1      41.822 -15.697   3.056  1.00  0.00    -0.343 N 
HETATM    7  C   UNL     1      42.939 -16.285   2.510  1.00  0.00     0.252 C 
HETATM    8  O   UNL     1      43.551 -15.803   1.564  1.00  0.00    -0.268 OA
HETATM    9  H   UNL     1      41.268 -16.245   3.700  1.00  0.00     0.163 HD
BRANCH   7  10
HETATM   10  C   UNL     1      43.346 -17.599   3.086  1.00  0.00     0.037 A 
HETATM   11  C   UNL     1      43.874 -17.769   4.384  1.00  0.00    -0.046 A 
HETATM   12  C   UNL     1      44.154 -16.631   5.327  1.00  0.00     0.049 C 
HETATM   13  C   UNL     1      44.161 -19.075   4.824  1.00  0.00     0.007 A 
HETATM   14  C   UNL     1      43.979 -20.175   3.985  1.00  0.00     0.001 A 
HETATM   15  C   UNL     1      43.505 -19.993   2.690  1.00  0.00     0.001 A 
HETATM   16  C   UNL     1      43.189 -18.712   2.243  1.00  0.00     0.017 A 
ENDBRANCH   7  10
ENDBRANCH   5   6
BRANCH   5  17
HETATM   17  C   UNL     1      41.068 -14.437   0.998  1.00  0.00     0.009 C 
HETATM   18  C   UNL     1      39.961 -15.382   0.515  1.00  0.00     0.012 C 
HETATM   19  C   UNL     1      40.767 -13.019   0.494  1.00  0.00     0.012 C 
ENDBRANCH   5  17
ENDBRANCH   1   5
BRANCH   2  20
HETATM   20  C   UNL     1      41.371 -11.426   4.847  1.00  0.00     0.035 A 
HETATM   21  C   UNL     1      42.344 -11.502   5.850  1.00  0.00     0.042 A 
HETATM   22  C   UNL     1      42.611 -10.410   6.696  1.00  0.00    -0.021 A 
HETATM   23  C   UNL     1      41.858  -9.240   6.529  1.00  0.00     0.012 A 
HETATM   24  C   UNL     1      40.886  -9.152   5.532  1.00  0.00     0.003 A 
HETATM   25  C   UNL     1      40.653 -10.238   4.689  1.00  0.00     0.029 A 
BRANCH  22  26
HETATM   26  C   UNL     1      43.653 -10.510   7.714  1.00  0.00     0.010 A 
HETATM   27  C   UNL     1      44.992 -10.973   7.628  1.00  0.00     0.152 A 
HETATM   28  N   UNL     1      45.650 -10.892   8.789  1.00  0.00    -0.187 NA
HETATM   29  N   UNL     1      44.741 -10.372   9.625  1.00  0.00    -0.289 N 
HETATM   30  H   UNL     1      45.013 -10.206  10.588  1.00  0.00     0.188 HD
HETATM   31  C   UNL     1      43.535 -10.126   9.034  1.00  0.00     0.123 A 
ENDBRANCH  22  26
ENDBRANCH   2  20
TORSDOF 6
ENDMDL
