MODEL 1
REMARK VINA RESULT:      -8.1      0.000      0.000
REMARK  8 active torsions:
REMARK  status: ('A' for Active; 'I' for Inactive)
REMARK       I    between atoms: C_2  and  N_3 
REMARK    1  A    between atoms: N_3  and  C_4 
REMARK    2  A    between atoms: C_6  and  N_7 
REMARK    3  A    between atoms: N_7  and  C_8 
REMARK    4  A    between atoms: C_8  and  C_9 
REMARK       I    between atoms: C_9  and  N_10 
REMARK    5  A    between atoms: N_10  and  C_11 
REMARK    6  A    between atoms: C_12  and  C_13 
REMARK       I    between atoms: C_13  and  N_14 
REMARK    7  A    between atoms: N_14  and  C_15 
REMARK    8  A    between atoms: C_24  and  O_25 
ROOT
HETATM    1  C   UNL     1      42.318 -16.473   5.826  1.00  0.00     0.235 C 
HETATM    2  N   UNL     1      43.463 -17.102   5.357  1.00  0.00    -0.325 N 
HETATM    3  O   UNL     1      41.170 -16.674   5.447  1.00  0.00    -0.272 OA
HETATM    4  H   UNL     1      44.290 -16.986   5.930  1.00  0.00     0.169 HD
ENDROOT
BRANCH   1   5
HETATM    5  C   UNL     1      42.615 -15.525   7.002  1.00  0.00     0.195 C 
BRANCH   5   6
HETATM    6  N   UNL     1      42.120 -14.163   6.792  1.00  0.00    -0.282 NA
HETATM    7  H   UNL     1      41.116 -14.180   6.582  1.00  0.00     0.128 HD
BRANCH   6   8
HETATM    8  C   UNL     1      42.749 -13.302   5.877  1.00  0.00     0.044 A 
HETATM    9  C   UNL     1      42.334 -13.182   4.540  1.00  0.00     0.055 A 
HETATM   10  C   UNL     1      42.876 -12.224   3.674  1.00  0.00     0.036 A 
HETATM   11  C   UNL     1      43.897 -11.392   4.137  1.00  0.00     0.032 A 
HETATM   12  C   UNL     1      44.330 -11.486   5.458  1.00  0.00     0.041 A 
HETATM   13  C   UNL     1      43.768 -12.433   6.318  1.00  0.00     0.089 A 
BRANCH  10  14
HETATM   14  N   UNL     1      42.420 -12.021   2.353  1.00  0.00    -0.327 N 
HETATM   15  C   UNL     1      41.319 -11.281   1.956  1.00  0.00     0.218 C 
HETATM   16  C   UNL     1      41.170 -11.210   0.457  1.00  0.00     0.117 C 
HETATM   17  O   UNL     1      40.544 -10.669   2.687  1.00  0.00    -0.274 OA
HETATM   18  H   UNL     1      43.042 -12.343   1.621  1.00  0.00     0.169 HD
ENDBRANCH  10  14
BRANCH  13  19
HETATM   19  O   UNL     1      44.251 -12.404   7.605  1.00  0.00    -0.354 OA
HETATM   20  C   UNL     1      44.189 -11.106   8.197  1.00  0.00     0.210 C 
ENDBRANCH  13  19
ENDBRANCH   6   8
ENDBRANCH   5   6
ENDBRANCH   1   5
BRANCH   2  21
HETATM   21  C   UNL     1      43.553 -18.123   4.382  1.00  0.00     0.050 A 
HETATM   22  C   UNL     1      43.171 -18.065   3.034  1.00  0.00     0.058 A 
HETATM   23  C   UNL     1      43.226 -19.236   2.245  1.00  0.00     0.019 A 
HETATM   24  C   UNL     1      43.692 -20.441   2.766  1.00  0.00     0.001 A 
HETATM   25  C   UNL     1      44.127 -20.489   4.082  1.00  0.00     0.002 A 
HETATM   26  C   UNL     1      44.065 -19.342   4.876  1.00  0.00     0.030 A 
BRANCH  22  27
HETATM   27  C   UNL     1      42.823 -16.849   2.260  1.00  0.00     0.254 C 
HETATM   28  N   UNL     1      41.493 -16.465   2.277  1.00  0.00    -0.352 N 
HETATM   29  H   UNL     1      40.806 -17.050   2.749  1.00  0.00     0.163 HD
HETATM   30  O   UNL     1      43.729 -16.167   1.784  1.00  0.00    -0.268 OA
BRANCH  28  31
HETATM   31  C   UNL     1      41.089 -15.213   1.714  1.00  0.00     0.084 A 
HETATM   32  C   UNL     1      40.024 -15.164   0.655  1.00  0.00     0.027 A 
HETATM   33  C   UNL     1      39.754 -14.595   2.017  1.00  0.00     0.027 A 
ENDBRANCH  28  31
ENDBRANCH  22  27
ENDBRANCH   2  21
TORSDOF 8
ENDMDL
MODEL 2
REMARK VINA RESULT:      -7.9      1.782      4.438
REMARK  8 active torsions:
REMARK  status: ('A' for Active; 'I' for Inactive)
REMARK       I    between atoms: C_2  and  N_3 
REMARK    1  A    between atoms: N_3  and  C_4 
REMARK    2  A    between atoms: C_6  and  N_7 
REMARK    3  A    between atoms: N_7  and  C_8 
REMARK    4  A    between atoms: C_8  and  C_9 
REMARK       I    between atoms: C_9  and  N_10 
REMARK    5  A    between atoms: N_10  and  C_11 
REMARK    6  A    between atoms: C_12  and  C_13 
REMARK       I    between atoms: C_13  and  N_14 
REMARK    7  A    between atoms: N_14  and  C_15 
REMARK    8  A    between atoms: C_24  and  O_25 
ROOT
HETATM    1  C   UNL     1      42.812 -16.737   2.298  1.00  0.00     0.235 C 
HETATM    2  N   UNL     1      43.854 -17.548   2.723  1.00  0.00    -0.325 N 
HETATM    3  O   UNL     1      41.631 -16.848   2.607  1.00  0.00    -0.272 OA
HETATM    4  H   UNL     1      44.785 -17.183   2.560  1.00  0.00     0.169 HD
ENDROOT
BRANCH   1   5
HETATM    5  C   UNL     1      43.305 -15.554   1.445  1.00  0.00     0.195 C 
BRANCH   5   6
HETATM    6  N   UNL     1      42.319 -14.479   1.314  1.00  0.00    -0.282 NA
HETATM    7  H   UNL     1      42.454 -13.980   0.429  1.00  0.00     0.128 HD
BRANCH   6   8
HETATM    8  C   UNL     1      42.151 -13.529   2.337  1.00  0.00     0.044 A 
HETATM    9  C   UNL     1      43.213 -13.088   3.144  1.00  0.00     0.055 A 
HETATM   10  C   UNL     1      43.065 -12.044   4.065  1.00  0.00     0.036 A 
HETATM   11  C   UNL     1      41.811 -11.452   4.224  1.00  0.00     0.032 A 
HETATM   12  C   UNL     1      40.738 -11.868   3.438  1.00  0.00     0.041 A 
HETATM   13  C   UNL     1      40.902 -12.897   2.508  1.00  0.00     0.089 A 
BRANCH  10  14
HETATM   14  N   UNL     1      44.133 -11.521   4.828  1.00  0.00    -0.327 N 
HETATM   15  C   UNL     1      44.509 -11.901   6.105  1.00  0.00     0.218 C 
HETATM   16  C   UNL     1      45.748 -11.189   6.588  1.00  0.00     0.117 C 
HETATM   17  O   UNL     1      43.977 -12.763   6.801  1.00  0.00    -0.274 OA
HETATM   18  H   UNL     1      44.761 -10.901   4.331  1.00  0.00     0.169 HD
ENDBRANCH  10  14
BRANCH  13  19
HETATM   19  O   UNL     1      39.782 -13.191   1.767  1.00  0.00    -0.354 OA
HETATM   20  C   UNL     1      39.538 -12.248   0.724  1.00  0.00     0.210 C 
ENDBRANCH  13  19
ENDBRANCH   6   8
ENDBRANCH   5   6
ENDBRANCH   1   5
BRANCH   2  21
HETATM   21  C   UNL     1      43.792 -18.640   3.619  1.00  0.00     0.050 A 
HETATM   22  C   UNL     1      43.684 -18.603   5.017  1.00  0.00     0.058 A 
HETATM   23  C   UNL     1      43.759 -19.808   5.752  1.00  0.00     0.019 A 
HETATM   24  C   UNL     1      43.897 -21.039   5.115  1.00  0.00     0.001 A 
HETATM   25  C   UNL     1      43.943 -21.087   3.730  1.00  0.00     0.002 A 
HETATM   26  C   UNL     1      43.883 -19.902   2.993  1.00  0.00     0.030 A 
BRANCH  22  27
HETATM   27  C   UNL     1      43.357 -17.423   5.853  1.00  0.00     0.254 C 
HETATM   28  N   UNL     1      42.077 -16.912   5.727  1.00  0.00    -0.352 N 
HETATM   29  H   UNL     1      41.443 -17.308   5.035  1.00  0.00     0.163 HD
HETATM   30  O   UNL     1      44.160 -17.061   6.712  1.00  0.00    -0.268 OA
BRANCH  28  31
HETATM   31  C   UNL     1      41.608 -15.894   6.616  1.00  0.00     0.084 A 
HETATM   32  C   UNL     1      41.094 -14.589   6.075  1.00  0.00     0.027 A 
HETATM   33  C   UNL     1      40.151 -15.549   6.738  1.00  0.00     0.027 A 
ENDBRANCH  28  31
ENDBRANCH  22  27
ENDBRANCH   2  21
TORSDOF 8
ENDMDL
MODEL 3
REMARK VINA RESULT:      -7.8      2.475      4.736
REMARK  8 active torsions:
REMARK  status: ('A' for Active; 'I' for Inactive)
REMARK       I    between atoms: C_2  and  N_3 
REMARK    1  A    between atoms: N_3  and  C_4 
REMARK    2  A    between atoms: C_6  and  N_7 
REMARK    3  A    between atoms: N_7  and  C_8 
REMARK    4  A    between atoms: C_8  and  C_9 
REMARK       I    between atoms: C_9  and  N_10 
REMARK    5  A    between atoms: N_10  and  C_11 
REMARK    6  A    between atoms: C_12  and  C_13 
REMARK       I    between atoms: C_13  and  N_14 
REMARK    7  A    between atoms: N_14  and  C_15 
REMARK    8  A    between atoms: C_24  and  O_25 
ROOT
HETATM    1  C   UNL     1      42.473 -16.585   2.405  1.00  0.00     0.235 C 
HETATM    2  N   UNL     1      43.565 -17.411   2.634  1.00  0.00    -0.325 N 
HETATM    3  O   UNL     1      41.358 -16.699   2.900  1.00  0.00    -0.272 OA
HETATM    4  H   UNL     1      44.459 -17.046   2.330  1.00  0.00     0.169 HD
ENDROOT
BRANCH   1   5
HETATM    5  C   UNL     1      42.830 -15.384   1.510  1.00  0.00     0.195 C 
BRANCH   5   6
HETATM    6  N   UNL     1      42.288 -14.114   1.997  1.00  0.00    -0.282 NA
HETATM    7  H   UNL     1      41.993 -14.206   2.975  1.00  0.00     0.128 HD
BRANCH   6   8
HETATM    8  C   UNL     1      41.273 -13.446   1.290  1.00  0.00     0.044 A 
HETATM    9  C   UNL     1      40.596 -14.028   0.204  1.00  0.00     0.055 A 
HETATM   10  C   UNL     1      39.496 -13.412  -0.404  1.00  0.00     0.036 A 
HETATM   11  C   UNL     1      39.085 -12.157   0.048  1.00  0.00     0.032 A 
HETATM   12  C   UNL     1      39.735 -11.555   1.123  1.00  0.00     0.041 A 
HETATM   13  C   UNL     1      40.820 -12.187   1.735  1.00  0.00     0.089 A 
BRANCH  10  14
HETATM   14  N   UNL     1      38.743 -14.010  -1.439  1.00  0.00    -0.327 N 
HETATM   15  C   UNL     1      39.080 -14.082  -2.780  1.00  0.00     0.218 C 
HETATM   16  C   UNL     1      38.080 -14.865  -3.594  1.00  0.00     0.117 C 
HETATM   17  O   UNL     1      40.098 -13.638  -3.306  1.00  0.00    -0.274 OA
HETATM   18  H   UNL     1      37.942 -14.552  -1.139  1.00  0.00     0.169 HD
ENDBRANCH  10  14
BRANCH  13  19
HETATM   19  O   UNL     1      41.353 -11.512   2.807  1.00  0.00    -0.354 OA
HETATM   20  C   UNL     1      41.222 -10.095   2.698  1.00  0.00     0.210 C 
ENDBRANCH  13  19
ENDBRANCH   6   8
ENDBRANCH   5   6
ENDBRANCH   1   5
BRANCH   2  21
HETATM   21  C   UNL     1      43.641 -18.524   3.503  1.00  0.00     0.050 A 
HETATM   22  C   UNL     1      43.671 -18.523   4.905  1.00  0.00     0.058 A 
HETATM   23  C   UNL     1      43.873 -19.738   5.596  1.00  0.00     0.019 A 
HETATM   24  C   UNL     1      44.003 -20.947   4.917  1.00  0.00     0.001 A 
HETATM   25  C   UNL     1      43.914 -20.962   3.533  1.00  0.00     0.002 A 
HETATM   26  C   UNL     1      43.728 -19.765   2.837  1.00  0.00     0.030 A 
BRANCH  22  27
HETATM   27  C   UNL     1      43.375 -17.379   5.800  1.00  0.00     0.254 C 
HETATM   28  N   UNL     1      42.060 -16.945   5.835  1.00  0.00    -0.352 N 
HETATM   29  H   UNL     1      41.374 -17.368   5.212  1.00  0.00     0.163 HD
HETATM   30  O   UNL     1      44.250 -16.982   6.568  1.00  0.00    -0.268 OA
BRANCH  28  31
HETATM   31  C   UNL     1      41.640 -15.972   6.795  1.00  0.00     0.084 A 
HETATM   32  C   UNL     1      41.503 -14.527   6.405  1.00  0.00     0.027 A 
HETATM   33  C   UNL     1      40.283 -15.331   6.741  1.00  0.00     0.027 A 
ENDBRANCH  28  31
ENDBRANCH  22  27
ENDBRANCH   2  21
TORSDOF 8
ENDMDL
MODEL 4
REMARK VINA RESULT:      -7.7      1.142      1.147
REMARK  8 active torsions:
REMARK  status: ('A' for Active; 'I' for Inactive)
REMARK       I    between atoms: C_2  and  N_3 
REMARK    1  A    between atoms: N_3  and  C_4 
REMARK    2  A    between atoms: C_6  and  N_7 
REMARK    3  A    between atoms: N_7  and  C_8 
REMARK    4  A    between atoms: C_8  and  C_9 
REMARK       I    between atoms: C_9  and  N_10 
REMARK    5  A    between atoms: N_10  and  C_11 
REMARK    6  A    between atoms: C_12  and  C_13 
REMARK       I    between atoms: C_13  and  N_14 
REMARK    7  A    between atoms: N_14  and  C_15 
REMARK    8  A    between atoms: C_24  and  O_25 
ROOT
HETATM    1  C   UNL     1      42.865 -16.475   5.830  1.00  0.00     0.235 C 
HETATM    2  N   UNL     1      43.892 -17.146   5.182  1.00  0.00    -0.325 N 
HETATM    3  O   UNL     1      41.663 -16.632   5.646  1.00  0.00    -0.272 OA
HETATM    4  H   UNL     1      44.806 -17.063   5.611  1.00  0.00     0.169 HD
ENDROOT
BRANCH   1   5
HETATM    5  C   UNL     1      43.386 -15.541   6.938  1.00  0.00     0.195 C 
BRANCH   5   6
HETATM    6  N   UNL     1      42.568 -14.340   7.119  1.00  0.00    -0.282 NA
HETATM    7  H   UNL     1      41.582 -14.597   7.235  1.00  0.00     0.128 HD
BRANCH   6   8
HETATM    8  C   UNL     1      42.644 -13.273   6.207  1.00  0.00     0.044 A 
HETATM    9  C   UNL     1      41.668 -13.047   5.222  1.00  0.00     0.055 A 
HETATM   10  C   UNL     1      41.680 -11.907   4.410  1.00  0.00     0.036 A 
HETATM   11  C   UNL     1      42.720 -10.987   4.547  1.00  0.00     0.032 A 
HETATM   12  C   UNL     1      43.703 -11.183   5.515  1.00  0.00     0.041 A 
HETATM   13  C   UNL     1      43.670 -12.315   6.333  1.00  0.00     0.089 A 
BRANCH  10  14
HETATM   14  N   UNL     1      40.666 -11.609   3.472  1.00  0.00    -0.327 N 
HETATM   15  C   UNL     1      39.406 -11.101   3.740  1.00  0.00     0.218 C 
HETATM   16  C   UNL     1      38.607 -10.826   2.491  1.00  0.00     0.117 C 
HETATM   17  O   UNL     1      38.948 -10.819   4.845  1.00  0.00    -0.274 OA
HETATM   18  H   UNL     1      40.945 -11.649   2.499  1.00  0.00     0.169 HD
ENDBRANCH  10  14
BRANCH  13  19
HETATM   19  O   UNL     1      44.671 -12.377   7.273  1.00  0.00    -0.354 OA
HETATM   20  C   UNL     1      44.996 -11.104   7.831  1.00  0.00     0.210 C 
ENDBRANCH  13  19
ENDBRANCH   6   8
ENDBRANCH   5   6
ENDBRANCH   1   5
BRANCH   2  21
HETATM   21  C   UNL     1      43.782 -18.168   4.211  1.00  0.00     0.050 A 
HETATM   22  C   UNL     1      43.198 -18.090   2.938  1.00  0.00     0.058 A 
HETATM   23  C   UNL     1      43.076 -19.260   2.157  1.00  0.00     0.019 A 
HETATM   24  C   UNL     1      43.562 -20.486   2.605  1.00  0.00     0.001 A 
HETATM   25  C   UNL     1      44.194 -20.558   3.837  1.00  0.00     0.002 A 
HETATM   26  C   UNL     1      44.309 -19.410   4.625  1.00  0.00     0.030 A 
BRANCH  22  27
HETATM   27  C   UNL     1      42.790 -16.858   2.221  1.00  0.00     0.254 C 
HETATM   28  N   UNL     1      41.494 -16.419   2.434  1.00  0.00    -0.352 N 
HETATM   29  H   UNL     1      40.861 -16.977   3.005  1.00  0.00     0.163 HD
HETATM   30  O   UNL     1      43.643 -16.211   1.615  1.00  0.00    -0.268 OA
BRANCH  28  31
HETATM   31  C   UNL     1      41.063 -15.149   1.935  1.00  0.00     0.084 A 
HETATM   32  C   UNL     1      40.096 -15.072   0.787  1.00  0.00     0.027 A 
HETATM   33  C   UNL     1      39.670 -14.635   2.157  1.00  0.00     0.027 A 
ENDBRANCH  28  31
ENDBRANCH  22  27
ENDBRANCH   2  21
TORSDOF 8
ENDMDL
MODEL 5
REMARK VINA RESULT:      -7.6      1.615      3.729
REMARK  8 active torsions:
REMARK  status: ('A' for Active; 'I' for Inactive)
REMARK       I    between atoms: C_2  and  N_3 
REMARK    1  A    between atoms: N_3  and  C_4 
REMARK    2  A    between atoms: C_6  and  N_7 
REMARK    3  A    between atoms: N_7  and  C_8 
REMARK    4  A    between atoms: C_8  and  C_9 
REMARK       I    between atoms: C_9  and  N_10 
REMARK    5  A    between atoms: N_10  and  C_11 
REMARK    6  A    between atoms: C_12  and  C_13 
REMARK       I    between atoms: C_13  and  N_14 
REMARK    7  A    between atoms: N_14  and  C_15 
REMARK    8  A    between atoms: C_24  and  O_25 
ROOT
HETATM    1  C   UNL     1      42.725 -16.445   5.713  1.00  0.00     0.235 C 
HETATM    2  N   UNL     1      43.778 -17.118   5.107  1.00  0.00    -0.325 N 
HETATM    3  O   UNL     1      41.532 -16.605   5.483  1.00  0.00    -0.272 OA
HETATM    4  H   UNL     1      44.674 -17.032   5.571  1.00  0.00     0.169 HD
ENDROOT
BRANCH   1   5
HETATM    5  C   UNL     1      43.203 -15.507   6.836  1.00  0.00     0.195 C 
BRANCH   5   6
HETATM    6  N   UNL     1      44.056 -14.416   6.360  1.00  0.00    -0.282 NA
HETATM    7  H   UNL     1      44.984 -14.478   6.794  1.00  0.00     0.128 HD
BRANCH   6   8
HETATM    8  C   UNL     1      43.623 -13.081   6.429  1.00  0.00     0.044 A 
HETATM    9  C   UNL     1      43.619 -12.346   7.626  1.00  0.00     0.055 A 
HETATM   10  C   UNL     1      43.317 -10.979   7.659  1.00  0.00     0.036 A 
HETATM   11  C   UNL     1      42.962 -10.333   6.474  1.00  0.00     0.032 A 
HETATM   12  C   UNL     1      42.958 -11.035   5.271  1.00  0.00     0.041 A 
HETATM   13  C   UNL     1      43.279 -12.395   5.246  1.00  0.00     0.089 A 
BRANCH  10  14
HETATM   14  N   UNL     1      43.389 -10.194   8.832  1.00  0.00    -0.327 N 
HETATM   15  C   UNL     1      44.442 -10.131   9.729  1.00  0.00     0.218 C 
HETATM   16  C   UNL     1      44.214  -9.125  10.830  1.00  0.00     0.117 C 
HETATM   17  O   UNL     1      45.503 -10.747   9.660  1.00  0.00    -0.274 OA
HETATM   18  H   UNL     1      42.646  -9.515   8.950  1.00  0.00     0.169 HD
ENDBRANCH  10  14
BRANCH  13  19
HETATM   19  O   UNL     1      43.276 -12.967   3.997  1.00  0.00    -0.354 OA
HETATM   20  C   UNL     1      43.014 -12.030   2.952  1.00  0.00     0.210 C 
ENDBRANCH  13  19
ENDBRANCH   6   8
ENDBRANCH   5   6
ENDBRANCH   1   5
BRANCH   2  21
HETATM   21  C   UNL     1      43.706 -18.144   4.137  1.00  0.00     0.050 A 
HETATM   22  C   UNL     1      43.189 -18.065   2.835  1.00  0.00     0.058 A 
HETATM   23  C   UNL     1      43.095 -19.238   2.054  1.00  0.00     0.019 A 
HETATM   24  C   UNL     1      43.543 -20.468   2.532  1.00  0.00     0.001 A 
HETATM   25  C   UNL     1      44.111 -20.539   3.795  1.00  0.00     0.002 A 
HETATM   26  C   UNL     1      44.198 -19.389   4.583  1.00  0.00     0.030 A 
BRANCH  22  27
HETATM   27  C   UNL     1      42.832 -16.833   2.093  1.00  0.00     0.254 C 
HETATM   28  N   UNL     1      41.547 -16.351   2.277  1.00  0.00    -0.352 N 
HETATM   29  H   UNL     1      40.888 -16.880   2.845  1.00  0.00     0.163 HD
HETATM   30  O   UNL     1      43.715 -16.223   1.491  1.00  0.00    -0.268 OA
BRANCH  28  31
HETATM   31  C   UNL     1      41.165 -15.076   1.751  1.00  0.00     0.084 A 
HETATM   32  C   UNL     1      40.130 -14.981   0.665  1.00  0.00     0.027 A 
HETATM   33  C   UNL     1      39.825 -14.463   2.039  1.00  0.00     0.027 A 
ENDBRANCH  28  31
ENDBRANCH  22  27
ENDBRANCH   2  21
TORSDOF 8
ENDMDL
MODEL 6
REMARK VINA RESULT:      -7.4      2.344      2.646
REMARK  8 active torsions:
REMARK  status: ('A' for Active; 'I' for Inactive)
REMARK       I    between atoms: C_2  and  N_3 
REMARK    1  A    between atoms: N_3  and  C_4 
REMARK    2  A    between atoms: C_6  and  N_7 
REMARK    3  A    between atoms: N_7  and  C_8 
REMARK    4  A    between atoms: C_8  and  C_9 
REMARK       I    between atoms: C_9  and  N_10 
REMARK    5  A    between atoms: N_10  and  C_11 
REMARK    6  A    between atoms: C_12  and  C_13 
REMARK       I    between atoms: C_13  and  N_14 
REMARK    7  A    between atoms: N_14  and  C_15 
REMARK    8  A    between atoms: C_24  and  O_25 
ROOT
HETATM    1  C   UNL     1      41.540 -15.250   5.324  1.00  0.00     0.235 C 
HETATM    2  N   UNL     1      42.830 -15.741   5.174  1.00  0.00    -0.325 N 
HETATM    3  O   UNL     1      40.524 -15.705   4.811  1.00  0.00    -0.272 OA
HETATM    4  H   UNL     1      43.508 -15.393   5.840  1.00  0.00     0.169 HD
ENDROOT
BRANCH   1   5
HETATM    5  C   UNL     1      41.473 -14.086   6.330  1.00  0.00     0.195 C 
BRANCH   5   6
HETATM    6  N   UNL     1      40.159 -13.441   6.386  1.00  0.00    -0.282 NA
HETATM    7  H   UNL     1      39.426 -14.106   6.117  1.00  0.00     0.128 HD
BRANCH   6   8
HETATM    8  C   UNL     1      39.925 -12.227   5.718  1.00  0.00     0.044 A 
HETATM    9  C   UNL     1      40.291 -12.017   4.377  1.00  0.00     0.055 A 
HETATM   10  C   UNL     1      39.931 -10.858   3.680  1.00  0.00     0.036 A 
HETATM   11  C   UNL     1      39.226  -9.855   4.347  1.00  0.00     0.032 A 
HETATM   12  C   UNL     1      38.847 -10.035   5.676  1.00  0.00     0.041 A 
HETATM   13  C   UNL     1      39.196 -11.204   6.357  1.00  0.00     0.089 A 
BRANCH  10  14
HETATM   14  N   UNL     1      40.209 -10.656   2.309  1.00  0.00    -0.327 N 
HETATM   15  C   UNL     1      41.455 -10.645   1.705  1.00  0.00     0.218 C 
HETATM   16  C   UNL     1      41.379 -10.481   0.208  1.00  0.00     0.117 C 
HETATM   17  O   UNL     1      42.540 -10.812   2.257  1.00  0.00    -0.274 OA
HETATM   18  H   UNL     1      39.403 -10.651   1.696  1.00  0.00     0.169 HD
ENDBRANCH  10  14
BRANCH  13  19
HETATM   19  O   UNL     1      38.734 -11.279   7.649  1.00  0.00    -0.354 OA
HETATM   20  C   UNL     1      39.147 -10.178   8.457  1.00  0.00     0.210 C 
ENDBRANCH  13  19
ENDBRANCH   6   8
ENDBRANCH   5   6
ENDBRANCH   1   5
BRANCH   2  21
HETATM   21  C   UNL     1      43.244 -16.876   4.440  1.00  0.00     0.050 A 
HETATM   22  C   UNL     1      43.161 -17.087   3.056  1.00  0.00     0.058 A 
HETATM   23  C   UNL     1      43.519 -18.345   2.522  1.00  0.00     0.019 A 
HETATM   24  C   UNL     1      43.994 -19.371   3.336  1.00  0.00     0.001 A 
HETATM   25  C   UNL     1      44.136 -19.148   4.697  1.00  0.00     0.002 A 
HETATM   26  C   UNL     1      43.773 -17.912   5.239  1.00  0.00     0.030 A 
BRANCH  22  27
HETATM   27  C   UNL     1      42.853 -16.073   2.019  1.00  0.00     0.254 C 
HETATM   28  N   UNL     1      41.513 -15.830   1.770  1.00  0.00    -0.352 N 
HETATM   29  H   UNL     1      40.804 -16.387   2.244  1.00  0.00     0.163 HD
HETATM   30  O   UNL     1      43.772 -15.399   1.555  1.00  0.00    -0.268 OA
BRANCH  28  31
HETATM   31  C   UNL     1      41.114 -14.748   0.923  1.00  0.00     0.084 A 
HETATM   32  C   UNL     1      39.931 -14.895   0.008  1.00  0.00     0.027 A 
HETATM   33  C   UNL     1      39.863 -13.956   1.176  1.00  0.00     0.027 A 
ENDBRANCH  28  31
ENDBRANCH  22  27
ENDBRANCH   2  21
TORSDOF 8
ENDMDL
MODEL 7
REMARK VINA RESULT:      -7.2      2.964      6.340
REMARK  8 active torsions:
REMARK  status: ('A' for Active; 'I' for Inactive)
REMARK       I    between atoms: C_2  and  N_3 
REMARK    1  A    between atoms: N_3  and  C_4 
REMARK    2  A    between atoms: C_6  and  N_7 
REMARK    3  A    between atoms: N_7  and  C_8 
REMARK    4  A    between atoms: C_8  and  C_9 
REMARK       I    between atoms: C_9  and  N_10 
REMARK    5  A    between atoms: N_10  and  C_11 
REMARK    6  A    between atoms: C_12  and  C_13 
REMARK       I    between atoms: C_13  and  N_14 
REMARK    7  A    between atoms: N_14  and  C_15 
REMARK    8  A    between atoms: C_24  and  O_25 
ROOT
HETATM    1  C   UNL     1      40.487 -15.171   1.422  1.00  0.00     0.235 C 
HETATM    2  N   UNL     1      41.817 -15.156   1.817  1.00  0.00    -0.325 N 
HETATM    3  O   UNL     1      39.652 -16.021   1.710  1.00  0.00    -0.272 OA
HETATM    4  H   UNL     1      42.301 -14.276   1.686  1.00  0.00     0.169 HD
ENDROOT
BRANCH   1   5
HETATM    5  C   UNL     1      40.098 -13.905   0.636  1.00  0.00     0.195 C 
BRANCH   5   6
HETATM    6  N   UNL     1      41.124 -13.472  -0.315  1.00  0.00    -0.282 NA
HETATM    7  H   UNL     1      42.021 -13.344   0.166  1.00  0.00     0.128 HD
BRANCH   6   8
HETATM    8  C   UNL     1      40.908 -12.363  -1.151  1.00  0.00     0.044 A 
HETATM    9  C   UNL     1      41.094 -11.039  -0.718  1.00  0.00     0.055 A 
HETATM   10  C   UNL     1      41.010  -9.951  -1.594  1.00  0.00     0.036 A 
HETATM   11  C   UNL     1      40.683 -10.179  -2.932  1.00  0.00     0.032 A 
HETATM   12  C   UNL     1      40.493 -11.481  -3.391  1.00  0.00     0.041 A 
HETATM   13  C   UNL     1      40.598 -12.561  -2.512  1.00  0.00     0.089 A 
BRANCH  10  14
HETATM   14  N   UNL     1      41.278  -8.618  -1.208  1.00  0.00    -0.327 N 
HETATM   15  C   UNL     1      42.517  -8.004  -1.138  1.00  0.00     0.218 C 
HETATM   16  C   UNL     1      42.428  -6.545  -0.765  1.00  0.00     0.117 C 
HETATM   17  O   UNL     1      43.604  -8.513  -1.400  1.00  0.00    -0.274 OA
HETATM   18  H   UNL     1      40.465  -8.022  -1.102  1.00  0.00     0.169 HD
ENDBRANCH  10  14
BRANCH  13  19
HETATM   19  O   UNL     1      40.426 -13.796  -3.091  1.00  0.00    -0.354 OA
HETATM   20  C   UNL     1      39.064 -14.222  -3.108  1.00  0.00     0.210 C 
ENDBRANCH  13  19
ENDBRANCH   6   8
ENDBRANCH   5   6
ENDBRANCH   1   5
BRANCH   2  21
HETATM   21  C   UNL     1      42.482 -16.080   2.656  1.00  0.00     0.050 A 
HETATM   22  C   UNL     1      42.862 -15.911   3.996  1.00  0.00     0.058 A 
HETATM   23  C   UNL     1      43.631 -16.911   4.631  1.00  0.00     0.019 A 
HETATM   24  C   UNL     1      43.986 -18.084   3.969  1.00  0.00     0.001 A 
HETATM   25  C   UNL     1      43.562 -18.283   2.664  1.00  0.00     0.002 A 
HETATM   26  C   UNL     1      42.812 -17.296   2.020  1.00  0.00     0.030 A 
BRANCH  22  27
HETATM   27  C   UNL     1      42.433 -14.827   4.912  1.00  0.00     0.254 C 
HETATM   28  N   UNL     1      43.407 -14.296   5.741  1.00  0.00    -0.352 N 
HETATM   29  H   UNL     1      44.341 -14.701   5.743  1.00  0.00     0.163 HD
HETATM   30  O   UNL     1      41.305 -14.353   4.786  1.00  0.00    -0.268 OA
BRANCH  28  31
HETATM   31  C   UNL     1      43.138 -13.132   6.527  1.00  0.00     0.084 A 
HETATM   32  C   UNL     1      44.269 -12.312   7.083  1.00  0.00     0.027 A 
HETATM   33  C   UNL     1      43.388 -11.744   6.010  1.00  0.00     0.027 A 
ENDBRANCH  28  31
ENDBRANCH  22  27
ENDBRANCH   2  21
TORSDOF 8
ENDMDL
MODEL 8
REMARK VINA RESULT:      -7.1      2.592      4.965
REMARK  8 active torsions:
REMARK  status: ('A' for Active; 'I' for Inactive)
REMARK       I    between atoms: C_2  and  N_3 
REMARK    1  A    between atoms: N_3  and  C_4 
REMARK    2  A    between atoms: C_6  and  N_7 
REMARK    3  A    between atoms: N_7  and  C_8 
REMARK    4  A    between atoms: C_8  and  C_9 
REMARK       I    between atoms: C_9  and  N_10 
REMARK    5  A    between atoms: N_10  and  C_11 
REMARK    6  A    between atoms: C_12  and  C_13 
REMARK       I    between atoms: C_13  and  N_14 
REMARK    7  A    between atoms: N_14  and  C_15 
REMARK    8  A    between atoms: C_24  and  O_25 
ROOT
HETATM    1  C   UNL     1      40.403 -13.421   5.646  1.00  0.00     0.235 C 
HETATM    2  N   UNL     1      41.198 -13.483   4.510  1.00  0.00    -0.325 N 
HETATM    3  O   UNL     1      39.857 -14.366   6.203  1.00  0.00    -0.272 OA
HETATM    4  H   UNL     1      41.749 -12.655   4.319  1.00  0.00     0.169 HD
ENDROOT
BRANCH   1   5
HETATM    5  C   UNL     1      40.346 -12.003   6.241  1.00  0.00     0.195 C 
BRANCH   5   6
HETATM    6  N   UNL     1      41.372 -11.105   5.706  1.00  0.00    -0.282 NA
HETATM    7  H   UNL     1      41.647 -11.404   4.765  1.00  0.00     0.128 HD
BRANCH   6   8
HETATM    8  C   UNL     1      42.537 -10.825   6.441  1.00  0.00     0.044 A 
HETATM    9  C   UNL     1      42.534 -10.011   7.586  1.00  0.00     0.055 A 
HETATM   10  C   UNL     1      43.669  -9.850   8.389  1.00  0.00     0.036 A 
HETATM   11  C   UNL     1      44.859 -10.478   8.016  1.00  0.00     0.032 A 
HETATM   12  C   UNL     1      44.893 -11.292   6.886  1.00  0.00     0.041 A 
HETATM   13  C   UNL     1      43.749 -11.461   6.103  1.00  0.00     0.089 A 
BRANCH  10  14
HETATM   14  N   UNL     1      43.674  -9.109   9.592  1.00  0.00    -0.327 N 
HETATM   15  C   UNL     1      43.500  -9.603  10.874  1.00  0.00     0.218 C 
HETATM   16  C   UNL     1      43.645  -8.540  11.935  1.00  0.00     0.117 C 
HETATM   17  O   UNL     1      43.311 -10.774  11.191  1.00  0.00    -0.274 OA
HETATM   18  H   UNL     1      43.966  -8.143   9.509  1.00  0.00     0.169 HD
ENDBRANCH  10  14
BRANCH  13  19
HETATM   19  O   UNL     1      43.898 -12.316   5.037  1.00  0.00    -0.354 OA
HETATM   20  C   UNL     1      44.162 -11.640   3.809  1.00  0.00     0.210 C 
ENDBRANCH  13  19
ENDBRANCH   6   8
ENDBRANCH   5   6
ENDBRANCH   1   5
BRANCH   2  21
HETATM   21  C   UNL     1      41.580 -14.633   3.781  1.00  0.00     0.050 A 
HETATM   22  C   UNL     1      41.156 -15.024   2.503  1.00  0.00     0.058 A 
HETATM   23  C   UNL     1      41.560 -16.277   1.990  1.00  0.00     0.019 A 
HETATM   24  C   UNL     1      42.406 -17.118   2.710  1.00  0.00     0.001 A 
HETATM   25  C   UNL     1      42.877 -16.709   3.949  1.00  0.00     0.002 A 
HETATM   26  C   UNL     1      42.474 -15.478   4.473  1.00  0.00     0.030 A 
BRANCH  22  27
HETATM   27  C   UNL     1      40.410 -14.200   1.522  1.00  0.00     0.254 C 
HETATM   28  N   UNL     1      40.736 -14.380   0.188  1.00  0.00    -0.352 N 
HETATM   29  H   UNL     1      41.502 -15.003  -0.063  1.00  0.00     0.163 HD
HETATM   30  O   UNL     1      39.454 -13.532   1.911  1.00  0.00    -0.268 OA
BRANCH  28  31
HETATM   31  C   UNL     1      39.954 -13.769  -0.842  1.00  0.00     0.084 A 
HETATM   32  C   UNL     1      40.329 -13.944  -2.287  1.00  0.00     0.027 A 
HETATM   33  C   UNL     1      39.073 -14.570  -1.757  1.00  0.00     0.027 A 
ENDBRANCH  28  31
ENDBRANCH  22  27
ENDBRANCH   2  21
TORSDOF 8
ENDMDL
MODEL 9
REMARK VINA RESULT:      -7.1      2.637      7.719
REMARK  8 active torsions:
REMARK  status: ('A' for Active; 'I' for Inactive)
REMARK       I    between atoms: C_2  and  N_3 
REMARK    1  A    between atoms: N_3  and  C_4 
REMARK    2  A    between atoms: C_6  and  N_7 
REMARK    3  A    between atoms: N_7  and  C_8 
REMARK    4  A    between atoms: C_8  and  C_9 
REMARK       I    between atoms: C_9  and  N_10 
REMARK    5  A    between atoms: N_10  and  C_11 
REMARK    6  A    between atoms: C_12  and  C_13 
REMARK       I    between atoms: C_13  and  N_14 
REMARK    7  A    between atoms: N_14  and  C_15 
REMARK    8  A    between atoms: C_24  and  O_25 
ROOT
HETATM    1  C   UNL     1      43.297 -13.493   6.789  1.00  0.00     0.235 C 
HETATM    2  N   UNL     1      43.165 -12.162   7.161  1.00  0.00    -0.325 N 
HETATM    3  O   UNL     1      44.340 -14.135   6.743  1.00  0.00    -0.272 OA
HETATM    4  H   UNL     1      42.220 -11.858   7.363  1.00  0.00     0.169 HD
ENDROOT
BRANCH   1   5
HETATM    5  C   UNL     1      41.935 -14.163   6.527  1.00  0.00     0.195 C 
BRANCH   5   6
HETATM    6  N   UNL     1      41.463 -14.004   5.150  1.00  0.00    -0.282 NA
HETATM    7  H   UNL     1      40.482 -14.295   5.077  1.00  0.00     0.128 HD
BRANCH   6   8
HETATM    8  C   UNL     1      42.174 -14.566   4.077  1.00  0.00     0.044 A 
HETATM    9  C   UNL     1      42.295 -15.954   3.891  1.00  0.00     0.055 A 
HETATM   10  C   UNL     1      42.886 -16.503   2.746  1.00  0.00     0.036 A 
HETATM   11  C   UNL     1      43.417 -15.648   1.779  1.00  0.00     0.032 A 
HETATM   12  C   UNL     1      43.312 -14.267   1.935  1.00  0.00     0.041 A 
HETATM   13  C   UNL     1      42.703 -13.730   3.072  1.00  0.00     0.089 A 
BRANCH  10  14
HETATM   14  N   UNL     1      42.944 -17.891   2.490  1.00  0.00    -0.327 N 
HETATM   15  C   UNL     1      43.792 -18.812   3.082  1.00  0.00     0.218 C 
HETATM   16  C   UNL     1      43.527 -20.227   2.630  1.00  0.00     0.117 C 
HETATM   17  O   UNL     1      44.645 -18.583   3.936  1.00  0.00    -0.274 OA
HETATM   18  H   UNL     1      42.198 -18.261   1.913  1.00  0.00     0.169 HD
ENDBRANCH  10  14
BRANCH  13  19
HETATM   19  O   UNL     1      42.627 -12.358   3.093  1.00  0.00    -0.354 OA
HETATM   20  C   UNL     1      43.801 -11.740   3.619  1.00  0.00     0.210 C 
ENDBRANCH  13  19
ENDBRANCH   6   8
ENDBRANCH   5   6
ENDBRANCH   1   5
BRANCH   2  21
HETATM   21  C   UNL     1      44.180 -11.280   7.598  1.00  0.00     0.050 A 
HETATM   22  C   UNL     1      44.092 -10.283   8.580  1.00  0.00     0.058 A 
HETATM   23  C   UNL     1      45.188  -9.417   8.791  1.00  0.00     0.019 A 
HETATM   24  C   UNL     1      46.373  -9.558   8.073  1.00  0.00     0.001 A 
HETATM   25  C   UNL     1      46.487 -10.581   7.144  1.00  0.00     0.002 A 
HETATM   26  C   UNL     1      45.406 -11.435   6.916  1.00  0.00     0.030 A 
BRANCH  22  27
HETATM   27  C   UNL     1      42.994 -10.092   9.559  1.00  0.00     0.254 C 
HETATM   28  N   UNL     1      41.836  -9.503   9.082  1.00  0.00    -0.352 N 
HETATM   29  H   UNL     1      41.801  -9.167   8.121  1.00  0.00     0.163 HD
HETATM   30  O   UNL     1      43.099 -10.596  10.676  1.00  0.00    -0.268 OA
BRANCH  28  31
HETATM   31  C   UNL     1      40.661  -9.441   9.896  1.00  0.00     0.084 A 
HETATM   32  C   UNL     1      40.037  -8.115  10.231  1.00  0.00     0.027 A 
HETATM   33  C   UNL     1      39.317  -9.077   9.333  1.00  0.00     0.027 A 
ENDBRANCH  28  31
ENDBRANCH  22  27
ENDBRANCH   2  21
TORSDOF 8
ENDMDL
MODEL 10
REMARK VINA RESULT:      -7.1     14.691     17.117
REMARK  8 active torsions:
REMARK  status: ('A' for Active; 'I' for Inactive)
REMARK       I    between atoms: C_2  and  N_3 
REMARK    1  A    between atoms: N_3  and  C_4 
REMARK    2  A    between atoms: C_6  and  N_7 
REMARK    3  A    between atoms: N_7  and  C_8 
REMARK    4  A    between atoms: C_8  and  C_9 
REMARK       I    between atoms: C_9  and  N_10 
REMARK    5  A    between atoms: N_10  and  C_11 
REMARK    6  A    between atoms: C_12  and  C_13 
REMARK       I    between atoms: C_13  and  N_14 
REMARK    7  A    between atoms: N_14  and  C_15 
REMARK    8  A    between atoms: C_24  and  O_25 
ROOT
HETATM    1  C   UNL     1      43.453 -29.823   1.062  1.00  0.00     0.235 C 
HETATM    2  N   UNL     1      43.970 -28.659   0.511  1.00  0.00    -0.325 N 
HETATM    3  O   UNL     1      43.950 -30.941   0.997  1.00  0.00    -0.272 OA
HETATM    4  H   UNL     1      43.560 -27.797   0.850  1.00  0.00     0.169 HD
ENDROOT
BRANCH   1   5
HETATM    5  C   UNL     1      42.188 -29.560   1.899  1.00  0.00     0.195 C 
BRANCH   5   6
HETATM    6  N   UNL     1      42.333 -29.938   3.307  1.00  0.00    -0.282 NA
HETATM    7  H   UNL     1      43.319 -29.899   3.584  1.00  0.00     0.128 HD
BRANCH   6   8
HETATM    8  C   UNL     1      41.785 -31.139   3.788  1.00  0.00     0.044 A 
HETATM    9  C   UNL     1      40.405 -31.407   3.763  1.00  0.00     0.055 A 
HETATM   10  C   UNL     1      39.883 -32.656   4.117  1.00  0.00     0.036 A 
HETATM   11  C   UNL     1      40.752 -33.657   4.555  1.00  0.00     0.032 A 
HETATM   12  C   UNL     1      42.125 -33.422   4.590  1.00  0.00     0.041 A 
HETATM   13  C   UNL     1      42.637 -32.177   4.217  1.00  0.00     0.089 A 
BRANCH  10  14
HETATM   14  N   UNL     1      38.511 -32.983   4.019  1.00  0.00    -0.327 N 
HETATM   15  C   UNL     1      37.603 -33.084   5.060  1.00  0.00     0.218 C 
HETATM   16  C   UNL     1      36.200 -33.372   4.586  1.00  0.00     0.117 C 
HETATM   17  O   UNL     1      37.831 -32.906   6.253  1.00  0.00    -0.274 OA
HETATM   18  H   UNL     1      38.136 -33.014   3.079  1.00  0.00     0.169 HD
ENDBRANCH  10  14
BRANCH  13  19
HETATM   19  O   UNL     1      44.008 -32.080   4.258  1.00  0.00    -0.354 OA
HETATM   20  C   UNL     1      44.557 -32.444   5.524  1.00  0.00     0.210 C 
ENDBRANCH  13  19
ENDBRANCH   6   8
ENDBRANCH   5   6
ENDBRANCH   1   5
BRANCH   2  21
HETATM   21  C   UNL     1      45.182 -28.501  -0.202  1.00  0.00     0.050 A 
HETATM   22  C   UNL     1      46.471 -28.320   0.319  1.00  0.00     0.058 A 
HETATM   23  C   UNL     1      47.545 -28.058  -0.560  1.00  0.00     0.019 A 
HETATM   24  C   UNL     1      47.360 -28.016  -1.940  1.00  0.00     0.001 A 
HETATM   25  C   UNL     1      46.098 -28.254  -2.464  1.00  0.00     0.002 A 
HETATM   26  C   UNL     1      45.025 -28.501  -1.604  1.00  0.00     0.030 A 
BRANCH  22  27
HETATM   27  C   UNL     1      46.896 -28.504   1.728  1.00  0.00     0.254 C 
HETATM   28  N   UNL     1      48.218 -28.861   1.933  1.00  0.00    -0.352 N 
HETATM   29  H   UNL     1      48.819 -29.046   1.133  1.00  0.00     0.163 HD
HETATM   30  O   UNL     1      46.122 -28.186   2.629  1.00  0.00    -0.268 OA
BRANCH  28  31
HETATM   31  C   UNL     1      48.769 -28.886   3.254  1.00  0.00     0.084 A 
HETATM   32  C   UNL     1      48.720 -30.144   4.074  1.00  0.00     0.027 A 
HETATM   33  C   UNL     1      50.036 -29.624   3.576  1.00  0.00     0.027 A 
ENDBRANCH  28  31
ENDBRANCH  22  27
ENDBRANCH   2  21
TORSDOF 8
ENDMDL
