MODEL 1
REMARK VINA RESULT:     -10.1      0.000      0.000
REMARK  5 active torsions:
REMARK  status: ('A' for Active; 'I' for Inactive)
REMARK    1  A    between atoms: C_2  and  N_3 
REMARK    2  A    between atoms: C_5  and  C_6 
REMARK    3  A    between atoms: C_6  and  C_7 
REMARK       I    between atoms: C_7  and  N_8 
REMARK    4  A    between atoms: N_8  and  C_9 
REMARK    5  A    between atoms: C_16  and  O_17 
ROOT
HETATM    1  C   UNL     1      41.270 -15.032   1.471  1.00  0.00     0.224 C 
HETATM    2  N   UNL     1      41.462 -14.089   0.500  1.00  0.00    -0.351 N 
HETATM    3  O   UNL     1      40.198 -15.136   2.072  1.00  0.00    -0.273 OA
HETATM    4  H   UNL     1      42.342 -14.089  -0.012  1.00  0.00     0.163 HD
ENDROOT
BRANCH   2   5
HETATM    5  C   UNL     1      40.338 -13.338  -0.013  1.00  0.00     0.135 C 
HETATM    6  C   UNL     1      40.825 -12.060  -0.600  1.00  0.00     0.040 A 
HETATM    7  C   UNL     1      40.828 -11.717  -1.938  1.00  0.00    -0.021 A 
HETATM    8  N   UNL     1      41.265 -10.982   0.119  1.00  0.00    -0.357 N 
HETATM    9  C   UNL     1      41.187 -10.343  -2.023  1.00  0.00     0.002 A 
HETATM   10  C   UNL     1      40.388 -12.655  -3.010  1.00  0.00     0.042 C 
HETATM   11  C   UNL     1      41.451  -9.906  -0.723  1.00  0.00     0.043 A 
HETATM   12  C   UNL     1      41.270  -9.413  -3.079  1.00  0.00     0.051 A 
HETATM   13  C   UNL     1      41.808  -8.585  -0.436  1.00  0.00     0.033 A 
HETATM   14  C   UNL     1      41.861  -7.675  -1.501  1.00  0.00     0.039 A 
HETATM   15  C   UNL     1      41.578  -8.074  -2.806  1.00  0.00     0.069 A 
HETATM   16  C   UNL     1      40.269 -14.093  -2.472  1.00  0.00     0.007 C 
HETATM   17  C   UNL     1      39.572 -14.139  -1.097  1.00  0.00     0.032 C 
HETATM   18  H   UNL     1      41.366 -10.954   1.125  1.00  0.00     0.166 HD
BRANCH  15  19
HETATM   19  O   UNL     1      41.579  -7.255  -3.906  1.00  0.00    -0.356 OA
HETATM   20  C   UNL     1      42.847  -7.000  -4.497  1.00  0.00     0.210 C 
ENDBRANCH  15  19
ENDBRANCH   2   5
BRANCH   1  21
HETATM   21  C   UNL     1      42.368 -16.017   1.770  1.00  0.00     0.164 C 
BRANCH  21  22
HETATM   22  C   UNL     1      42.788 -16.388   3.175  1.00  0.00     0.075 A 
HETATM   23  N   UNL     1      42.743 -15.505   4.126  1.00  0.00    -0.172 NA
HETATM   24  N   UNL     1      43.116 -15.861   5.405  1.00  0.00    -0.230 N 
HETATM   25  C   UNL     1      43.470 -17.161   5.777  1.00  0.00     0.275 A 
HETATM   26  C   UNL     1      43.567 -18.153   4.697  1.00  0.00     0.046 A 
HETATM   27  O   UNL     1      43.705 -17.513   6.931  1.00  0.00    -0.266 OA
HETATM   28  C   UNL     1      43.237 -17.786   3.400  1.00  0.00     0.006 A 
HETATM   29  C   UNL     1      43.988 -19.461   4.978  1.00  0.00     0.018 A 
HETATM   30  C   UNL     1      43.333 -18.737   2.371  1.00  0.00     0.014 A 
HETATM   31  C   UNL     1      43.757 -20.039   2.650  1.00  0.00     0.001 A 
HETATM   32  C   UNL     1      44.085 -20.402   3.953  1.00  0.00     0.001 A 
BRANCH  24  33
HETATM   33  C   UNL     1      42.937 -14.851   6.462  1.00  0.00     0.105 C 
HETATM   34  C   UNL     1      41.512 -14.302   6.439  1.00  0.00     0.034 C 
HETATM   35  C   UNL     1      43.964 -13.724   6.376  1.00  0.00     0.034 C 
ENDBRANCH  24  33
ENDBRANCH  21  22
ENDBRANCH   1  21
TORSDOF 5
ENDMDL
MODEL 2
REMARK VINA RESULT:      -9.8      2.698      3.114
REMARK  5 active torsions:
REMARK  status: ('A' for Active; 'I' for Inactive)
REMARK    1  A    between atoms: C_2  and  N_3 
REMARK    2  A    between atoms: C_5  and  C_6 
REMARK    3  A    between atoms: C_6  and  C_7 
REMARK       I    between atoms: C_7  and  N_8 
REMARK    4  A    between atoms: N_8  and  C_9 
REMARK    5  A    between atoms: C_16  and  O_17 
ROOT
HETATM    1  C   UNL     1      41.317 -14.945   0.998  1.00  0.00     0.224 C 
HETATM    2  N   UNL     1      41.091 -14.043  -0.004  1.00  0.00    -0.351 N 
HETATM    3  O   UNL     1      40.433 -15.710   1.394  1.00  0.00    -0.273 OA
HETATM    4  H   UNL     1      41.872 -13.482  -0.338  1.00  0.00     0.163 HD
ENDROOT
BRANCH   2   5
HETATM    5  C   UNL     1      39.879 -14.118  -0.789  1.00  0.00     0.135 C 
HETATM    6  C   UNL     1      39.098 -12.864  -0.611  1.00  0.00     0.040 A 
HETATM    7  C   UNL     1      38.879 -11.889  -1.564  1.00  0.00    -0.021 A 
HETATM    8  N   UNL     1      38.394 -12.529   0.514  1.00  0.00    -0.357 N 
HETATM    9  C   UNL     1      37.922 -10.981  -1.031  1.00  0.00     0.002 A 
HETATM   10  C   UNL     1      39.482 -11.945  -2.926  1.00  0.00     0.042 C 
HETATM   11  C   UNL     1      37.633 -11.406   0.268  1.00  0.00     0.043 A 
HETATM   12  C   UNL     1      37.239  -9.860  -1.544  1.00  0.00     0.051 A 
HETATM   13  C   UNL     1      36.701 -10.750   1.079  1.00  0.00     0.033 A 
HETATM   14  C   UNL     1      36.018  -9.652   0.537  1.00  0.00     0.039 A 
HETATM   15  C   UNL     1      36.267  -9.220  -0.765  1.00  0.00     0.069 A 
HETATM   16  C   UNL     1      40.599 -13.003  -2.993  1.00  0.00     0.007 C 
HETATM   17  C   UNL     1      40.193 -14.317  -2.294  1.00  0.00     0.032 C 
HETATM   18  H   UNL     1      38.375 -13.065   1.371  1.00  0.00     0.166 HD
BRANCH  15  19
HETATM   19  O   UNL     1      35.634  -8.176  -1.390  1.00  0.00    -0.356 OA
HETATM   20  C   UNL     1      34.591  -8.524  -2.292  1.00  0.00     0.210 C 
ENDBRANCH  15  19
ENDBRANCH   2   5
BRANCH   1  21
HETATM   21  C   UNL     1      42.696 -15.061   1.591  1.00  0.00     0.164 C 
BRANCH  21  22
HETATM   22  C   UNL     1      42.946 -15.379   3.048  1.00  0.00     0.075 A 
HETATM   23  N   UNL     1      42.826 -14.453   3.950  1.00  0.00    -0.172 NA
HETATM   24  N   UNL     1      43.045 -14.762   5.276  1.00  0.00    -0.230 N 
HETATM   25  C   UNL     1      43.313 -16.053   5.739  1.00  0.00     0.275 A 
HETATM   26  C   UNL     1      43.495 -17.096   4.719  1.00  0.00     0.046 A 
HETATM   27  O   UNL     1      43.408 -16.359   6.926  1.00  0.00    -0.266 OA
HETATM   28  C   UNL     1      43.322 -16.778   3.379  1.00  0.00     0.006 A 
HETATM   29  C   UNL     1      43.840 -18.401   5.099  1.00  0.00     0.018 A 
HETATM   30  C   UNL     1      43.498 -17.777   2.408  1.00  0.00     0.014 A 
HETATM   31  C   UNL     1      43.846 -19.076   2.786  1.00  0.00     0.001 A 
HETATM   32  C   UNL     1      44.017 -19.390   4.132  1.00  0.00     0.001 A 
BRANCH  24  33
HETATM   33  C   UNL     1      42.785 -13.701   6.264  1.00  0.00     0.105 C 
HETATM   34  C   UNL     1      41.689 -12.762   5.761  1.00  0.00     0.034 C 
HETATM   35  C   UNL     1      44.046 -12.926   6.638  1.00  0.00     0.034 C 
ENDBRANCH  24  33
ENDBRANCH  21  22
ENDBRANCH   1  21
TORSDOF 5
ENDMDL
MODEL 3
REMARK VINA RESULT:      -9.7      2.548      3.327
REMARK  5 active torsions:
REMARK  status: ('A' for Active; 'I' for Inactive)
REMARK    1  A    between atoms: C_2  and  N_3 
REMARK    2  A    between atoms: C_5  and  C_6 
REMARK    3  A    between atoms: C_6  and  C_7 
REMARK       I    between atoms: C_7  and  N_8 
REMARK    4  A    between atoms: N_8  and  C_9 
REMARK    5  A    between atoms: C_16  and  O_17 
ROOT
HETATM    1  C   UNL     1      42.994 -15.310   1.805  1.00  0.00     0.224 C 
HETATM    2  N   UNL     1      41.784 -14.745   2.101  1.00  0.00    -0.351 N 
HETATM    3  O   UNL     1      43.904 -14.659   1.285  1.00  0.00    -0.273 OA
HETATM    4  H   UNL     1      41.091 -15.307   2.590  1.00  0.00     0.163 HD
ENDROOT
BRANCH   2   5
HETATM    5  C   UNL     1      41.616 -13.311   2.026  1.00  0.00     0.135 C 
HETATM    6  C   UNL     1      40.707 -12.979   0.895  1.00  0.00     0.040 A 
HETATM    7  C   UNL     1      39.428 -12.468   0.991  1.00  0.00    -0.021 A 
HETATM    8  N   UNL     1      41.043 -13.046  -0.430  1.00  0.00    -0.357 N 
HETATM    9  C   UNL     1      39.011 -12.117  -0.324  1.00  0.00     0.002 A 
HETATM   10  C   UNL     1      38.747 -12.242   2.297  1.00  0.00     0.042 C 
HETATM   11  C   UNL     1      40.041 -12.485  -1.192  1.00  0.00     0.043 A 
HETATM   12  C   UNL     1      37.873 -11.479  -0.856  1.00  0.00     0.051 A 
HETATM   13  C   UNL     1      39.975 -12.255  -2.571  1.00  0.00     0.033 A 
HETATM   14  C   UNL     1      38.842 -11.598  -3.071  1.00  0.00     0.039 A 
HETATM   15  C   UNL     1      37.809 -11.196  -2.226  1.00  0.00     0.069 A 
HETATM   16  C   UNL     1      39.499 -12.946   3.442  1.00  0.00     0.007 C 
HETATM   17  C   UNL     1      41.025 -12.743   3.342  1.00  0.00     0.032 C 
HETATM   18  H   UNL     1      41.924 -13.387  -0.791  1.00  0.00     0.166 HD
BRANCH  15  19
HETATM   19  O   UNL     1      36.678 -10.527  -2.617  1.00  0.00    -0.356 OA
HETATM   20  C   UNL     1      36.124  -9.623  -1.669  1.00  0.00     0.210 C 
ENDBRANCH  15  19
ENDBRANCH   2   5
BRANCH   1  21
HETATM   21  C   UNL     1      43.252 -16.743   2.185  1.00  0.00     0.164 C 
BRANCH  21  22
HETATM   22  C   UNL     1      43.352 -17.213   3.619  1.00  0.00     0.075 A 
HETATM   23  N   UNL     1      43.184 -16.375   4.596  1.00  0.00    -0.172 NA
HETATM   24  N   UNL     1      43.265 -16.822   5.899  1.00  0.00    -0.230 N 
HETATM   25  C   UNL     1      43.438 -18.163   6.251  1.00  0.00     0.275 A 
HETATM   26  C   UNL     1      43.676 -19.109   5.150  1.00  0.00     0.046 A 
HETATM   27  O   UNL     1      43.410 -18.587   7.403  1.00  0.00    -0.266 OA
HETATM   28  C   UNL     1      43.641 -18.654   3.839  1.00  0.00     0.006 A 
HETATM   29  C   UNL     1      43.933 -20.460   5.425  1.00  0.00     0.018 A 
HETATM   30  C   UNL     1      43.870 -19.560   2.791  1.00  0.00     0.014 A 
HETATM   31  C   UNL     1      44.130 -20.906   3.066  1.00  0.00     0.001 A 
HETATM   32  C   UNL     1      44.162 -21.356   4.382  1.00  0.00     0.001 A 
BRANCH  24  33
HETATM   33  C   UNL     1      42.954 -15.851   6.961  1.00  0.00     0.105 C 
HETATM   34  C   UNL     1      41.456 -15.553   6.990  1.00  0.00     0.034 C 
HETATM   35  C   UNL     1      43.769 -14.565   6.838  1.00  0.00     0.034 C 
ENDBRANCH  24  33
ENDBRANCH  21  22
ENDBRANCH   1  21
TORSDOF 5
ENDMDL
MODEL 4
REMARK VINA RESULT:      -9.5      4.854      9.256
REMARK  5 active torsions:
REMARK  status: ('A' for Active; 'I' for Inactive)
REMARK    1  A    between atoms: C_2  and  N_3 
REMARK    2  A    between atoms: C_5  and  C_6 
REMARK    3  A    between atoms: C_6  and  C_7 
REMARK       I    between atoms: C_7  and  N_8 
REMARK    4  A    between atoms: N_8  and  C_9 
REMARK    5  A    between atoms: C_16  and  O_17 
ROOT
HETATM    1  C   UNL     1      41.159 -12.169   6.150  1.00  0.00     0.224 C 
HETATM    2  N   UNL     1      42.437 -12.041   6.619  1.00  0.00    -0.351 N 
HETATM    3  O   UNL     1      40.420 -11.191   6.005  1.00  0.00    -0.273 OA
HETATM    4  H   UNL     1      43.027 -12.870   6.656  1.00  0.00     0.163 HD
ENDROOT
BRANCH   2   5
HETATM    5  C   UNL     1      43.038 -10.732   6.739  1.00  0.00     0.135 C 
HETATM    6  C   UNL     1      42.895 -10.250   8.141  1.00  0.00     0.040 A 
HETATM    7  C   UNL     1      43.911 -10.083   9.061  1.00  0.00    -0.021 A 
HETATM    8  N   UNL     1      41.729  -9.809   8.705  1.00  0.00    -0.357 N 
HETATM    9  C   UNL     1      43.356  -9.419  10.190  1.00  0.00     0.002 A 
HETATM   10  C   UNL     1      45.328 -10.445   8.770  1.00  0.00     0.042 C 
HETATM   11  C   UNL     1      41.992  -9.256   9.941  1.00  0.00     0.043 A 
HETATM   12  C   UNL     1      43.892  -8.899  11.385  1.00  0.00     0.051 A 
HETATM   13  C   UNL     1      41.139  -8.609  10.841  1.00  0.00     0.033 A 
HETATM   14  C   UNL     1      41.702  -8.081  12.011  1.00  0.00     0.039 A 
HETATM   15  C   UNL     1      43.065  -8.205  12.277  1.00  0.00     0.069 A 
HETATM   16  C   UNL     1      45.429 -11.308   7.498  1.00  0.00     0.007 C 
HETATM   17  C   UNL     1      44.541 -10.763   6.360  1.00  0.00     0.032 C 
HETATM   18  H   UNL     1      40.824  -9.817   8.255  1.00  0.00     0.166 HD
BRANCH  15  19
HETATM   19  O   UNL     1      43.708  -7.702  13.378  1.00  0.00    -0.356 OA
HETATM   20  C   UNL     1      42.884  -7.088  14.361  1.00  0.00     0.210 C 
ENDBRANCH  15  19
ENDBRANCH   2   5
BRANCH   1  21
HETATM   21  C   UNL     1      40.659 -13.525   5.731  1.00  0.00     0.164 C 
BRANCH  21  22
HETATM   22  C   UNL     1      41.486 -14.499   4.922  1.00  0.00     0.075 A 
HETATM   23  N   UNL     1      42.397 -15.221   5.500  1.00  0.00    -0.172 NA
HETATM   24  N   UNL     1      43.135 -16.115   4.752  1.00  0.00    -0.230 N 
HETATM   25  C   UNL     1      42.910 -16.363   3.395  1.00  0.00     0.275 A 
HETATM   26  C   UNL     1      41.912 -15.516   2.725  1.00  0.00     0.046 A 
HETATM   27  O   UNL     1      43.490 -17.228   2.743  1.00  0.00    -0.266 OA
HETATM   28  C   UNL     1      41.201 -14.583   3.466  1.00  0.00     0.006 A 
HETATM   29  C   UNL     1      41.682 -15.653   1.349  1.00  0.00     0.018 A 
HETATM   30  C   UNL     1      40.250 -13.775   2.823  1.00  0.00     0.014 A 
HETATM   31  C   UNL     1      40.023 -13.908   1.450  1.00  0.00     0.001 A 
HETATM   32  C   UNL     1      40.738 -14.847   0.712  1.00  0.00     0.001 A 
BRANCH  24  33
HETATM   33  C   UNL     1      44.073 -16.985   5.480  1.00  0.00     0.105 C 
HETATM   34  C   UNL     1      43.325 -18.145   6.136  1.00  0.00     0.034 C 
HETATM   35  C   UNL     1      44.910 -16.220   6.503  1.00  0.00     0.034 C 
ENDBRANCH  24  33
ENDBRANCH  21  22
ENDBRANCH   1  21
TORSDOF 5
ENDMDL
MODEL 5
REMARK VINA RESULT:      -9.4      5.375      9.873
REMARK  5 active torsions:
REMARK  status: ('A' for Active; 'I' for Inactive)
REMARK    1  A    between atoms: C_2  and  N_3 
REMARK    2  A    between atoms: C_5  and  C_6 
REMARK    3  A    between atoms: C_6  and  C_7 
REMARK       I    between atoms: C_7  and  N_8 
REMARK    4  A    between atoms: N_8  and  C_9 
REMARK    5  A    between atoms: C_16  and  O_17 
ROOT
HETATM    1  C   UNL     1      43.261 -12.170   6.232  1.00  0.00     0.224 C 
HETATM    2  N   UNL     1      43.230 -11.659   7.500  1.00  0.00    -0.351 N 
HETATM    3  O   UNL     1      43.376 -11.442   5.242  1.00  0.00    -0.273 OA
HETATM    4  H   UNL     1      43.201 -12.307   8.285  1.00  0.00     0.163 HD
ENDROOT
BRANCH   2   5
HETATM    5  C   UNL     1      43.563 -10.272   7.732  1.00  0.00     0.135 C 
HETATM    6  C   UNL     1      43.146  -9.887   9.108  1.00  0.00     0.040 A 
HETATM    7  C   UNL     1      43.981  -9.587  10.166  1.00  0.00    -0.021 A 
HETATM    8  N   UNL     1      41.855  -9.684   9.511  1.00  0.00    -0.357 N 
HETATM    9  C   UNL     1      43.168  -9.083  11.219  1.00  0.00     0.002 A 
HETATM   10  C   UNL     1      45.466  -9.682  10.072  1.00  0.00     0.042 C 
HETATM   11  C   UNL     1      41.843  -9.151  10.783  1.00  0.00     0.043 A 
HETATM   12  C   UNL     1      43.434  -8.533  12.489  1.00  0.00     0.051 A 
HETATM   13  C   UNL     1      40.774  -8.705  11.566  1.00  0.00     0.033 A 
HETATM   14  C   UNL     1      41.068  -8.141  12.816  1.00  0.00     0.039 A 
HETATM   15  C   UNL     1      42.382  -8.036  13.269  1.00  0.00     0.069 A 
HETATM   16  C   UNL     1      45.892 -10.454   8.809  1.00  0.00     0.007 C 
HETATM   17  C   UNL     1      45.084 -10.022   7.569  1.00  0.00     0.032 C 
HETATM   18  H   UNL     1      41.035  -9.830   8.937  1.00  0.00     0.166 HD
BRANCH  15  19
HETATM   19  O   UNL     1      42.770  -7.479  14.460  1.00  0.00    -0.356 OA
HETATM   20  C   UNL     1      41.758  -7.350  15.451  1.00  0.00     0.210 C 
ENDBRANCH  15  19
ENDBRANCH   2   5
BRANCH   1  21
HETATM   21  C   UNL     1      43.227 -13.662   6.036  1.00  0.00     0.164 C 
BRANCH  21  22
HETATM   22  C   UNL     1      42.586 -14.324   4.837  1.00  0.00     0.075 A 
HETATM   23  N   UNL     1      41.689 -13.693   4.142  1.00  0.00    -0.172 NA
HETATM   24  N   UNL     1      41.123 -14.306   3.044  1.00  0.00    -0.230 N 
HETATM   25  C   UNL     1      41.516 -15.557   2.564  1.00  0.00     0.275 A 
HETATM   26  C   UNL     1      42.497 -16.296   3.372  1.00  0.00     0.046 A 
HETATM   27  O   UNL     1      41.093 -16.068   1.529  1.00  0.00    -0.266 OA
HETATM   28  C   UNL     1      43.035 -15.701   4.505  1.00  0.00     0.006 A 
HETATM   29  C   UNL     1      42.888 -17.590   2.998  1.00  0.00     0.018 A 
HETATM   30  C   UNL     1      43.971 -16.410   5.275  1.00  0.00     0.014 A 
HETATM   31  C   UNL     1      44.356 -17.702   4.905  1.00  0.00     0.001 A 
HETATM   32  C   UNL     1      43.816 -18.292   3.766  1.00  0.00     0.001 A 
BRANCH  24  33
HETATM   33  C   UNL     1      40.196 -13.500   2.230  1.00  0.00     0.105 C 
HETATM   34  C   UNL     1      40.971 -12.528   1.342  1.00  0.00     0.034 C 
HETATM   35  C   UNL     1      39.159 -12.765   3.078  1.00  0.00     0.034 C 
ENDBRANCH  24  33
ENDBRANCH  21  22
ENDBRANCH   1  21
TORSDOF 5
ENDMDL
MODEL 6
REMARK VINA RESULT:      -9.1      2.749      4.267
REMARK  5 active torsions:
REMARK  status: ('A' for Active; 'I' for Inactive)
REMARK    1  A    between atoms: C_2  and  N_3 
REMARK    2  A    between atoms: C_5  and  C_6 
REMARK    3  A    between atoms: C_6  and  C_7 
REMARK       I    between atoms: C_7  and  N_8 
REMARK    4  A    between atoms: N_8  and  C_9 
REMARK    5  A    between atoms: C_16  and  O_17 
ROOT
HETATM    1  C   UNL     1      41.335 -15.151   0.971  1.00  0.00     0.224 C 
HETATM    2  N   UNL     1      41.119 -14.264  -0.047  1.00  0.00    -0.351 N 
HETATM    3  O   UNL     1      40.426 -15.849   1.428  1.00  0.00    -0.273 OA
HETATM    4  H   UNL     1      41.916 -13.762  -0.432  1.00  0.00     0.163 HD
ENDROOT
BRANCH   2   5
HETATM    5  C   UNL     1      39.869 -14.286  -0.774  1.00  0.00     0.135 C 
HETATM    6  C   UNL     1      39.159 -12.993  -0.574  1.00  0.00     0.040 A 
HETATM    7  C   UNL     1      38.945 -12.017  -1.526  1.00  0.00    -0.021 A 
HETATM    8  N   UNL     1      38.526 -12.614   0.578  1.00  0.00    -0.357 N 
HETATM    9  C   UNL     1      38.060 -11.058  -0.959  1.00  0.00     0.002 A 
HETATM   10  C   UNL     1      39.480 -12.114  -2.914  1.00  0.00     0.042 C 
HETATM   11  C   UNL     1      37.811 -11.457   0.356  1.00  0.00     0.043 A 
HETATM   12  C   UNL     1      37.409  -9.909  -1.452  1.00  0.00     0.051 A 
HETATM   13  C   UNL     1      36.951 -10.749   1.202  1.00  0.00     0.033 A 
HETATM   14  C   UNL     1      36.298  -9.623   0.679  1.00  0.00     0.039 A 
HETATM   15  C   UNL     1      36.507  -9.214  -0.637  1.00  0.00     0.069 A 
HETATM   16  C   UNL     1      40.540 -13.227  -3.021  1.00  0.00     0.007 C 
HETATM   17  C   UNL     1      40.103 -14.512  -2.290  1.00  0.00     0.032 C 
HETATM   18  H   UNL     1      38.521 -13.141   1.441  1.00  0.00     0.166 HD
BRANCH  15  19
HETATM   19  O   UNL     1      35.898  -8.146  -1.243  1.00  0.00    -0.356 OA
HETATM   20  C   UNL     1      34.487  -8.233  -1.399  1.00  0.00     0.210 C 
ENDBRANCH  15  19
ENDBRANCH   2   5
BRANCH   1  21
HETATM   21  C   UNL     1      42.730 -15.336   1.505  1.00  0.00     0.164 C 
BRANCH  21  22
HETATM   22  C   UNL     1      43.066 -16.286   2.632  1.00  0.00     0.075 A 
HETATM   23  N   UNL     1      43.292 -17.541   2.386  1.00  0.00    -0.172 NA
HETATM   24  N   UNL     1      43.610 -18.393   3.423  1.00  0.00    -0.230 N 
HETATM   25  C   UNL     1      43.791 -17.975   4.744  1.00  0.00     0.275 A 
HETATM   26  C   UNL     1      43.491 -16.566   5.037  1.00  0.00     0.046 A 
HETATM   27  O   UNL     1      44.173 -18.703   5.656  1.00  0.00    -0.266 OA
HETATM   28  C   UNL     1      43.125 -15.716   4.003  1.00  0.00     0.006 A 
HETATM   29  C   UNL     1      43.575 -16.086   6.352  1.00  0.00     0.018 A 
HETATM   30  C   UNL     1      42.837 -14.371   4.287  1.00  0.00     0.014 A 
HETATM   31  C   UNL     1      42.918 -13.894   5.599  1.00  0.00     0.001 A 
HETATM   32  C   UNL     1      43.287 -14.751   6.632  1.00  0.00     0.001 A 
BRANCH  24  33
HETATM   33  C   UNL     1      43.967 -19.777   3.069  1.00  0.00     0.105 C 
HETATM   34  C   UNL     1      43.311 -20.176   1.747  1.00  0.00     0.034 C 
HETATM   35  C   UNL     1      43.625 -20.773   4.175  1.00  0.00     0.034 C 
ENDBRANCH  24  33
ENDBRANCH  21  22
ENDBRANCH   1  21
TORSDOF 5
ENDMDL
MODEL 7
REMARK VINA RESULT:      -9.0      5.345     10.137
REMARK  5 active torsions:
REMARK  status: ('A' for Active; 'I' for Inactive)
REMARK    1  A    between atoms: C_2  and  N_3 
REMARK    2  A    between atoms: C_5  and  C_6 
REMARK    3  A    between atoms: C_6  and  C_7 
REMARK       I    between atoms: C_7  and  N_8 
REMARK    4  A    between atoms: N_8  and  C_9 
REMARK    5  A    between atoms: C_16  and  O_17 
ROOT
HETATM    1  C   UNL     1      43.279 -10.762   5.963  1.00  0.00     0.224 C 
HETATM    2  N   UNL     1      43.950 -10.606   7.144  1.00  0.00    -0.351 N 
HETATM    3  O   UNL     1      42.433  -9.947   5.585  1.00  0.00    -0.273 OA
HETATM    4  H   UNL     1      44.685 -11.270   7.378  1.00  0.00     0.163 HD
ENDROOT
BRANCH   2   5
HETATM    5  C   UNL     1      43.856  -9.360   7.873  1.00  0.00     0.135 C 
HETATM    6  C   UNL     1      43.018  -9.561   9.087  1.00  0.00     0.040 A 
HETATM    7  C   UNL     1      43.451  -9.541  10.398  1.00  0.00    -0.021 A 
HETATM    8  N   UNL     1      41.658  -9.708   9.088  1.00  0.00    -0.357 N 
HETATM    9  C   UNL     1      42.296  -9.573  11.227  1.00  0.00     0.002 A 
HETATM   10  C   UNL     1      44.886  -9.375  10.769  1.00  0.00     0.042 C 
HETATM   11  C   UNL     1      41.188  -9.674  10.384  1.00  0.00     0.043 A 
HETATM   12  C   UNL     1      42.081  -9.482  12.617  1.00  0.00     0.051 A 
HETATM   13  C   UNL     1      39.877  -9.703  10.871  1.00  0.00     0.033 A 
HETATM   14  C   UNL     1      39.690  -9.587  12.255  1.00  0.00     0.039 A 
HETATM   15  C   UNL     1      40.775  -9.459  13.121  1.00  0.00     0.069 A 
HETATM   16  C   UNL     1      45.800  -9.571   9.545  1.00  0.00     0.007 C 
HETATM   17  C   UNL     1      45.256  -8.847   8.297  1.00  0.00     0.032 C 
HETATM   18  H   UNL     1      41.076  -9.759   8.262  1.00  0.00     0.166 HD
BRANCH  15  19
HETATM   19  O   UNL     1      40.692  -9.316  14.482  1.00  0.00    -0.356 OA
HETATM   20  C   UNL     1      41.531  -8.323  15.061  1.00  0.00     0.210 C 
ENDBRANCH  15  19
ENDBRANCH   2   5
BRANCH   1  21
HETATM   21  C   UNL     1      43.627 -11.917   5.064  1.00  0.00     0.164 C 
BRANCH  21  22
HETATM   22  C   UNL     1      42.795 -13.178   4.977  1.00  0.00     0.075 A 
HETATM   23  N   UNL     1      42.964 -14.134   5.839  1.00  0.00    -0.172 NA
HETATM   24  N   UNL     1      42.189 -15.272   5.754  1.00  0.00    -0.230 N 
HETATM   25  C   UNL     1      41.152 -15.438   4.833  1.00  0.00     0.275 A 
HETATM   26  C   UNL     1      40.987 -14.380   3.826  1.00  0.00     0.046 A 
HETATM   27  O   UNL     1      40.389 -16.401   4.814  1.00  0.00    -0.266 OA
HETATM   28  C   UNL     1      41.797 -13.254   3.879  1.00  0.00     0.006 A 
HETATM   29  C   UNL     1      40.017 -14.509   2.821  1.00  0.00     0.018 A 
HETATM   30  C   UNL     1      41.637 -12.246   2.914  1.00  0.00     0.014 A 
HETATM   31  C   UNL     1      40.674 -12.377   1.910  1.00  0.00     0.001 A 
HETATM   32  C   UNL     1      39.863 -13.507   1.863  1.00  0.00     0.001 A 
BRANCH  24  33
HETATM   33  C   UNL     1      42.346 -16.271   6.825  1.00  0.00     0.105 C 
HETATM   34  C   UNL     1      42.997 -15.638   8.054  1.00  0.00     0.034 C 
HETATM   35  C   UNL     1      43.119 -17.506   6.366  1.00  0.00     0.034 C 
ENDBRANCH  24  33
ENDBRANCH  21  22
ENDBRANCH   1  21
TORSDOF 5
ENDMDL
MODEL 8
REMARK VINA RESULT:      -9.0      5.780      9.875
REMARK  5 active torsions:
REMARK  status: ('A' for Active; 'I' for Inactive)
REMARK    1  A    between atoms: C_2  and  N_3 
REMARK    2  A    between atoms: C_5  and  C_6 
REMARK    3  A    between atoms: C_6  and  C_7 
REMARK       I    between atoms: C_7  and  N_8 
REMARK    4  A    between atoms: N_8  and  C_9 
REMARK    5  A    between atoms: C_16  and  O_17 
ROOT
HETATM    1  C   UNL     1      44.336 -11.552   7.295  1.00  0.00     0.224 C 
HETATM    2  N   UNL     1      43.484 -11.205   8.306  1.00  0.00    -0.351 N 
HETATM    3  O   UNL     1      45.158 -10.754   6.836  1.00  0.00    -0.273 OA
HETATM    4  H   UNL     1      42.872 -11.920   8.693  1.00  0.00     0.163 HD
ENDROOT
BRANCH   2   5
HETATM    5  C   UNL     1      43.679  -9.966   9.025  1.00  0.00     0.135 C 
HETATM    6  C   UNL     1      42.388  -9.539   9.631  1.00  0.00     0.040 A 
HETATM    7  C   UNL     1      42.080  -9.513  10.977  1.00  0.00    -0.021 A 
HETATM    8  N   UNL     1      41.331  -9.014   8.940  1.00  0.00    -0.357 N 
HETATM    9  C   UNL     1      40.828  -8.852  11.113  1.00  0.00     0.002 A 
HETATM   10  C   UNL     1      43.021  -9.995  12.028  1.00  0.00     0.042 C 
HETATM   11  C   UNL     1      40.383  -8.547   9.825  1.00  0.00     0.043 A 
HETATM   12  C   UNL     1      40.047  -8.442  12.213  1.00  0.00     0.051 A 
HETATM   13  C   UNL     1      39.185  -7.864   9.589  1.00  0.00     0.033 A 
HETATM   14  C   UNL     1      38.440  -7.447  10.701  1.00  0.00     0.039 A 
HETATM   15  C   UNL     1      38.870  -7.714  12.000  1.00  0.00     0.069 A 
HETATM   16  C   UNL     1      44.176 -10.804  11.407  1.00  0.00     0.007 C 
HETATM   17  C   UNL     1      44.742 -10.124  10.143  1.00  0.00     0.032 C 
HETATM   18  H   UNL     1      41.283  -8.915   7.934  1.00  0.00     0.166 HD
BRANCH  15  19
HETATM   19  O   UNL     1      38.225  -7.327  13.146  1.00  0.00    -0.356 OA
HETATM   20  C   UNL     1      37.574  -6.063  13.103  1.00  0.00     0.210 C 
ENDBRANCH  15  19
ENDBRANCH   2   5
BRANCH   1  21
HETATM   21  C   UNL     1      44.324 -12.963   6.771  1.00  0.00     0.164 C 
BRANCH  21  22
HETATM   22  C   UNL     1      43.195 -13.527   5.938  1.00  0.00     0.075 A 
HETATM   23  N   UNL     1      42.215 -12.764   5.561  1.00  0.00    -0.172 NA
HETATM   24  N   UNL     1      41.199 -13.290   4.790  1.00  0.00    -0.230 N 
HETATM   25  C   UNL     1      41.192 -14.599   4.303  1.00  0.00     0.275 A 
HETATM   26  C   UNL     1      42.274 -15.481   4.764  1.00  0.00     0.046 A 
HETATM   27  O   UNL     1      40.347 -15.049   3.533  1.00  0.00    -0.266 OA
HETATM   28  C   UNL     1      43.273 -14.967   5.579  1.00  0.00     0.006 A 
HETATM   29  C   UNL     1      42.296 -16.830   4.381  1.00  0.00     0.018 A 
HETATM   30  C   UNL     1      44.305 -15.813   6.018  1.00  0.00     0.014 A 
HETATM   31  C   UNL     1      44.324 -17.158   5.640  1.00  0.00     0.001 A 
HETATM   32  C   UNL     1      43.321 -17.667   4.821  1.00  0.00     0.001 A 
BRANCH  24  33
HETATM   33  C   UNL     1      40.175 -12.352   4.300  1.00  0.00     0.105 C 
HETATM   34  C   UNL     1      40.754 -11.453   3.208  1.00  0.00     0.034 C 
HETATM   35  C   UNL     1      39.552 -11.524   5.422  1.00  0.00     0.034 C 
ENDBRANCH  24  33
ENDBRANCH  21  22
ENDBRANCH   1  21
TORSDOF 5
ENDMDL
MODEL 9
REMARK VINA RESULT:      -8.9      3.111      3.906
REMARK  5 active torsions:
REMARK  status: ('A' for Active; 'I' for Inactive)
REMARK    1  A    between atoms: C_2  and  N_3 
REMARK    2  A    between atoms: C_5  and  C_6 
REMARK    3  A    between atoms: C_6  and  C_7 
REMARK       I    between atoms: C_7  and  N_8 
REMARK    4  A    between atoms: N_8  and  C_9 
REMARK    5  A    between atoms: C_16  and  O_17 
ROOT
HETATM    1  C   UNL     1      40.594 -14.588   1.156  1.00  0.00     0.224 C 
HETATM    2  N   UNL     1      40.117 -13.501   1.835  1.00  0.00    -0.351 N 
HETATM    3  O   UNL     1      40.969 -14.507  -0.016  1.00  0.00    -0.273 OA
HETATM    4  H   UNL     1      39.883 -13.606   2.820  1.00  0.00     0.163 HD
ENDROOT
BRANCH   2   5
HETATM    5  C   UNL     1      40.255 -12.176   1.272  1.00  0.00     0.135 C 
HETATM    6  C   UNL     1      39.066 -11.871   0.431  1.00  0.00     0.040 A 
HETATM    7  C   UNL     1      38.081 -10.942   0.705  1.00  0.00    -0.021 A 
HETATM    8  N   UNL     1      38.815 -12.410  -0.802  1.00  0.00    -0.357 N 
HETATM    9  C   UNL     1      37.260 -10.840  -0.452  1.00  0.00     0.002 A 
HETATM   10  C   UNL     1      38.055 -10.145   1.965  1.00  0.00     0.042 C 
HETATM   11  C   UNL     1      37.742 -11.766  -1.381  1.00  0.00     0.043 A 
HETATM   12  C   UNL     1      36.176 -10.017  -0.819  1.00  0.00     0.051 A 
HETATM   13  C   UNL     1      37.179 -11.912  -2.653  1.00  0.00     0.033 A 
HETATM   14  C   UNL     1      36.117 -11.065  -3.000  1.00  0.00     0.039 A 
HETATM   15  C   UNL     1      35.630 -10.114  -2.104  1.00  0.00     0.069 A 
HETATM   16  C   UNL     1      39.027 -10.727   3.008  1.00  0.00     0.007 C 
HETATM   17  C   UNL     1      40.387 -11.102   2.382  1.00  0.00     0.032 C 
HETATM   18  H   UNL     1      39.376 -13.120  -1.253  1.00  0.00     0.166 HD
BRANCH  15  19
HETATM   19  O   UNL     1      34.616  -9.228  -2.361  1.00  0.00    -0.356 OA
HETATM   20  C   UNL     1      33.810  -8.857  -1.249  1.00  0.00     0.210 C 
ENDBRANCH  15  19
ENDBRANCH   2   5
BRANCH   1  21
HETATM   21  C   UNL     1      40.733 -15.903   1.874  1.00  0.00     0.164 C 
BRANCH  21  22
HETATM   22  C   UNL     1      41.520 -16.067   3.155  1.00  0.00     0.075 A 
HETATM   23  N   UNL     1      41.392 -15.205   4.118  1.00  0.00    -0.172 NA
HETATM   24  N   UNL     1      42.106 -15.376   5.285  1.00  0.00    -0.230 N 
HETATM   25  C   UNL     1      42.917 -16.483   5.545  1.00  0.00     0.275 A 
HETATM   26  C   UNL     1      43.103 -17.438   4.442  1.00  0.00     0.046 A 
HETATM   27  O   UNL     1      43.477 -16.698   6.618  1.00  0.00    -0.266 OA
HETATM   28  C   UNL     1      42.422 -17.245   3.249  1.00  0.00     0.006 A 
HETATM   29  C   UNL     1      43.962 -18.536   4.598  1.00  0.00     0.018 A 
HETATM   30  C   UNL     1      42.604 -18.158   2.197  1.00  0.00     0.014 A 
HETATM   31  C   UNL     1      43.463 -19.250   2.352  1.00  0.00     0.001 A 
HETATM   32  C   UNL     1      44.142 -19.440   3.552  1.00  0.00     0.001 A 
BRANCH  24  33
HETATM   33  C   UNL     1      41.834 -14.431   6.382  1.00  0.00     0.105 C 
HETATM   34  C   UNL     1      40.403 -13.903   6.289  1.00  0.00     0.034 C 
HETATM   35  C   UNL     1      42.842 -13.285   6.432  1.00  0.00     0.034 C 
ENDBRANCH  24  33
ENDBRANCH  21  22
ENDBRANCH   1  21
TORSDOF 5
ENDMDL
MODEL 10
REMARK VINA RESULT:      -8.8      4.711      8.007
REMARK  5 active torsions:
REMARK  status: ('A' for Active; 'I' for Inactive)
REMARK    1  A    between atoms: C_2  and  N_3 
REMARK    2  A    between atoms: C_5  and  C_6 
REMARK    3  A    between atoms: C_6  and  C_7 
REMARK       I    between atoms: C_7  and  N_8 
REMARK    4  A    between atoms: N_8  and  C_9 
REMARK    5  A    between atoms: C_16  and  O_17 
ROOT
HETATM    1  C   UNL     1      40.021 -10.293   6.961  1.00  0.00     0.224 C 
HETATM    2  N   UNL     1      40.613 -11.353   6.333  1.00  0.00    -0.351 N 
HETATM    3  O   UNL     1      38.795 -10.150   6.976  1.00  0.00    -0.273 OA
HETATM    4  H   UNL     1      41.623 -11.460   6.407  1.00  0.00     0.163 HD
ENDROOT
BRANCH   2   5
HETATM    5  C   UNL     1      39.810 -12.461   5.866  1.00  0.00     0.135 C 
HETATM    6  C   UNL     1      39.845 -12.502   4.378  1.00  0.00     0.040 A 
HETATM    7  C   UNL     1      40.455 -13.463   3.596  1.00  0.00    -0.021 A 
HETATM    8  N   UNL     1      39.190 -11.630   3.552  1.00  0.00    -0.357 N 
HETATM    9  C   UNL     1      40.068 -13.222   2.248  1.00  0.00     0.002 A 
HETATM   10  C   UNL     1      41.244 -14.588   4.173  1.00  0.00     0.042 C 
HETATM   11  C   UNL     1      39.275 -12.072   2.248  1.00  0.00     0.043 A 
HETATM   12  C   UNL     1      40.281 -13.897   1.030  1.00  0.00     0.051 A 
HETATM   13  C   UNL     1      38.698 -11.562   1.081  1.00  0.00     0.033 A 
HETATM   14  C   UNL     1      38.906 -12.265  -0.114  1.00  0.00     0.039 A 
HETATM   15  C   UNL     1      39.672 -13.430  -0.142  1.00  0.00     0.069 A 
HETATM   16  C   UNL     1      41.557 -14.339   5.661  1.00  0.00     0.007 C 
HETATM   17  C   UNL     1      40.328 -13.810   6.428  1.00  0.00     0.032 C 
HETATM   18  H   UNL     1      38.661 -10.824   3.856  1.00  0.00     0.166 HD
BRANCH  15  19
HETATM   19  O   UNL     1      39.909 -14.198  -1.252  1.00  0.00    -0.356 OA
HETATM   20  C   UNL     1      40.236 -13.493  -2.444  1.00  0.00     0.210 C 
ENDBRANCH  15  19
ENDBRANCH   2   5
BRANCH   1  21
HETATM   21  C   UNL     1      40.875  -9.311   7.717  1.00  0.00     0.164 C 
BRANCH  21  22
HETATM   22  C   UNL     1      42.075  -9.721   8.541  1.00  0.00     0.075 A 
HETATM   23  N   UNL     1      43.184 -10.063   7.958  1.00  0.00    -0.172 NA
HETATM   24  N   UNL     1      44.274 -10.422   8.724  1.00  0.00    -0.230 N 
HETATM   25  C   UNL     1      44.296 -10.363  10.120  1.00  0.00     0.275 A 
HETATM   26  C   UNL     1      43.030 -10.021  10.786  1.00  0.00     0.046 A 
HETATM   27  O   UNL     1      45.290 -10.580  10.808  1.00  0.00    -0.266 OA
HETATM   28  C   UNL     1      41.918  -9.705  10.019  1.00  0.00     0.006 A 
HETATM   29  C   UNL     1      42.950 -10.014  12.186  1.00  0.00     0.018 A 
HETATM   30  C   UNL     1      40.711  -9.381  10.659  1.00  0.00     0.014 A 
HETATM   31  C   UNL     1      40.630  -9.378  12.054  1.00  0.00     0.001 A 
HETATM   32  C   UNL     1      41.749  -9.694  12.819  1.00  0.00     0.001 A 
BRANCH  24  33
HETATM   33  C   UNL     1      45.535 -10.690   8.012  1.00  0.00     0.105 C 
HETATM   34  C   UNL     1      46.354  -9.407   7.876  1.00  0.00     0.034 C 
HETATM   35  C   UNL     1      45.312 -11.348   6.652  1.00  0.00     0.034 C 
ENDBRANCH  24  33
ENDBRANCH  21  22
ENDBRANCH   1  21
TORSDOF 5
ENDMDL
