MODEL 1
REMARK VINA RESULT:      -7.8      0.000      0.000
REMARK  8 active torsions:
REMARK  status: ('A' for Active; 'I' for Inactive)
REMARK    1  A    between atoms: C_2  and  O_3 
REMARK    2  A    between atoms: O_3  and  C_4 
REMARK    3  A    between atoms: C_5  and  O_6 
REMARK    4  A    between atoms: O_6  and  C_7 
REMARK       I    between atoms: C_7  and  N_8 
REMARK    5  A    between atoms: C_18  and  C_19 
REMARK    6  A    between atoms: C_23  and  N_24 
REMARK    7  A    between atoms: C_31  and  C_32 
REMARK    8  A    between atoms: C_35  and  O_36 
ROOT
HETATM    1  C   UNL     1      39.128 -10.600   3.558  1.00  0.00     0.106 A 
HETATM    2  C   UNL     1      39.049  -9.828   4.879  1.00  0.00     0.081 A 
HETATM    3  C   UNL     1      38.583 -10.551   6.016  1.00  0.00     0.100 C 
HETATM    4  N   UNL     1      38.202 -11.160   6.929  1.00  0.00    -0.191 NA
HETATM    5  C   UNL     1      39.330  -8.501   4.982  1.00  0.00     0.140 A 
HETATM    6  O   UNL     1      39.726  -7.736   3.872  1.00  0.00    -0.279 OA
HETATM    7  C   UNL     1      39.751  -8.362   2.703  1.00  0.00     0.175 A 
HETATM    8  C   UNL     1      39.487  -9.681   2.439  1.00  0.00     0.040 A 
HETATM    9  N   UNL     1      40.072  -7.778   1.522  1.00  0.00    -0.256 N 
HETATM   10  H   UNL     1      40.325  -6.813   1.347  1.00  0.00     0.191 HD
HETATM   11  N   UNL     1      40.048  -8.642   0.492  1.00  0.00    -0.172 NA
HETATM   12  C   UNL     1      39.667  -9.816   1.033  1.00  0.00     0.099 A 
ENDROOT
BRANCH   1  13
HETATM   13  C   UNL     1      40.146 -11.740   3.592  1.00  0.00    -0.040 A 
HETATM   14  C   UNL     1      39.853 -13.059   3.198  1.00  0.00     0.030 A 
HETATM   15  C   UNL     1      40.808 -14.068   3.326  1.00  0.00     0.048 A 
HETATM   16  C   UNL     1      42.087 -13.759   3.792  1.00  0.00     0.131 A 
HETATM   17 BR   UNL     1      40.323 -15.841   2.861  1.00  0.00    -0.048 Br
HETATM   18  C   UNL     1      42.453 -12.435   4.065  1.00  0.00     0.104 A 
HETATM   19  C   UNL     1      41.467 -11.445   4.003  1.00  0.00     0.048 A 
BRANCH  16  20
HETATM   20  O   UNL     1      43.027 -14.785   3.935  1.00  0.00    -0.257 OA
BRANCH  20  21
HETATM   21  C   UNL     1      42.932 -15.423   5.168  1.00  0.00     0.368 C 
HETATM   22  N   UNL     1      43.431 -16.715   5.134  1.00  0.00    -0.324 N 
HETATM   23  C   UNL     1      43.635 -17.431   6.391  1.00  0.00     0.154 C 
HETATM   24  C   UNL     1      44.109 -17.288   3.973  1.00  0.00     0.154 C 
HETATM   25  C   UNL     1      43.438 -18.937   6.212  1.00  0.00     0.187 C 
HETATM   26  O   UNL     1      44.244 -19.441   5.136  1.00  0.00    -0.388 OA
HETATM   27  C   UNL     1      43.886 -18.803   3.900  1.00  0.00     0.187 C 
HETATM   28  O   UNL     1      42.444 -14.926   6.180  1.00  0.00    -0.238 OA
ENDBRANCH  20  21
ENDBRANCH  16  20
BRANCH  18  29
HETATM   29  O   UNL     1      43.762 -12.224   4.400  1.00  0.00    -0.349 OA
BRANCH  29  30
HETATM   30  C   UNL     1      44.064 -11.334   5.475  1.00  0.00     0.171 C 
HETATM   31  C   UNL     1      44.320 -12.085   6.773  1.00  0.00     0.034 C 
ENDBRANCH  29  30
ENDBRANCH  18  29
ENDBRANCH   1  13
BRANCH   5  32
HETATM   32  N   UNL     1      39.254  -7.755   6.136  1.00  0.00    -0.282 NA
HETATM   33  H   UNL     1      40.085  -7.758   6.722  1.00  0.00     0.126 HD
HETATM   34  H   UNL     1      38.889  -6.820   5.967  1.00  0.00     0.126 HD
ENDBRANCH   5  32
BRANCH  12  35
HETATM   35  C   UNL     1      39.551 -11.015   0.207  1.00  0.00    -0.005 A 
HETATM   36  C   UNL     1      40.683 -11.800  -0.044  1.00  0.00     0.016 A 
HETATM   37  C   UNL     1      40.581 -12.963  -0.810  1.00  0.00     0.037 A 
HETATM   38  C   UNL     1      39.352 -13.362  -1.337  1.00  0.00     0.068 A 
HETATM   39  C   UNL     1      38.223 -12.574  -1.105  1.00  0.00     0.037 A 
HETATM   40  C   UNL     1      38.323 -11.406  -0.338  1.00  0.00     0.016 A 
BRANCH  38  41
HETATM   41  O   UNL     1      39.389 -14.515  -2.071  1.00  0.00    -0.356 OA
HETATM   42  C   UNL     1      38.409 -14.651  -3.092  1.00  0.00     0.210 C 
ENDBRANCH  38  41
ENDBRANCH  12  35
TORSDOF 8
ENDMDL
MODEL 2
REMARK VINA RESULT:      -7.7      1.799      2.655
REMARK  8 active torsions:
REMARK  status: ('A' for Active; 'I' for Inactive)
REMARK    1  A    between atoms: C_2  and  O_3 
REMARK    2  A    between atoms: O_3  and  C_4 
REMARK    3  A    between atoms: C_5  and  O_6 
REMARK    4  A    between atoms: O_6  and  C_7 
REMARK       I    between atoms: C_7  and  N_8 
REMARK    5  A    between atoms: C_18  and  C_19 
REMARK    6  A    between atoms: C_23  and  N_24 
REMARK    7  A    between atoms: C_31  and  C_32 
REMARK    8  A    between atoms: C_35  and  O_36 
ROOT
HETATM    1  C   UNL     1      39.738 -10.463   5.120  1.00  0.00     0.106 A 
HETATM    2  C   UNL     1      39.610  -9.644   6.409  1.00  0.00     0.081 A 
HETATM    3  C   UNL     1      39.064 -10.316   7.542  1.00  0.00     0.100 C 
HETATM    4  N   UNL     1      38.620 -10.883   8.453  1.00  0.00    -0.191 NA
HETATM    5  C   UNL     1      39.921  -8.322   6.482  1.00  0.00     0.140 A 
HETATM    6  O   UNL     1      40.396  -7.606   5.371  1.00  0.00    -0.279 OA
HETATM    7  C   UNL     1      40.466  -8.273   4.226  1.00  0.00     0.175 A 
HETATM    8  C   UNL     1      40.180  -9.593   3.992  1.00  0.00     0.040 A 
HETATM    9  N   UNL     1      40.865  -7.739   3.046  1.00  0.00    -0.256 N 
HETATM   10  H   UNL     1      41.153  -6.787   2.852  1.00  0.00     0.191 HD
HETATM   11  N   UNL     1      40.872  -8.637   2.045  1.00  0.00    -0.172 NA
HETATM   12  C   UNL     1      40.432  -9.782   2.603  1.00  0.00     0.099 A 
ENDROOT
BRANCH   1  13
HETATM   13  C   UNL     1      40.722 -11.627   5.247  1.00  0.00    -0.040 A 
HETATM   14  C   UNL     1      42.003 -11.506   5.818  1.00  0.00     0.030 A 
HETATM   15  C   UNL     1      42.879 -12.591   5.833  1.00  0.00     0.048 A 
HETATM   16  C   UNL     1      42.465 -13.826   5.332  1.00  0.00     0.131 A 
HETATM   17 BR   UNL     1      44.622 -12.341   6.539  1.00  0.00    -0.048 Br
HETATM   18  C   UNL     1      41.153 -14.015   4.879  1.00  0.00     0.104 A 
HETATM   19  C   UNL     1      40.308 -12.904   4.802  1.00  0.00     0.048 A 
BRANCH  16  20
HETATM   20  O   UNL     1      43.363 -14.899   5.334  1.00  0.00    -0.257 OA
BRANCH  20  21
HETATM   21  C   UNL     1      43.083 -15.824   6.335  1.00  0.00     0.368 C 
HETATM   22  N   UNL     1      43.521 -17.098   6.013  1.00  0.00    -0.324 N 
HETATM   23  C   UNL     1      43.530 -18.128   7.049  1.00  0.00     0.154 C 
HETATM   24  C   UNL     1      44.312 -17.404   4.823  1.00  0.00     0.154 C 
HETATM   25  C   UNL     1      43.285 -19.517   6.456  1.00  0.00     0.187 C 
HETATM   26  O   UNL     1      44.196 -19.788   5.379  1.00  0.00    -0.388 OA
HETATM   27  C   UNL     1      44.028 -18.827   4.326  1.00  0.00     0.187 C 
HETATM   28  O   UNL     1      42.496 -15.568   7.383  1.00  0.00    -0.238 OA
ENDBRANCH  20  21
ENDBRANCH  16  20
BRANCH  18  29
HETATM   29  O   UNL     1      40.813 -15.291   4.520  1.00  0.00    -0.349 OA
BRANCH  29  30
HETATM   30  C   UNL     1      40.444 -15.551   3.166  1.00  0.00     0.171 C 
HETATM   31  C   UNL     1      41.468 -16.427   2.461  1.00  0.00     0.034 C 
ENDBRANCH  29  30
ENDBRANCH  18  29
ENDBRANCH   1  13
BRANCH   5  32
HETATM   32  N   UNL     1      39.803  -7.534   7.606  1.00  0.00    -0.282 NA
HETATM   33  H   UNL     1      40.231  -7.903   8.451  1.00  0.00     0.126 HD
HETATM   34  H   UNL     1      40.051  -6.565   7.423  1.00  0.00     0.126 HD
ENDBRANCH   5  32
BRANCH  12  35
HETATM   35  C   UNL     1      40.328 -11.005   1.813  1.00  0.00    -0.005 A 
HETATM   36  C   UNL     1      39.085 -11.403   1.306  1.00  0.00     0.016 A 
HETATM   37  C   UNL     1      38.976 -12.557   0.525  1.00  0.00     0.037 A 
HETATM   38  C   UNL     1      40.103 -13.330   0.239  1.00  0.00     0.068 A 
HETATM   39  C   UNL     1      41.341 -12.948   0.756  1.00  0.00     0.037 A 
HETATM   40  C   UNL     1      41.453 -11.792   1.540  1.00  0.00     0.016 A 
BRANCH  38  41
HETATM   41  O   UNL     1      39.860 -14.434  -0.530  1.00  0.00    -0.356 OA
HETATM   42  C   UNL     1      39.096 -14.231  -1.711  1.00  0.00     0.210 C 
ENDBRANCH  38  41
ENDBRANCH  12  35
TORSDOF 8
ENDMDL
MODEL 3
REMARK VINA RESULT:      -7.6      3.063      6.985
REMARK  8 active torsions:
REMARK  status: ('A' for Active; 'I' for Inactive)
REMARK    1  A    between atoms: C_2  and  O_3 
REMARK    2  A    between atoms: O_3  and  C_4 
REMARK    3  A    between atoms: C_5  and  O_6 
REMARK    4  A    between atoms: O_6  and  C_7 
REMARK       I    between atoms: C_7  and  N_8 
REMARK    5  A    between atoms: C_18  and  C_19 
REMARK    6  A    between atoms: C_23  and  N_24 
REMARK    7  A    between atoms: C_31  and  C_32 
REMARK    8  A    between atoms: C_35  and  O_36 
ROOT
HETATM    1  C   UNL     1      41.356 -13.396   6.139  1.00  0.00     0.106 A 
HETATM    2  C   UNL     1      41.668 -14.810   6.639  1.00  0.00     0.081 A 
HETATM    3  C   UNL     1      40.664 -15.800   6.426  1.00  0.00     0.100 C 
HETATM    4  N   UNL     1      39.835 -16.591   6.240  1.00  0.00    -0.191 NA
HETATM    5  C   UNL     1      42.802 -15.122   7.323  1.00  0.00     0.140 A 
HETATM    6  O   UNL     1      43.784 -14.161   7.615  1.00  0.00    -0.279 OA
HETATM    7  C   UNL     1      43.518 -12.915   7.243  1.00  0.00     0.175 A 
HETATM    8  C   UNL     1      42.425 -12.445   6.563  1.00  0.00     0.040 A 
HETATM    9  N   UNL     1      44.329 -11.853   7.472  1.00  0.00    -0.256 N 
HETATM   10  H   UNL     1      45.223 -11.836   7.948  1.00  0.00     0.191 HD
HETATM   11  N   UNL     1      43.838 -10.707   6.968  1.00  0.00    -0.172 NA
HETATM   12  C   UNL     1      42.654 -11.047   6.422  1.00  0.00     0.099 A 
ENDROOT
BRANCH   1  13
HETATM   13  C   UNL     1      41.215 -13.317   4.619  1.00  0.00    -0.040 A 
HETATM   14  C   UNL     1      40.171 -12.635   3.966  1.00  0.00     0.030 A 
HETATM   15  C   UNL     1      40.060 -12.667   2.576  1.00  0.00     0.048 A 
HETATM   16  C   UNL     1      41.026 -13.331   1.817  1.00  0.00     0.131 A 
HETATM   17 BR   UNL     1      38.582 -11.801   1.762  1.00  0.00    -0.048 Br
HETATM   18  C   UNL     1      42.148 -13.906   2.426  1.00  0.00     0.104 A 
HETATM   19  C   UNL     1      42.211 -13.930   3.822  1.00  0.00     0.048 A 
BRANCH  16  20
HETATM   20  O   UNL     1      40.889 -13.373   0.425  1.00  0.00    -0.257 OA
BRANCH  20  21
HETATM   21  C   UNL     1      40.112 -14.446   0.000  1.00  0.00     0.368 C 
HETATM   22  N   UNL     1      39.724 -14.326  -1.324  1.00  0.00    -0.324 N 
HETATM   23  C   UNL     1      39.121 -15.475  -1.994  1.00  0.00     0.154 C 
HETATM   24  C   UNL     1      40.197 -13.265  -2.210  1.00  0.00     0.154 C 
HETATM   25  C   UNL     1      38.115 -15.034  -3.059  1.00  0.00     0.187 C 
HETATM   26  O   UNL     1      38.704 -14.092  -3.969  1.00  0.00    -0.388 OA
HETATM   27  C   UNL     1      39.139 -12.919  -3.265  1.00  0.00     0.187 C 
HETATM   28  O   UNL     1      39.776 -15.393   0.708  1.00  0.00    -0.238 OA
ENDBRANCH  20  21
ENDBRANCH  16  20
BRANCH  18  29
HETATM   29  O   UNL     1      43.094 -14.426   1.585  1.00  0.00    -0.349 OA
BRANCH  29  30
HETATM   30  C   UNL     1      43.651 -15.707   1.882  1.00  0.00     0.171 C 
HETATM   31  C   UNL     1      42.573 -16.771   2.023  1.00  0.00     0.034 C 
ENDBRANCH  29  30
ENDBRANCH  18  29
ENDBRANCH   1  13
BRANCH   5  32
HETATM   32  N   UNL     1      43.121 -16.368   7.814  1.00  0.00    -0.282 NA
HETATM   33  H   UNL     1      43.164 -16.447   8.827  1.00  0.00     0.126 HD
HETATM   34  H   UNL     1      42.570 -17.105   7.380  1.00  0.00     0.126 HD
ENDBRANCH   5  32
BRANCH  12  35
HETATM   35  C   UNL     1      41.829 -10.048   5.747  1.00  0.00    -0.005 A 
HETATM   36  C   UNL     1      42.036  -9.777   4.389  1.00  0.00     0.016 A 
HETATM   37  C   UNL     1      41.237  -8.844   3.725  1.00  0.00     0.037 A 
HETATM   38  C   UNL     1      40.222  -8.168   4.402  1.00  0.00     0.068 A 
HETATM   39  C   UNL     1      40.022  -8.421   5.760  1.00  0.00     0.037 A 
HETATM   40  C   UNL     1      40.822  -9.355   6.429  1.00  0.00     0.016 A 
BRANCH  38  41
HETATM   41  O   UNL     1      39.517  -7.278   3.639  1.00  0.00    -0.356 OA
HETATM   42  C   UNL     1      40.104  -6.896   2.403  1.00  0.00     0.210 C 
ENDBRANCH  38  41
ENDBRANCH  12  35
TORSDOF 8
ENDMDL
MODEL 4
REMARK VINA RESULT:      -7.5      5.647     10.937
REMARK  8 active torsions:
REMARK  status: ('A' for Active; 'I' for Inactive)
REMARK    1  A    between atoms: C_2  and  O_3 
REMARK    2  A    between atoms: O_3  and  C_4 
REMARK    3  A    between atoms: C_5  and  O_6 
REMARK    4  A    between atoms: O_6  and  C_7 
REMARK       I    between atoms: C_7  and  N_8 
REMARK    5  A    between atoms: C_18  and  C_19 
REMARK    6  A    between atoms: C_23  and  N_24 
REMARK    7  A    between atoms: C_31  and  C_32 
REMARK    8  A    between atoms: C_35  and  O_36 
ROOT
HETATM    1  C   UNL     1      42.622 -10.823   7.020  1.00  0.00     0.106 A 
HETATM    2  C   UNL     1      42.531 -11.278   5.559  1.00  0.00     0.081 A 
HETATM    3  C   UNL     1      41.235 -11.623   5.076  1.00  0.00     0.100 C 
HETATM    4  N   UNL     1      40.170 -11.896   4.703  1.00  0.00    -0.191 NA
HETATM    5  C   UNL     1      43.621 -11.430   4.760  1.00  0.00     0.140 A 
HETATM    6  O   UNL     1      44.923 -11.168   5.219  1.00  0.00    -0.279 OA
HETATM    7  C   UNL     1      45.041 -10.825   6.495  1.00  0.00     0.175 A 
HETATM    8  C   UNL     1      44.047 -10.643   7.422  1.00  0.00     0.040 A 
HETATM    9  N   UNL     1      46.217 -10.572   7.119  1.00  0.00    -0.256 N 
HETATM   10  H   UNL     1      47.153 -10.609   6.735  1.00  0.00     0.191 HD
HETATM   11  N   UNL     1      46.055 -10.218   8.407  1.00  0.00    -0.172 NA
HETATM   12  C   UNL     1      44.726 -10.277   8.619  1.00  0.00     0.099 A 
ENDROOT
BRANCH   1  13
HETATM   13  C   UNL     1      41.877  -9.515   7.285  1.00  0.00    -0.040 A 
HETATM   14  C   UNL     1      42.020  -8.361   6.493  1.00  0.00     0.030 A 
HETATM   15  C   UNL     1      41.368  -7.177   6.837  1.00  0.00     0.048 A 
HETATM   16  C   UNL     1      40.516  -7.149   7.942  1.00  0.00     0.131 A 
HETATM   17 BR   UNL     1      41.671  -5.633   5.778  1.00  0.00    -0.048 Br
HETATM   18  C   UNL     1      40.247  -8.312   8.673  1.00  0.00     0.104 A 
HETATM   19  C   UNL     1      40.962  -9.474   8.364  1.00  0.00     0.048 A 
BRANCH  16  20
HETATM   20  O   UNL     1      39.886  -5.947   8.287  1.00  0.00    -0.257 OA
BRANCH  20  21
HETATM   21  C   UNL     1      40.530  -5.292   9.332  1.00  0.00     0.368 C 
HETATM   22  N   UNL     1      39.639  -4.700  10.212  1.00  0.00    -0.324 N 
HETATM   23  C   UNL     1      40.135  -4.189  11.487  1.00  0.00     0.154 C 
HETATM   24  C   UNL     1      38.190  -4.868  10.129  1.00  0.00     0.154 C 
HETATM   25  C   UNL     1      39.321  -2.981  11.957  1.00  0.00     0.187 C 
HETATM   26  O   UNL     1      37.916  -3.278  11.974  1.00  0.00    -0.388 OA
HETATM   27  C   UNL     1      37.463  -3.626  10.657  1.00  0.00     0.187 C 
HETATM   28  O   UNL     1      41.749  -5.213   9.467  1.00  0.00    -0.238 OA
ENDBRANCH  20  21
ENDBRANCH  16  20
BRANCH  18  29
HETATM   29  O   UNL     1      39.308  -8.204   9.662  1.00  0.00    -0.349 OA
BRANCH  29  30
HETATM   30  C   UNL     1      39.555  -8.835  10.919  1.00  0.00     0.171 C 
HETATM   31  C   UNL     1      39.424  -7.855  12.075  1.00  0.00     0.034 C 
ENDBRANCH  29  30
ENDBRANCH  18  29
ENDBRANCH   1  13
BRANCH   5  32
HETATM   32  N   UNL     1      43.599 -11.857   3.451  1.00  0.00    -0.282 NA
HETATM   33  H   UNL     1      44.327 -12.517   3.188  1.00  0.00     0.126 HD
HETATM   34  H   UNL     1      42.670 -12.150   3.158  1.00  0.00     0.126 HD
ENDBRANCH   5  32
BRANCH  12  35
HETATM   35  C   UNL     1      44.162  -9.930   9.920  1.00  0.00    -0.005 A 
HETATM   36  C   UNL     1      43.953  -8.586  10.252  1.00  0.00     0.016 A 
HETATM   37  C   UNL     1      43.390  -8.241  11.483  1.00  0.00     0.037 A 
HETATM   38  C   UNL     1      43.026  -9.229  12.400  1.00  0.00     0.068 A 
HETATM   39  C   UNL     1      43.248 -10.569  12.082  1.00  0.00     0.037 A 
HETATM   40  C   UNL     1      43.814 -10.918  10.849  1.00  0.00     0.016 A 
BRANCH  38  41
HETATM   41  O   UNL     1      42.490  -8.758  13.567  1.00  0.00    -0.356 OA
HETATM   42  C   UNL     1      42.925  -7.474  13.994  1.00  0.00     0.210 C 
ENDBRANCH  38  41
ENDBRANCH  12  35
TORSDOF 8
ENDMDL
MODEL 5
REMARK VINA RESULT:      -7.3      2.138      5.232
REMARK  8 active torsions:
REMARK  status: ('A' for Active; 'I' for Inactive)
REMARK    1  A    between atoms: C_2  and  O_3 
REMARK    2  A    between atoms: O_3  and  C_4 
REMARK    3  A    between atoms: C_5  and  O_6 
REMARK    4  A    between atoms: O_6  and  C_7 
REMARK       I    between atoms: C_7  and  N_8 
REMARK    5  A    between atoms: C_18  and  C_19 
REMARK    6  A    between atoms: C_23  and  N_24 
REMARK    7  A    between atoms: C_31  and  C_32 
REMARK    8  A    between atoms: C_35  and  O_36 
ROOT
HETATM    1  C   UNL     1      39.872 -11.084  -0.147  1.00  0.00     0.106 A 
HETATM    2  C   UNL     1      39.551 -11.665  -1.528  1.00  0.00     0.081 A 
HETATM    3  C   UNL     1      40.661 -12.094  -2.315  1.00  0.00     0.100 C 
HETATM    4  N   UNL     1      41.578 -12.439  -2.937  1.00  0.00    -0.191 NA
HETATM    5  C   UNL     1      38.291 -11.715  -2.039  1.00  0.00     0.140 A 
HETATM    6  O   UNL     1      37.179 -11.239  -1.324  1.00  0.00    -0.279 OA
HETATM    7  C   UNL     1      37.429 -10.679  -0.148  1.00  0.00     0.175 A 
HETATM    8  C   UNL     1      38.635 -10.546   0.492  1.00  0.00     0.040 A 
HETATM    9  N   UNL     1      36.489 -10.134   0.662  1.00  0.00    -0.256 N 
HETATM   10  H   UNL     1      35.491 -10.061   0.506  1.00  0.00     0.191 HD
HETATM   11  N   UNL     1      37.005  -9.659   1.810  1.00  0.00    -0.172 NA
HETATM   12  C   UNL     1      38.330  -9.884   1.714  1.00  0.00     0.099 A 
ENDROOT
BRANCH   1  13
HETATM   13  C   UNL     1      40.498 -12.107   0.801  1.00  0.00    -0.040 A 
HETATM   14  C   UNL     1      39.999 -13.410   0.983  1.00  0.00     0.030 A 
HETATM   15  C   UNL     1      40.574 -14.267   1.922  1.00  0.00     0.048 A 
HETATM   16  C   UNL     1      41.693 -13.854   2.646  1.00  0.00     0.131 A 
HETATM   17 BR   UNL     1      39.800 -15.979   2.182  1.00  0.00    -0.048 Br
HETATM   18  C   UNL     1      42.295 -12.615   2.395  1.00  0.00     0.104 A 
HETATM   19  C   UNL     1      41.668 -11.737   1.505  1.00  0.00     0.048 A 
BRANCH  16  20
HETATM   20  O   UNL     1      42.245 -14.717   3.600  1.00  0.00    -0.257 OA
BRANCH  20  21
HETATM   21  C   UNL     1      43.015 -15.722   3.023  1.00  0.00     0.368 C 
HETATM   22  N   UNL     1      43.181 -16.808   3.865  1.00  0.00    -0.324 N 
HETATM   23  C   UNL     1      43.747 -18.043   3.328  1.00  0.00     0.154 C 
HETATM   24  C   UNL     1      42.506 -16.942   5.154  1.00  0.00     0.154 C 
HETATM   25  C   UNL     1      44.542 -18.801   4.393  1.00  0.00     0.187 C 
HETATM   26  O   UNL     1      43.757 -19.007   5.577  1.00  0.00    -0.388 OA
HETATM   27  C   UNL     1      43.361 -17.747   6.140  1.00  0.00     0.187 C 
HETATM   28  O   UNL     1      43.519 -15.665   1.904  1.00  0.00    -0.238 OA
ENDBRANCH  20  21
ENDBRANCH  16  20
BRANCH  18  29
HETATM   29  O   UNL     1      43.455 -12.356   3.072  1.00  0.00    -0.349 OA
BRANCH  29  30
HETATM   30  C   UNL     1      43.529 -11.188   3.891  1.00  0.00     0.171 C 
HETATM   31  C   UNL     1      43.952 -11.524   5.313  1.00  0.00     0.034 C 
ENDBRANCH  29  30
ENDBRANCH  18  29
ENDBRANCH   1  13
BRANCH   5  32
HETATM   32  N   UNL     1      37.951 -12.204  -3.280  1.00  0.00    -0.282 NA
HETATM   33  H   UNL     1      37.115 -11.805  -3.699  1.00  0.00     0.126 HD
HETATM   34  H   UNL     1      38.745 -12.225  -3.916  1.00  0.00     0.126 HD
ENDBRANCH   5  32
BRANCH  12  35
HETATM   35  C   UNL     1      39.229  -9.516   2.804  1.00  0.00    -0.005 A 
HETATM   36  C   UNL     1      40.047  -8.386   2.681  1.00  0.00     0.016 A 
HETATM   37  C   UNL     1      40.892  -8.007   3.727  1.00  0.00     0.037 A 
HETATM   38  C   UNL     1      40.935  -8.748   4.910  1.00  0.00     0.068 A 
HETATM   39  C   UNL     1      40.135  -9.885   5.031  1.00  0.00     0.037 A 
HETATM   40  C   UNL     1      39.288 -10.268   3.984  1.00  0.00     0.016 A 
BRANCH  38  41
HETATM   41  O   UNL     1      41.806  -8.274   5.851  1.00  0.00    -0.356 OA
HETATM   42  C   UNL     1      41.859  -8.983   7.082  1.00  0.00     0.210 C 
ENDBRANCH  38  41
ENDBRANCH  12  35
TORSDOF 8
ENDMDL
MODEL 6
REMARK VINA RESULT:      -7.2      3.014      6.022
REMARK  8 active torsions:
REMARK  status: ('A' for Active; 'I' for Inactive)
REMARK    1  A    between atoms: C_2  and  O_3 
REMARK    2  A    between atoms: O_3  and  C_4 
REMARK    3  A    between atoms: C_5  and  O_6 
REMARK    4  A    between atoms: O_6  and  C_7 
REMARK       I    between atoms: C_7  and  N_8 
REMARK    5  A    between atoms: C_18  and  C_19 
REMARK    6  A    between atoms: C_23  and  N_24 
REMARK    7  A    between atoms: C_31  and  C_32 
REMARK    8  A    between atoms: C_35  and  O_36 
ROOT
HETATM    1  C   UNL     1      37.903 -11.580  -0.054  1.00  0.00     0.106 A 
HETATM    2  C   UNL     1      36.961 -10.583  -0.736  1.00  0.00     0.081 A 
HETATM    3  C   UNL     1      35.875 -10.090   0.047  1.00  0.00     0.100 C 
HETATM    4  N   UNL     1      35.001  -9.700   0.703  1.00  0.00    -0.191 NA
HETATM    5  C   UNL     1      37.080 -10.224  -2.043  1.00  0.00     0.140 A 
HETATM    6  O   UNL     1      38.093 -10.740  -2.867  1.00  0.00    -0.279 OA
HETATM    7  C   UNL     1      38.892 -11.647  -2.322  1.00  0.00     0.175 A 
HETATM    8  C   UNL     1      38.892 -12.117  -1.034  1.00  0.00     0.040 A 
HETATM    9  N   UNL     1      39.899 -12.279  -2.973  1.00  0.00    -0.256 N 
HETATM   10  H   UNL     1      40.186 -12.173  -3.939  1.00  0.00     0.191 HD
HETATM   11  N   UNL     1      40.574 -13.132  -2.183  1.00  0.00    -0.172 NA
HETATM   12  C   UNL     1      39.954 -13.063  -0.988  1.00  0.00     0.099 A 
ENDROOT
BRANCH   1  13
HETATM   13  C   UNL     1      38.670 -10.970   1.120  1.00  0.00    -0.040 A 
HETATM   14  C   UNL     1      39.301  -9.713   1.071  1.00  0.00     0.030 A 
HETATM   15  C   UNL     1      40.049  -9.250   2.153  1.00  0.00     0.048 A 
HETATM   16  C   UNL     1      40.125 -10.010   3.321  1.00  0.00     0.131 A 
HETATM   17 BR   UNL     1      40.947  -7.587   1.992  1.00  0.00    -0.048 Br
HETATM   18  C   UNL     1      39.401 -11.202   3.452  1.00  0.00     0.104 A 
HETATM   19  C   UNL     1      38.715 -11.691   2.337  1.00  0.00     0.048 A 
BRANCH  16  20
HETATM   20  O   UNL     1      40.897  -9.542   4.391  1.00  0.00    -0.257 OA
BRANCH  20  21
HETATM   21  C   UNL     1      42.108 -10.218   4.506  1.00  0.00     0.368 C 
HETATM   22  N   UNL     1      42.524 -10.334   5.823  1.00  0.00    -0.324 N 
HETATM   23  C   UNL     1      43.637 -11.224   6.139  1.00  0.00     0.154 C 
HETATM   24  C   UNL     1      41.712  -9.921   6.965  1.00  0.00     0.154 C 
HETATM   25  C   UNL     1      44.434 -10.713   7.341  1.00  0.00     0.187 C 
HETATM   26  O   UNL     1      43.575 -10.461   8.463  1.00  0.00    -0.388 OA
HETATM   27  C   UNL     1      42.597  -9.464   8.130  1.00  0.00     0.187 C 
HETATM   28  O   UNL     1      42.764 -10.650   3.562  1.00  0.00    -0.238 OA
ENDBRANCH  20  21
ENDBRANCH  16  20
BRANCH  18  29
HETATM   29  O   UNL     1      39.448 -11.809   4.677  1.00  0.00    -0.349 OA
BRANCH  29  30
HETATM   30  C   UNL     1      39.823 -13.185   4.751  1.00  0.00     0.171 C 
HETATM   31  C   UNL     1      40.604 -13.488   6.020  1.00  0.00     0.034 C 
ENDBRANCH  29  30
ENDBRANCH  18  29
ENDBRANCH   1  13
BRANCH   5  32
HETATM   32  N   UNL     1      36.249  -9.352  -2.710  1.00  0.00    -0.282 NA
HETATM   33  H   UNL     1      35.788  -9.725  -3.537  1.00  0.00     0.126 HD
HETATM   34  H   UNL     1      35.610  -8.872  -2.081  1.00  0.00     0.126 HD
ENDBRANCH   5  32
BRANCH  12  35
HETATM   35  C   UNL     1      40.433 -13.848   0.147  1.00  0.00    -0.005 A 
HETATM   36  C   UNL     1      39.824 -15.070   0.454  1.00  0.00     0.016 A 
HETATM   37  C   UNL     1      40.289 -15.843   1.521  1.00  0.00     0.037 A 
HETATM   38  C   UNL     1      41.367 -15.410   2.295  1.00  0.00     0.068 A 
HETATM   39  C   UNL     1      41.967 -14.184   2.004  1.00  0.00     0.037 A 
HETATM   40  C   UNL     1      41.501 -13.406   0.936  1.00  0.00     0.016 A 
BRANCH  38  41
HETATM   41  O   UNL     1      41.720 -16.256   3.310  1.00  0.00    -0.356 OA
HETATM   42  C   UNL     1      43.099 -16.299   3.651  1.00  0.00     0.210 C 
ENDBRANCH  38  41
ENDBRANCH  12  35
TORSDOF 8
ENDMDL
MODEL 7
REMARK VINA RESULT:      -7.2      5.204     10.764
REMARK  8 active torsions:
REMARK  status: ('A' for Active; 'I' for Inactive)
REMARK    1  A    between atoms: C_2  and  O_3 
REMARK    2  A    between atoms: O_3  and  C_4 
REMARK    3  A    between atoms: C_5  and  O_6 
REMARK    4  A    between atoms: O_6  and  C_7 
REMARK       I    between atoms: C_7  and  N_8 
REMARK    5  A    between atoms: C_18  and  C_19 
REMARK    6  A    between atoms: C_23  and  N_24 
REMARK    7  A    between atoms: C_31  and  C_32 
REMARK    8  A    between atoms: C_35  and  O_36 
ROOT
HETATM    1  C   UNL     1      42.613 -10.938   6.952  1.00  0.00     0.106 A 
HETATM    2  C   UNL     1      42.599 -11.469   5.515  1.00  0.00     0.081 A 
HETATM    3  C   UNL     1      41.349 -11.947   5.021  1.00  0.00     0.100 C 
HETATM    4  N   UNL     1      40.322 -12.328   4.639  1.00  0.00    -0.191 NA
HETATM    5  C   UNL     1      43.719 -11.564   4.748  1.00  0.00     0.140 A 
HETATM    6  O   UNL     1      44.981 -11.169   5.221  1.00  0.00    -0.279 OA
HETATM    7  C   UNL     1      45.036 -10.756   6.481  1.00  0.00     0.175 A 
HETATM    8  C   UNL     1      44.007 -10.616   7.376  1.00  0.00     0.040 A 
HETATM    9  N   UNL     1      46.169 -10.372   7.117  1.00  0.00    -0.256 N 
HETATM   10  H   UNL     1      47.115 -10.346   6.755  1.00  0.00     0.191 HD
HETATM   11  N   UNL     1      45.945  -9.972   8.381  1.00  0.00    -0.172 NA
HETATM   12  C   UNL     1      44.620 -10.136   8.567  1.00  0.00     0.099 A 
ENDROOT
BRANCH   1  13
HETATM   13  C   UNL     1      41.752  -9.688   7.136  1.00  0.00    -0.040 A 
HETATM   14  C   UNL     1      41.914  -8.511   6.382  1.00  0.00     0.030 A 
HETATM   15  C   UNL     1      41.145  -7.380   6.653  1.00  0.00     0.048 A 
HETATM   16  C   UNL     1      40.161  -7.431   7.642  1.00  0.00     0.131 A 
HETATM   17 BR   UNL     1      41.472  -5.799   5.659  1.00  0.00    -0.048 Br
HETATM   18  C   UNL     1      39.882  -8.625   8.319  1.00  0.00     0.104 A 
HETATM   19  C   UNL     1      40.708  -9.729   8.090  1.00  0.00     0.048 A 
BRANCH  16  20
HETATM   20  O   UNL     1      39.412  -6.282   7.918  1.00  0.00    -0.257 OA
BRANCH  20  21
HETATM   21  C   UNL     1      38.221  -6.239   7.199  1.00  0.00     0.368 C 
HETATM   22  N   UNL     1      37.493  -5.088   7.452  1.00  0.00    -0.324 N 
HETATM   23  C   UNL     1      36.350  -4.771   6.600  1.00  0.00     0.154 C 
HETATM   24  C   UNL     1      37.988  -3.982   8.268  1.00  0.00     0.154 C 
HETATM   25  C   UNL     1      35.271  -4.013   7.376  1.00  0.00     0.187 C 
HETATM   26  O   UNL     1      35.820  -2.863   8.038  1.00  0.00    -0.388 OA
HETATM   27  C   UNL     1      36.834  -3.262   8.974  1.00  0.00     0.187 C 
HETATM   28  O   UNL     1      37.828  -7.121   6.440  1.00  0.00    -0.238 OA
ENDBRANCH  20  21
ENDBRANCH  16  20
BRANCH  18  29
HETATM   29  O   UNL     1      38.821  -8.599   9.182  1.00  0.00    -0.349 OA
BRANCH  29  30
HETATM   30  C   UNL     1      39.075  -8.603  10.588  1.00  0.00     0.171 C 
HETATM   31  C   UNL     1      38.771  -7.254  11.219  1.00  0.00     0.034 C 
ENDBRANCH  29  30
ENDBRANCH  18  29
ENDBRANCH   1  13
BRANCH   5  32
HETATM   32  N   UNL     1      43.767 -12.053   3.462  1.00  0.00    -0.282 NA
HETATM   33  H   UNL     1      44.546 -12.672   3.252  1.00  0.00     0.126 HD
HETATM   34  H   UNL     1      42.870 -12.425   3.158  1.00  0.00     0.126 HD
ENDBRANCH   5  32
BRANCH  12  35
HETATM   35  C   UNL     1      43.995  -9.777   9.837  1.00  0.00    -0.005 A 
HETATM   36  C   UNL     1      43.791 -10.758  10.815  1.00  0.00     0.016 A 
HETATM   37  C   UNL     1      43.218 -10.422  12.044  1.00  0.00     0.037 A 
HETATM   38  C   UNL     1      42.842  -9.106  12.317  1.00  0.00     0.068 A 
HETATM   39  C   UNL     1      43.027  -8.127  11.340  1.00  0.00     0.037 A 
HETATM   40  C   UNL     1      43.600  -8.461  10.106  1.00  0.00     0.016 A 
BRANCH  38  41
HETATM   41  O   UNL     1      42.290  -8.913  13.553  1.00  0.00    -0.356 OA
HETATM   42  C   UNL     1      40.928  -9.289  13.708  1.00  0.00     0.210 C 
ENDBRANCH  38  41
ENDBRANCH  12  35
TORSDOF 8
ENDMDL
MODEL 8
REMARK VINA RESULT:      -7.1      5.873      9.028
REMARK  8 active torsions:
REMARK  status: ('A' for Active; 'I' for Inactive)
REMARK    1  A    between atoms: C_2  and  O_3 
REMARK    2  A    between atoms: O_3  and  C_4 
REMARK    3  A    between atoms: C_5  and  O_6 
REMARK    4  A    between atoms: O_6  and  C_7 
REMARK       I    between atoms: C_7  and  N_8 
REMARK    5  A    between atoms: C_18  and  C_19 
REMARK    6  A    between atoms: C_23  and  N_24 
REMARK    7  A    between atoms: C_31  and  C_32 
REMARK    8  A    between atoms: C_35  and  O_36 
ROOT
HETATM    1  C   UNL     1      40.567  -7.803  11.970  1.00  0.00     0.106 A 
HETATM    2  C   UNL     1      40.690  -8.548  13.304  1.00  0.00     0.081 A 
HETATM    3  C   UNL     1      40.204  -9.889  13.335  1.00  0.00     0.100 C 
HETATM    4  N   UNL     1      39.804 -10.979  13.337  1.00  0.00    -0.191 NA
HETATM    5  C   UNL     1      41.163  -7.966  14.439  1.00  0.00     0.140 A 
HETATM    6  O   UNL     1      41.587  -6.627  14.468  1.00  0.00    -0.279 OA
HETATM    7  C   UNL     1      41.442  -5.938  13.343  1.00  0.00     0.175 A 
HETATM    8  C   UNL     1      40.975  -6.377  12.131  1.00  0.00     0.040 A 
HETATM    9  N   UNL     1      41.761  -4.630  13.194  1.00  0.00    -0.256 N 
HETATM   10  H   UNL     1      42.137  -3.992  13.886  1.00  0.00     0.191 HD
HETATM   11  N   UNL     1      41.544  -4.181  11.945  1.00  0.00    -0.172 NA
HETATM   12  C   UNL     1      41.038  -5.238  11.280  1.00  0.00     0.099 A 
ENDROOT
BRANCH   1  13
HETATM   13  C   UNL     1      41.413  -8.425  10.859  1.00  0.00    -0.040 A 
HETATM   14  C   UNL     1      42.782  -8.722  10.994  1.00  0.00     0.030 A 
HETATM   15  C   UNL     1      43.512  -9.218   9.913  1.00  0.00     0.048 A 
HETATM   16  C   UNL     1      42.868  -9.481   8.703  1.00  0.00     0.131 A 
HETATM   17 BR   UNL     1      45.372  -9.516  10.134  1.00  0.00    -0.048 Br
HETATM   18  C   UNL     1      41.483  -9.323   8.575  1.00  0.00     0.104 A 
HETATM   19  C   UNL     1      40.776  -8.757   9.640  1.00  0.00     0.048 A 
BRANCH  16  20
HETATM   20  O   UNL     1      43.619  -9.958   7.622  1.00  0.00    -0.257 OA
BRANCH  20  21
HETATM   21  C   UNL     1      43.647 -11.348   7.568  1.00  0.00     0.368 C 
HETATM   22  N   UNL     1      43.366 -11.833   6.301  1.00  0.00    -0.324 N 
HETATM   23  C   UNL     1      43.597 -13.246   6.015  1.00  0.00     0.154 C 
HETATM   24  C   UNL     1      43.199 -10.978   5.128  1.00  0.00     0.154 C 
HETATM   25  C   UNL     1      42.608 -13.772   4.973  1.00  0.00     0.187 C 
HETATM   26  O   UNL     1      42.608 -12.949   3.796  1.00  0.00    -0.388 OA
HETATM   27  C   UNL     1      42.223 -11.605   4.126  1.00  0.00     0.187 C 
HETATM   28  O   UNL     1      43.871 -12.083   8.526  1.00  0.00    -0.238 OA
ENDBRANCH  20  21
ENDBRANCH  16  20
BRANCH  18  29
HETATM   29  O   UNL     1      40.934  -9.720   7.387  1.00  0.00    -0.349 OA
BRANCH  29  30
HETATM   30  C   UNL     1      40.581  -8.727   6.423  1.00  0.00     0.171 C 
HETATM   31  C   UNL     1      39.081  -8.483   6.391  1.00  0.00     0.034 C 
ENDBRANCH  29  30
ENDBRANCH  18  29
ENDBRANCH   1  13
BRANCH   5  32
HETATM   32  N   UNL     1      41.273  -8.581  15.666  1.00  0.00    -0.282 NA
HETATM   33  H   UNL     1      41.971  -8.192  16.295  1.00  0.00     0.126 HD
HETATM   34  H   UNL     1      40.368  -8.717  16.110  1.00  0.00     0.126 HD
ENDBRANCH   5  32
BRANCH  12  35
HETATM   35  C   UNL     1      40.697  -5.134   9.864  1.00  0.00    -0.005 A 
HETATM   36  C   UNL     1      41.697  -5.273   8.894  1.00  0.00     0.016 A 
HETATM   37  C   UNL     1      41.379  -5.203   7.536  1.00  0.00     0.037 A 
HETATM   38  C   UNL     1      40.062  -4.992   7.124  1.00  0.00     0.068 A 
HETATM   39  C   UNL     1      39.064  -4.834   8.086  1.00  0.00     0.037 A 
HETATM   40  C   UNL     1      39.379  -4.904   9.449  1.00  0.00     0.016 A 
BRANCH  38  41
HETATM   41  O   UNL     1      39.887  -4.939   5.769  1.00  0.00    -0.356 OA
HETATM   42  C   UNL     1      41.024  -5.233   4.968  1.00  0.00     0.210 C 
ENDBRANCH  38  41
ENDBRANCH  12  35
TORSDOF 8
ENDMDL
MODEL 9
REMARK VINA RESULT:      -7.1     18.165     20.259
REMARK  8 active torsions:
REMARK  status: ('A' for Active; 'I' for Inactive)
REMARK    1  A    between atoms: C_2  and  O_3 
REMARK    2  A    between atoms: O_3  and  C_4 
REMARK    3  A    between atoms: C_5  and  O_6 
REMARK    4  A    between atoms: O_6  and  C_7 
REMARK       I    between atoms: C_7  and  N_8 
REMARK    5  A    between atoms: C_18  and  C_19 
REMARK    6  A    between atoms: C_23  and  N_24 
REMARK    7  A    between atoms: C_31  and  C_32 
REMARK    8  A    between atoms: C_35  and  O_36 
ROOT
HETATM    1  C   UNL     1      45.934 -31.003  -1.906  1.00  0.00     0.106 A 
HETATM    2  C   UNL     1      45.135 -31.016  -3.213  1.00  0.00     0.081 A 
HETATM    3  C   UNL     1      44.553 -32.260  -3.595  1.00  0.00     0.100 C 
HETATM    4  N   UNL     1      44.086 -33.282  -3.886  1.00  0.00    -0.191 NA
HETATM    5  C   UNL     1      45.031 -29.933  -4.030  1.00  0.00     0.140 A 
HETATM    6  O   UNL     1      45.648 -28.708  -3.725  1.00  0.00    -0.279 OA
HETATM    7  C   UNL     1      46.392 -28.680  -2.627  1.00  0.00     0.175 A 
HETATM    8  C   UNL     1      46.602 -29.683  -1.716  1.00  0.00     0.040 A 
HETATM    9  N   UNL     1      47.089 -27.600  -2.196  1.00  0.00    -0.256 N 
HETATM   10  H   UNL     1      47.158 -26.685  -2.625  1.00  0.00     0.191 HD
HETATM   11  N   UNL     1      47.738 -27.829  -1.041  1.00  0.00    -0.172 NA
HETATM   12  C   UNL     1      47.469 -29.115  -0.740  1.00  0.00     0.099 A 
ENDROOT
BRANCH   1  13
HETATM   13  C   UNL     1      45.071 -31.288  -0.676  1.00  0.00    -0.040 A 
HETATM   14  C   UNL     1      44.080 -30.410  -0.198  1.00  0.00     0.030 A 
HETATM   15  C   UNL     1      43.382 -30.698   0.975  1.00  0.00     0.048 A 
HETATM   16  C   UNL     1      43.622 -31.895   1.651  1.00  0.00     0.131 A 
HETATM   17 BR   UNL     1      42.121 -29.433   1.614  1.00  0.00    -0.048 Br
HETATM   18  C   UNL     1      44.504 -32.850   1.131  1.00  0.00     0.104 A 
HETATM   19  C   UNL     1      45.250 -32.520  -0.004  1.00  0.00     0.048 A 
BRANCH  16  20
HETATM   20  O   UNL     1      42.929 -32.159   2.838  1.00  0.00    -0.257 OA
BRANCH  20  21
HETATM   21  C   UNL     1      41.670 -32.703   2.607  1.00  0.00     0.368 C 
HETATM   22  N   UNL     1      40.777 -32.419   3.628  1.00  0.00    -0.324 N 
HETATM   23  C   UNL     1      39.358 -32.700   3.428  1.00  0.00     0.154 C 
HETATM   24  C   UNL     1      41.086 -31.531   4.747  1.00  0.00     0.154 C 
HETATM   25  C   UNL     1      38.672 -33.066   4.746  1.00  0.00     0.187 C 
HETATM   26  O   UNL     1      38.916 -32.070   5.752  1.00  0.00    -0.388 OA
HETATM   27  C   UNL     1      40.324 -31.954   6.009  1.00  0.00     0.187 C 
HETATM   28  O   UNL     1      41.366 -33.380   1.628  1.00  0.00    -0.238 OA
ENDBRANCH  20  21
ENDBRANCH  16  20
BRANCH  18  29
HETATM   29  O   UNL     1      44.578 -34.038   1.805  1.00  0.00    -0.349 OA
BRANCH  29  30
HETATM   30  C   UNL     1      45.844 -34.468   2.308  1.00  0.00     0.171 C 
HETATM   31  C   UNL     1      46.364 -33.539   3.394  1.00  0.00     0.034 C 
ENDBRANCH  29  30
ENDBRANCH  18  29
ENDBRANCH   1  13
BRANCH   5  32
HETATM   32  N   UNL     1      44.347 -29.896  -5.225  1.00  0.00    -0.282 NA
HETATM   33  H   UNL     1      43.582 -30.560  -5.317  1.00  0.00     0.126 HD
HETATM   34  H   UNL     1      44.088 -28.949  -5.490  1.00  0.00     0.126 HD
ENDBRANCH   5  32
BRANCH  12  35
HETATM   35  C   UNL     1      47.994 -29.721   0.481  1.00  0.00    -0.005 A 
HETATM   36  C   UNL     1      47.499 -29.318   1.727  1.00  0.00     0.016 A 
HETATM   37  C   UNL     1      47.973 -29.909   2.900  1.00  0.00     0.037 A 
HETATM   38  C   UNL     1      48.946 -30.908   2.850  1.00  0.00     0.068 A 
HETATM   39  C   UNL     1      49.456 -31.302   1.612  1.00  0.00     0.037 A 
HETATM   40  C   UNL     1      48.983 -30.710   0.433  1.00  0.00     0.016 A 
BRANCH  38  41
HETATM   41  O   UNL     1      49.327 -31.400   4.068  1.00  0.00    -0.356 OA
HETATM   42  C   UNL     1      50.511 -30.852   4.632  1.00  0.00     0.210 C 
ENDBRANCH  38  41
ENDBRANCH  12  35
TORSDOF 8
ENDMDL
MODEL 10
REMARK VINA RESULT:      -7.0      5.445     10.978
REMARK  8 active torsions:
REMARK  status: ('A' for Active; 'I' for Inactive)
REMARK    1  A    between atoms: C_2  and  O_3 
REMARK    2  A    between atoms: O_3  and  C_4 
REMARK    3  A    between atoms: C_5  and  O_6 
REMARK    4  A    between atoms: O_6  and  C_7 
REMARK       I    between atoms: C_7  and  N_8 
REMARK    5  A    between atoms: C_18  and  C_19 
REMARK    6  A    between atoms: C_23  and  N_24 
REMARK    7  A    between atoms: C_31  and  C_32 
REMARK    8  A    between atoms: C_35  and  O_36 
ROOT
HETATM    1  C   UNL     1      42.710 -10.742   7.131  1.00  0.00     0.106 A 
HETATM    2  C   UNL     1      42.684 -11.176   5.662  1.00  0.00     0.081 A 
HETATM    3  C   UNL     1      41.407 -11.481   5.107  1.00  0.00     0.100 C 
HETATM    4  N   UNL     1      40.356 -11.723   4.675  1.00  0.00    -0.191 NA
HETATM    5  C   UNL     1      43.811 -11.344   4.918  1.00  0.00     0.140 A 
HETATM    6  O   UNL     1      45.093 -11.121   5.447  1.00  0.00    -0.279 OA
HETATM    7  C   UNL     1      45.152 -10.798   6.732  1.00  0.00     0.175 A 
HETATM    8  C   UNL     1      44.116 -10.603   7.609  1.00  0.00     0.040 A 
HETATM    9  N   UNL     1      46.299 -10.581   7.421  1.00  0.00    -0.256 N 
HETATM   10  H   UNL     1      47.254 -10.637   7.084  1.00  0.00     0.191 HD
HETATM   11  N   UNL     1      46.079 -10.241   8.703  1.00  0.00    -0.172 NA
HETATM   12  C   UNL     1      44.740 -10.270   8.845  1.00  0.00     0.099 A 
ENDROOT
BRANCH   1  13
HETATM   13  C   UNL     1      41.983  -9.420   7.377  1.00  0.00    -0.040 A 
HETATM   14  C   UNL     1      40.950  -9.261   8.319  1.00  0.00     0.030 A 
HETATM   15  C   UNL     1      40.277  -8.044   8.438  1.00  0.00     0.048 A 
HETATM   16  C   UNL     1      40.670  -6.954   7.660  1.00  0.00     0.131 A 
HETATM   17 BR   UNL     1      38.836  -7.920   9.665  1.00  0.00    -0.048 Br
HETATM   18  C   UNL     1      41.780  -7.040   6.811  1.00  0.00     0.104 A 
HETATM   19  C   UNL     1      42.399  -8.282   6.646  1.00  0.00     0.048 A 
BRANCH  16  20
HETATM   20  O   UNL     1      39.972  -5.747   7.776  1.00  0.00    -0.257 OA
BRANCH  20  21
HETATM   21  C   UNL     1      40.387  -4.996   8.872  1.00  0.00     0.368 C 
HETATM   22  N   UNL     1      39.369  -4.214   9.392  1.00  0.00    -0.324 N 
HETATM   23  C   UNL     1      39.566  -3.561  10.683  1.00  0.00     0.154 C 
HETATM   24  C   UNL     1      37.985  -4.280   8.931  1.00  0.00     0.154 C 
HETATM   25  C   UNL     1      38.801  -2.239  10.761  1.00  0.00     0.187 C 
HETATM   26  O   UNL     1      37.417  -2.420  10.423  1.00  0.00    -0.388 OA
HETATM   27  C   UNL     1      37.291  -2.921   9.083  1.00  0.00     0.187 C 
HETATM   28  O   UNL     1      41.527  -4.994   9.329  1.00  0.00    -0.238 OA
ENDBRANCH  20  21
ENDBRANCH  16  20
BRANCH  18  29
HETATM   29  O   UNL     1      42.155  -5.883   6.184  1.00  0.00    -0.349 OA
BRANCH  29  30
HETATM   30  C   UNL     1      41.861  -5.725   4.795  1.00  0.00     0.171 C 
HETATM   31  C   UNL     1      42.552  -4.503   4.210  1.00  0.00     0.034 C 
ENDBRANCH  29  30
ENDBRANCH  18  29
ENDBRANCH   1  13
BRANCH   5  32
HETATM   32  N   UNL     1      43.846 -11.753   3.603  1.00  0.00    -0.282 NA
HETATM   33  H   UNL     1      44.359 -12.612   3.421  1.00  0.00     0.126 HD
HETATM   34  H   UNL     1      42.926 -11.739   3.171  1.00  0.00     0.126 HD
ENDBRANCH   5  32
BRANCH  12  35
HETATM   35  C   UNL     1      44.117  -9.926  10.120  1.00  0.00    -0.005 A 
HETATM   36  C   UNL     1      43.752 -10.940  11.013  1.00  0.00     0.016 A 
HETATM   37  C   UNL     1      43.180 -10.623  12.248  1.00  0.00     0.037 A 
HETATM   38  C   UNL     1      42.964  -9.293  12.610  1.00  0.00     0.068 A 
HETATM   39  C   UNL     1      43.310  -8.277  11.717  1.00  0.00     0.037 A 
HETATM   40  C   UNL     1      43.883  -8.593  10.478  1.00  0.00     0.016 A 
BRANCH  38  41
HETATM   41  O   UNL     1      42.395  -9.119  13.841  1.00  0.00    -0.356 OA
HETATM   42  C   UNL     1      40.974  -9.092  13.887  1.00  0.00     0.210 C 
ENDBRANCH  38  41
ENDBRANCH  12  35
TORSDOF 8
ENDMDL
