MODEL 1
REMARK VINA RESULT:     -10.9      0.000      0.000
REMARK  7 active torsions:
REMARK  status: ('A' for Active; 'I' for Inactive)
REMARK    1  A    between atoms: C_6  and  N_7 
REMARK       I    between atoms: N_7  and  C_8 
REMARK    2  A    between atoms: C_8  and  C_9 
REMARK    3  A    between atoms: C_9  and  N_10 
REMARK    4  A    between atoms: N_13  and  C_14 
REMARK    5  A    between atoms: C_14  and  C_15 
REMARK    6  A    between atoms: C_30  and  C_31 
REMARK       I    between atoms: C_31  and  N_32 
REMARK    7  A    between atoms: N_32  and  C_33 
ROOT
HETATM    1  N   UNL     1      41.852 -13.453   5.684  1.00  0.00    -0.290 N 
HETATM    2  C   UNL     1      43.003 -13.371   6.457  1.00  0.00     0.332 C 
HETATM    3  O   UNL     1      43.193 -14.173   7.378  1.00  0.00    -0.246 OA
HETATM    4  N   UNL     1      43.921 -12.392   6.121  1.00  0.00    -0.261 N 
HETATM    5  C   UNL     1      43.862 -11.619   4.972  1.00  0.00     0.264 C 
HETATM    6  O   UNL     1      44.719 -10.801   4.647  1.00  0.00    -0.267 OA
HETATM    7  C   UNL     1      42.700 -11.824   4.092  1.00  0.00     0.059 A 
HETATM    8  C   UNL     1      41.708 -12.731   4.469  1.00  0.00     0.056 A 
HETATM    9  C   UNL     1      42.602 -11.095   2.898  1.00  0.00     0.020 A 
HETATM   10  C   UNL     1      41.513 -11.287   2.052  1.00  0.00     0.018 A 
HETATM   11  C   UNL     1      40.524 -12.211   2.394  1.00  0.00     0.034 A 
HETATM   12  C   UNL     1      40.612 -12.913   3.608  1.00  0.00     0.048 A 
ENDROOT
BRANCH   1  13
HETATM   13  C   UNL     1      40.806 -14.380   6.127  1.00  0.00     0.237 C 
BRANCH  13  14
HETATM   14  C   UNL     1      40.972 -15.777   5.525  1.00  0.00     0.240 C 
HETATM   15  N   UNL     1      42.186 -15.950   4.883  1.00  0.00    -0.325 N 
HETATM   16  H   UNL     1      42.889 -15.264   5.146  1.00  0.00     0.169 HD
HETATM   17  O   UNL     1      40.119 -16.637   5.731  1.00  0.00    -0.271 OA
BRANCH  15  18
HETATM   18  C   UNL     1      42.664 -17.108   4.220  1.00  0.00     0.046 A 
HETATM   19  C   UNL     1      43.360 -18.159   4.855  1.00  0.00    -0.034 A 
HETATM   20  C   UNL     1      43.839 -19.236   4.081  1.00  0.00     0.015 A 
HETATM   21  C   UNL     1      43.604 -18.259   6.336  1.00  0.00     0.050 C 
HETATM   22  C   UNL     1      43.598 -19.322   2.710  1.00  0.00    -0.061 A 
HETATM   23  C   UNL     1      44.080 -20.504   1.923  1.00  0.00     0.048 C 
HETATM   24  C   UNL     1      42.835 -18.327   2.104  1.00  0.00     0.015 A 
HETATM   25  C   UNL     1      42.367 -17.221   2.837  1.00  0.00    -0.034 A 
HETATM   26  C   UNL     1      41.575 -16.175   2.091  1.00  0.00     0.050 C 
ENDBRANCH  15  18
ENDBRANCH  13  14
ENDBRANCH   1  13
BRANCH   4  27
HETATM   27  C   UNL     1      45.038 -12.164   7.029  1.00  0.00     0.175 C 
BRANCH  27  28
HETATM   28  C   UNL     1      44.754 -11.003   7.962  1.00  0.00    -0.037 A 
HETATM   29  C   UNL     1      43.712 -11.087   8.901  1.00  0.00     0.048 A 
HETATM   30  C   UNL     1      43.527 -10.029   9.765  1.00  0.00     0.105 A 
HETATM   31  C   UNL     1      44.327  -8.913   9.727  1.00  0.00     0.105 A 
HETATM   32  O   UNL     1      42.579  -9.955  10.739  1.00  0.00    -0.323 OA
HETATM   33  O   UNL     1      43.982  -7.994  10.669  1.00  0.00    -0.323 OA
HETATM   34  C   UNL     1      45.357  -8.790   8.821  1.00  0.00     0.040 A 
HETATM   35  C   UNL     1      42.880  -8.667  11.313  1.00  0.00     0.352 A 
HETATM   36  C   UNL     1      45.573  -9.849   7.934  1.00  0.00     0.012 A 
ENDBRANCH  27  28
ENDBRANCH   4  27
BRANCH  11  37
HETATM   37  C   UNL     1      39.392 -12.418   1.449  1.00  0.00     0.252 C 
HETATM   38  N   UNL     1      39.704 -13.020   0.246  1.00  0.00    -0.352 N 
HETATM   39  H   UNL     1      40.678 -13.115  -0.011  1.00  0.00     0.163 HD
HETATM   40  O   UNL     1      38.272 -12.019   1.744  1.00  0.00    -0.268 OA
BRANCH  38  41
HETATM   41  C   UNL     1      38.724 -13.118  -0.830  1.00  0.00     0.084 C 
HETATM   42  C   UNL     1      38.564 -11.772  -1.552  1.00  0.00     0.025 C 
HETATM   43  C   UNL     1      39.792 -11.410  -2.386  1.00  0.00     0.002 C 
HETATM   44  C   UNL     1      40.148 -12.519  -3.371  1.00  0.00     0.000 C 
HETATM   45  C   UNL     1      40.321 -13.866  -2.676  1.00  0.00     0.002 C 
HETATM   46  C   UNL     1      39.109 -14.227  -1.817  1.00  0.00     0.025 C 
ENDBRANCH  38  41
ENDBRANCH  11  37
TORSDOF 7
ENDMDL
MODEL 2
REMARK VINA RESULT:     -10.3      2.422      8.566
REMARK  7 active torsions:
REMARK  status: ('A' for Active; 'I' for Inactive)
REMARK    1  A    between atoms: C_6  and  N_7 
REMARK       I    between atoms: N_7  and  C_8 
REMARK    2  A    between atoms: C_8  and  C_9 
REMARK    3  A    between atoms: C_9  and  N_10 
REMARK    4  A    between atoms: N_13  and  C_14 
REMARK    5  A    between atoms: C_14  and  C_15 
REMARK    6  A    between atoms: C_30  and  C_31 
REMARK       I    between atoms: C_31  and  N_32 
REMARK    7  A    between atoms: N_32  and  C_33 
ROOT
HETATM    1  N   UNL     1      41.040 -11.724   5.110  1.00  0.00    -0.290 N 
HETATM    2  C   UNL     1      40.083 -12.113   4.182  1.00  0.00     0.332 C 
HETATM    3  O   UNL     1      39.787 -13.306   4.057  1.00  0.00    -0.246 OA
HETATM    4  N   UNL     1      39.468 -11.111   3.453  1.00  0.00    -0.261 N 
HETATM    5  C   UNL     1      39.602  -9.755   3.708  1.00  0.00     0.264 C 
HETATM    6  O   UNL     1      38.997  -8.876   3.100  1.00  0.00    -0.267 OA
HETATM    7  C   UNL     1      40.518  -9.372   4.794  1.00  0.00     0.059 A 
HETATM    8  C   UNL     1      41.231 -10.363   5.471  1.00  0.00     0.056 A 
HETATM    9  C   UNL     1      40.670  -8.017   5.122  1.00  0.00     0.020 A 
HETATM   10  C   UNL     1      41.525  -7.641   6.154  1.00  0.00     0.018 A 
HETATM   11  C   UNL     1      42.226  -8.618   6.864  1.00  0.00     0.034 A 
HETATM   12  C   UNL     1      42.094  -9.970   6.508  1.00  0.00     0.048 A 
ENDROOT
BRANCH   1  13
HETATM   13  C   UNL     1      41.808 -12.784   5.773  1.00  0.00     0.237 C 
BRANCH  13  14
HETATM   14  C   UNL     1      42.471 -13.733   4.773  1.00  0.00     0.240 C 
HETATM   15  N   UNL     1      42.072 -15.049   4.927  1.00  0.00    -0.325 N 
HETATM   16  H   UNL     1      41.210 -15.155   5.456  1.00  0.00     0.169 HD
HETATM   17  O   UNL     1      43.187 -13.281   3.883  1.00  0.00    -0.271 OA
BRANCH  15  18
HETATM   18  C   UNL     1      42.486 -16.179   4.179  1.00  0.00     0.046 A 
HETATM   19  C   UNL     1      41.947 -16.546   2.927  1.00  0.00    -0.034 A 
HETATM   20  C   UNL     1      42.398 -17.726   2.300  1.00  0.00     0.015 A 
HETATM   21  C   UNL     1      40.936 -15.742   2.155  1.00  0.00     0.050 C 
HETATM   22  C   UNL     1      43.404 -18.517   2.855  1.00  0.00    -0.061 A 
HETATM   23  C   UNL     1      43.896 -19.740   2.141  1.00  0.00     0.048 C 
HETATM   24  C   UNL     1      43.995 -18.103   4.047  1.00  0.00     0.015 A 
HETATM   25  C   UNL     1      43.550 -16.949   4.717  1.00  0.00    -0.034 A 
HETATM   26  C   UNL     1      44.226 -16.595   6.019  1.00  0.00     0.050 C 
ENDBRANCH  15  18
ENDBRANCH  13  14
ENDBRANCH   1  13
BRANCH   4  27
HETATM   27  C   UNL     1      38.605 -11.506   2.346  1.00  0.00     0.175 C 
BRANCH  27  28
HETATM   28  C   UNL     1      39.405 -11.696   1.072  1.00  0.00    -0.037 A 
HETATM   29  C   UNL     1      39.124 -12.773   0.214  1.00  0.00     0.048 A 
HETATM   30  C   UNL     1      39.839 -12.874  -0.960  1.00  0.00     0.105 A 
HETATM   31  C   UNL     1      40.805 -11.960  -1.302  1.00  0.00     0.105 A 
HETATM   32  O   UNL     1      39.683 -13.842  -1.904  1.00  0.00    -0.323 OA
HETATM   33  O   UNL     1      41.382 -12.236  -2.502  1.00  0.00    -0.323 OA
HETATM   34  C   UNL     1      41.113 -10.892  -0.487  1.00  0.00     0.040 A 
HETATM   35  C   UNL     1      40.658 -13.425  -2.882  1.00  0.00     0.352 A 
HETATM   36  C   UNL     1      40.401 -10.759   0.709  1.00  0.00     0.012 A 
ENDBRANCH  27  28
ENDBRANCH   4  27
BRANCH  11  37
HETATM   37  C   UNL     1      43.104  -8.184   7.985  1.00  0.00     0.252 C 
HETATM   38  N   UNL     1      43.320  -9.111   8.986  1.00  0.00    -0.352 N 
HETATM   39  H   UNL     1      42.742  -9.941   9.011  1.00  0.00     0.163 HD
HETATM   40  O   UNL     1      43.551  -7.043   8.002  1.00  0.00    -0.268 OA
BRANCH  38  41
HETATM   41  C   UNL     1      44.013  -8.750  10.218  1.00  0.00     0.084 C 
HETATM   42  C   UNL     1      43.043  -8.124  11.231  1.00  0.00     0.025 C 
HETATM   43  C   UNL     1      42.062  -9.146  11.805  1.00  0.00     0.002 C 
HETATM   44  C   UNL     1      42.789 -10.342  12.411  1.00  0.00     0.000 C 
HETATM   45  C   UNL     1      43.753 -10.987  11.421  1.00  0.00     0.002 C 
HETATM   46  C   UNL     1      44.723  -9.969  10.819  1.00  0.00     0.025 C 
ENDBRANCH  38  41
ENDBRANCH  11  37
TORSDOF 7
ENDMDL
MODEL 3
REMARK VINA RESULT:     -10.2      2.647      8.620
REMARK  7 active torsions:
REMARK  status: ('A' for Active; 'I' for Inactive)
REMARK    1  A    between atoms: C_6  and  N_7 
REMARK       I    between atoms: N_7  and  C_8 
REMARK    2  A    between atoms: C_8  and  C_9 
REMARK    3  A    between atoms: C_9  and  N_10 
REMARK    4  A    between atoms: N_13  and  C_14 
REMARK    5  A    between atoms: C_14  and  C_15 
REMARK    6  A    between atoms: C_30  and  C_31 
REMARK       I    between atoms: C_31  and  N_32 
REMARK    7  A    between atoms: N_32  and  C_33 
ROOT
HETATM    1  N   UNL     1      41.706 -11.894   4.119  1.00  0.00    -0.290 N 
HETATM    2  C   UNL     1      41.814 -11.972   2.736  1.00  0.00     0.332 C 
HETATM    3  O   UNL     1      42.485 -12.868   2.214  1.00  0.00    -0.246 OA
HETATM    4  N   UNL     1      41.112 -11.038   1.995  1.00  0.00    -0.261 N 
HETATM    5  C   UNL     1      40.177 -10.158   2.519  1.00  0.00     0.264 C 
HETATM    6  O   UNL     1      39.508  -9.380   1.843  1.00  0.00    -0.267 OA
HETATM    7  C   UNL     1      39.978 -10.192   3.977  1.00  0.00     0.059 A 
HETATM    8  C   UNL     1      40.754 -11.053   4.754  1.00  0.00     0.056 A 
HETATM    9  C   UNL     1      39.021  -9.350   4.562  1.00  0.00     0.020 A 
HETATM   10  C   UNL     1      38.814  -9.379   5.938  1.00  0.00     0.018 A 
HETATM   11  C   UNL     1      39.559 -10.254   6.732  1.00  0.00     0.034 A 
HETATM   12  C   UNL     1      40.538 -11.070   6.143  1.00  0.00     0.048 A 
ENDROOT
BRANCH   1  13
HETATM   13  C   UNL     1      42.567 -12.777   4.914  1.00  0.00     0.237 C 
BRANCH  13  14
HETATM   14  C   UNL     1      42.280 -14.257   4.653  1.00  0.00     0.240 C 
HETATM   15  N   UNL     1      43.386 -14.953   4.198  1.00  0.00    -0.325 N 
HETATM   16  H   UNL     1      44.268 -14.480   4.378  1.00  0.00     0.169 HD
HETATM   17  O   UNL     1      41.185 -14.729   4.950  1.00  0.00    -0.271 OA
BRANCH  15  18
HETATM   18  C   UNL     1      43.474 -16.326   3.859  1.00  0.00     0.046 A 
HETATM   19  C   UNL     1      43.128 -16.859   2.599  1.00  0.00    -0.034 A 
HETATM   20  C   UNL     1      43.202 -18.252   2.394  1.00  0.00     0.015 A 
HETATM   21  C   UNL     1      42.718 -16.044   1.402  1.00  0.00     0.050 C 
HETATM   22  C   UNL     1      43.662 -19.119   3.386  1.00  0.00    -0.061 A 
HETATM   23  C   UNL     1      43.775 -20.590   3.123  1.00  0.00     0.048 C 
HETATM   24  C   UNL     1      44.086 -18.578   4.598  1.00  0.00     0.015 A 
HETATM   25  C   UNL     1      43.997 -17.197   4.849  1.00  0.00    -0.034 A 
HETATM   26  C   UNL     1      44.450 -16.705   6.203  1.00  0.00     0.050 C 
ENDBRANCH  15  18
ENDBRANCH  13  14
ENDBRANCH   1  13
BRANCH   4  27
HETATM   27  C   UNL     1      41.360 -10.981   0.560  1.00  0.00     0.175 C 
BRANCH  27  28
HETATM   28  C   UNL     1      40.390 -11.867  -0.197  1.00  0.00    -0.037 A 
HETATM   29  C   UNL     1      39.297 -11.301  -0.876  1.00  0.00     0.048 A 
HETATM   30  C   UNL     1      38.473 -12.139  -1.597  1.00  0.00     0.105 A 
HETATM   31  C   UNL     1      38.695 -13.493  -1.662  1.00  0.00     0.105 A 
HETATM   32  O   UNL     1      37.386 -11.756  -2.319  1.00  0.00    -0.323 OA
HETATM   33  O   UNL     1      37.774 -14.134  -2.432  1.00  0.00    -0.323 OA
HETATM   34  C   UNL     1      39.753 -14.087  -1.009  1.00  0.00     0.040 A 
HETATM   35  C   UNL     1      36.954 -13.024  -2.853  1.00  0.00     0.352 A 
HETATM   36  C   UNL     1      40.609 -13.263  -0.274  1.00  0.00     0.012 A 
ENDBRANCH  27  28
ENDBRANCH   4  27
BRANCH  11  37
HETATM   37  C   UNL     1      39.287 -10.285   8.195  1.00  0.00     0.252 C 
HETATM   38  N   UNL     1      40.087  -9.480   8.982  1.00  0.00    -0.352 N 
HETATM   39  H   UNL     1      40.914  -9.067   8.571  1.00  0.00     0.163 HD
HETATM   40  O   UNL     1      38.424 -11.033   8.638  1.00  0.00    -0.268 OA
BRANCH  38  41
HETATM   41  C   UNL     1      40.038  -9.553  10.439  1.00  0.00     0.084 C 
HETATM   42  C   UNL     1      41.451  -9.656  11.031  1.00  0.00     0.025 C 
HETATM   43  C   UNL     1      42.238  -8.353  10.888  1.00  0.00     0.002 C 
HETATM   44  C   UNL     1      41.479  -7.172  11.486  1.00  0.00     0.000 C 
HETATM   45  C   UNL     1      40.074  -7.044  10.907  1.00  0.00     0.002 C 
HETATM   46  C   UNL     1      39.286  -8.350  11.019  1.00  0.00     0.025 C 
ENDBRANCH  38  41
ENDBRANCH  11  37
TORSDOF 7
ENDMDL
MODEL 4
REMARK VINA RESULT:     -10.2      3.027      7.308
REMARK  7 active torsions:
REMARK  status: ('A' for Active; 'I' for Inactive)
REMARK    1  A    between atoms: C_6  and  N_7 
REMARK       I    between atoms: N_7  and  C_8 
REMARK    2  A    between atoms: C_8  and  C_9 
REMARK    3  A    between atoms: C_9  and  N_10 
REMARK    4  A    between atoms: N_13  and  C_14 
REMARK    5  A    between atoms: C_14  and  C_15 
REMARK    6  A    between atoms: C_30  and  C_31 
REMARK       I    between atoms: C_31  and  N_32 
REMARK    7  A    between atoms: N_32  and  C_33 
ROOT
HETATM    1  N   UNL     1      40.219 -12.106   1.839  1.00  0.00    -0.290 N 
HETATM    2  C   UNL     1      39.826 -13.209   2.586  1.00  0.00     0.332 C 
HETATM    3  O   UNL     1      39.482 -13.072   3.765  1.00  0.00    -0.246 OA
HETATM    4  N   UNL     1      39.803 -14.432   1.940  1.00  0.00    -0.261 N 
HETATM    5  C   UNL     1      39.964 -14.605   0.574  1.00  0.00     0.264 C 
HETATM    6  O   UNL     1      39.872 -15.687   0.000  1.00  0.00    -0.267 OA
HETATM    7  C   UNL     1      40.241 -13.397  -0.220  1.00  0.00     0.059 A 
HETATM    8  C   UNL     1      40.375 -12.168   0.428  1.00  0.00     0.056 A 
HETATM    9  C   UNL     1      40.380 -13.503  -1.611  1.00  0.00     0.020 A 
HETATM   10  C   UNL     1      40.632 -12.367  -2.375  1.00  0.00     0.018 A 
HETATM   11  C   UNL     1      40.741 -11.122  -1.751  1.00  0.00     0.034 A 
HETATM   12  C   UNL     1      40.634 -11.029  -0.354  1.00  0.00     0.048 A 
ENDROOT
BRANCH   1  13
HETATM   13  C   UNL     1      40.398 -10.837   2.552  1.00  0.00     0.237 C 
BRANCH  13  14
HETATM   14  C   UNL     1      41.679 -10.816   3.390  1.00  0.00     0.240 C 
HETATM   15  N   UNL     1      41.439 -10.869   4.751  1.00  0.00    -0.325 N 
HETATM   16  H   UNL     1      40.508 -11.203   4.989  1.00  0.00     0.169 HD
HETATM   17  O   UNL     1      42.773 -10.861   2.834  1.00  0.00    -0.271 OA
BRANCH  15  18
HETATM   18  C   UNL     1      42.386 -10.866   5.805  1.00  0.00     0.046 A 
HETATM   19  C   UNL     1      43.229 -11.953   6.121  1.00  0.00    -0.034 A 
HETATM   20  C   UNL     1      44.094 -11.856   7.231  1.00  0.00     0.015 A 
HETATM   21  C   UNL     1      43.323 -13.229   5.330  1.00  0.00     0.050 C 
HETATM   22  C   UNL     1      44.183 -10.693   7.995  1.00  0.00    -0.061 A 
HETATM   23  C   UNL     1      45.147 -10.603   9.140  1.00  0.00     0.048 C 
HETATM   24  C   UNL     1      43.414  -9.592   7.625  1.00  0.00     0.015 A 
HETATM   25  C   UNL     1      42.517  -9.662   6.544  1.00  0.00    -0.034 A 
HETATM   26  C   UNL     1      41.700  -8.430   6.235  1.00  0.00     0.050 C 
ENDBRANCH  15  18
ENDBRANCH  13  14
ENDBRANCH   1  13
BRANCH   4  27
HETATM   27  C   UNL     1      39.580 -15.625   2.748  1.00  0.00     0.175 C 
BRANCH  27  28
HETATM   28  C   UNL     1      40.857 -16.064   3.437  1.00  0.00    -0.037 A 
HETATM   29  C   UNL     1      40.919 -16.130   4.839  1.00  0.00     0.048 A 
HETATM   30  C   UNL     1      42.082 -16.588   5.420  1.00  0.00     0.105 A 
HETATM   31  C   UNL     1      43.165 -16.973   4.668  1.00  0.00     0.105 A 
HETATM   32  O   UNL     1      42.302 -16.727   6.756  1.00  0.00    -0.323 OA
HETATM   33  O   UNL     1      44.204 -17.401   5.434  1.00  0.00    -0.323 OA
HETATM   34  C   UNL     1      43.146 -16.921   3.291  1.00  0.00     0.040 A 
HETATM   35  C   UNL     1      43.645 -17.251   6.756  1.00  0.00     0.352 A 
HETATM   36  C   UNL     1      41.979 -16.466   2.672  1.00  0.00     0.012 A 
ENDBRANCH  27  28
ENDBRANCH   4  27
BRANCH  11  37
HETATM   37  C   UNL     1      40.975  -9.923  -2.602  1.00  0.00     0.252 C 
HETATM   38  N   UNL     1      41.289  -8.754  -1.936  1.00  0.00    -0.352 N 
HETATM   39  H   UNL     1      41.162  -8.718  -0.933  1.00  0.00     0.163 HD
HETATM   40  O   UNL     1      40.840 -10.003  -3.817  1.00  0.00    -0.268 OA
BRANCH  38  41
HETATM   41  C   UNL     1      41.367  -7.478  -2.640  1.00  0.00     0.084 C 
HETATM   42  C   UNL     1      40.744  -6.351  -1.803  1.00  0.00     0.025 C 
HETATM   43  C   UNL     1      41.592  -5.997  -0.581  1.00  0.00     0.002 C 
HETATM   44  C   UNL     1      43.026  -5.659  -0.973  1.00  0.00     0.000 C 
HETATM   45  C   UNL     1      43.670  -6.768  -1.798  1.00  0.00     0.002 C 
HETATM   46  C   UNL     1      42.818  -7.150  -3.010  1.00  0.00     0.025 C 
ENDBRANCH  38  41
ENDBRANCH  11  37
TORSDOF 7
ENDMDL
MODEL 5
REMARK VINA RESULT:      -9.8      2.620      3.317
REMARK  7 active torsions:
REMARK  status: ('A' for Active; 'I' for Inactive)
REMARK    1  A    between atoms: C_6  and  N_7 
REMARK       I    between atoms: N_7  and  C_8 
REMARK    2  A    between atoms: C_8  and  C_9 
REMARK    3  A    between atoms: C_9  and  N_10 
REMARK    4  A    between atoms: N_13  and  C_14 
REMARK    5  A    between atoms: C_14  and  C_15 
REMARK    6  A    between atoms: C_30  and  C_31 
REMARK       I    between atoms: C_31  and  N_32 
REMARK    7  A    between atoms: N_32  and  C_33 
ROOT
HETATM    1  N   UNL     1      39.528 -11.229   4.440  1.00  0.00    -0.290 N 
HETATM    2  C   UNL     1      39.836 -10.950   5.765  1.00  0.00     0.332 C 
HETATM    3  O   UNL     1      40.027 -11.871   6.567  1.00  0.00    -0.246 OA
HETATM    4  N   UNL     1      39.954  -9.618   6.119  1.00  0.00    -0.261 N 
HETATM    5  C   UNL     1      39.968  -8.562   5.220  1.00  0.00     0.264 C 
HETATM    6  O   UNL     1      40.143  -7.389   5.537  1.00  0.00    -0.267 OA
HETATM    7  C   UNL     1      39.779  -8.898   3.799  1.00  0.00     0.059 A 
HETATM    8  C   UNL     1      39.552 -10.226   3.434  1.00  0.00     0.056 A 
HETATM    9  C   UNL     1      39.818  -7.878   2.838  1.00  0.00     0.020 A 
HETATM   10  C   UNL     1      39.652  -8.182   1.490  1.00  0.00     0.018 A 
HETATM   11  C   UNL     1      39.452  -9.508   1.099  1.00  0.00     0.034 A 
HETATM   12  C   UNL     1      39.381 -10.520   2.070  1.00  0.00     0.048 A 
ENDROOT
BRANCH   1  13
HETATM   13  C   UNL     1      39.246 -12.626   4.092  1.00  0.00     0.237 C 
BRANCH  13  14
HETATM   14  C   UNL     1      40.523 -13.427   3.825  1.00  0.00     0.240 C 
HETATM   15  N   UNL     1      40.352 -14.790   3.987  1.00  0.00    -0.325 N 
HETATM   16  H   UNL     1      39.380 -15.086   3.965  1.00  0.00     0.169 HD
HETATM   17  O   UNL     1      41.526 -12.855   3.405  1.00  0.00    -0.271 OA
BRANCH  15  18
HETATM   18  C   UNL     1      41.317 -15.816   3.824  1.00  0.00     0.046 A 
HETATM   19  C   UNL     1      42.151 -16.296   4.856  1.00  0.00    -0.034 A 
HETATM   20  C   UNL     1      43.116 -17.281   4.562  1.00  0.00     0.015 A 
HETATM   21  C   UNL     1      42.070 -15.870   6.297  1.00  0.00     0.050 C 
HETATM   22  C   UNL     1      43.235 -17.839   3.289  1.00  0.00    -0.061 A 
HETATM   23  C   UNL     1      44.238 -18.919   3.019  1.00  0.00     0.048 C 
HETATM   24  C   UNL     1      42.350 -17.425   2.296  1.00  0.00     0.015 A 
HETATM   25  C   UNL     1      41.396 -16.421   2.543  1.00  0.00    -0.034 A 
HETATM   26  C   UNL     1      40.501 -16.014   1.398  1.00  0.00     0.050 C 
ENDBRANCH  15  18
ENDBRANCH  13  14
ENDBRANCH   1  13
BRANCH   4  27
HETATM   27  C   UNL     1      40.086  -9.298   7.535  1.00  0.00     0.175 C 
BRANCH  27  28
HETATM   28  C   UNL     1      41.514  -8.915   7.876  1.00  0.00    -0.037 A 
HETATM   29  C   UNL     1      42.570  -9.797   7.591  1.00  0.00     0.048 A 
HETATM   30  C   UNL     1      43.856  -9.384   7.867  1.00  0.00     0.105 A 
HETATM   31  C   UNL     1      44.121  -8.148   8.406  1.00  0.00     0.105 A 
HETATM   32  O   UNL     1      44.988 -10.104   7.640  1.00  0.00    -0.323 OA
HETATM   33  O   UNL     1      45.451  -7.935   8.590  1.00  0.00    -0.323 OA
HETATM   34  C   UNL     1      43.114  -7.256   8.702  1.00  0.00     0.040 A 
HETATM   35  C   UNL     1      45.995  -9.176   8.093  1.00  0.00     0.352 A 
HETATM   36  C   UNL     1      41.799  -7.644   8.429  1.00  0.00     0.012 A 
ENDBRANCH  27  28
ENDBRANCH   4  27
BRANCH  11  37
HETATM   37  C   UNL     1      39.314  -9.803  -0.354  1.00  0.00     0.252 C 
HETATM   38  N   UNL     1      39.546 -11.110  -0.736  1.00  0.00    -0.352 N 
HETATM   39  H   UNL     1      39.970 -11.742  -0.070  1.00  0.00     0.163 HD
HETATM   40  O   UNL     1      39.054  -8.898  -1.137  1.00  0.00    -0.268 OA
BRANCH  38  41
HETATM   41  C   UNL     1      39.615 -11.488  -2.143  1.00  0.00     0.084 C 
HETATM   42  C   UNL     1      40.594 -12.653  -2.351  1.00  0.00     0.025 C 
HETATM   43  C   UNL     1      40.063 -13.968  -1.782  1.00  0.00     0.002 C 
HETATM   44  C   UNL     1      38.684 -14.305  -2.342  1.00  0.00     0.000 C 
HETATM   45  C   UNL     1      37.691 -13.165  -2.139  1.00  0.00     0.002 C 
HETATM   46  C   UNL     1      38.223 -11.838  -2.681  1.00  0.00     0.025 C 
ENDBRANCH  38  41
ENDBRANCH  11  37
TORSDOF 7
ENDMDL
MODEL 6
REMARK VINA RESULT:      -9.6      1.927      2.638
REMARK  7 active torsions:
REMARK  status: ('A' for Active; 'I' for Inactive)
REMARK    1  A    between atoms: C_6  and  N_7 
REMARK       I    between atoms: N_7  and  C_8 
REMARK    2  A    between atoms: C_8  and  C_9 
REMARK    3  A    between atoms: C_9  and  N_10 
REMARK    4  A    between atoms: N_13  and  C_14 
REMARK    5  A    between atoms: C_14  and  C_15 
REMARK    6  A    between atoms: C_30  and  C_31 
REMARK       I    between atoms: C_31  and  N_32 
REMARK    7  A    between atoms: N_32  and  C_33 
ROOT
HETATM    1  N   UNL     1      41.352 -11.797   5.592  1.00  0.00    -0.290 N 
HETATM    2  C   UNL     1      42.289 -11.226   6.442  1.00  0.00     0.332 C 
HETATM    3  O   UNL     1      42.983 -11.940   7.174  1.00  0.00    -0.246 OA
HETATM    4  N   UNL     1      42.428  -9.850   6.396  1.00  0.00    -0.261 N 
HETATM    5  C   UNL     1      41.838  -9.031   5.445  1.00  0.00     0.264 C 
HETATM    6  O   UNL     1      42.023  -7.819   5.369  1.00  0.00    -0.267 OA
HETATM    7  C   UNL     1      40.956  -9.682   4.463  1.00  0.00     0.059 A 
HETATM    8  C   UNL     1      40.719 -11.054   4.560  1.00  0.00     0.056 A 
HETATM    9  C   UNL     1      40.358  -8.911   3.456  1.00  0.00     0.020 A 
HETATM   10  C   UNL     1      39.529  -9.515   2.515  1.00  0.00     0.018 A 
HETATM   11  C   UNL     1      39.301 -10.891   2.574  1.00  0.00     0.034 A 
HETATM   12  C   UNL     1      39.877 -11.651   3.605  1.00  0.00     0.048 A 
ENDROOT
BRANCH   1  13
HETATM   13  C   UNL     1      41.087 -13.232   5.745  1.00  0.00     0.237 C 
BRANCH  13  14
HETATM   14  C   UNL     1      41.953 -14.085   4.816  1.00  0.00     0.240 C 
HETATM   15  N   UNL     1      41.596 -15.422   4.817  1.00  0.00    -0.325 N 
HETATM   16  H   UNL     1      40.664 -15.596   5.183  1.00  0.00     0.169 HD
HETATM   17  O   UNL     1      42.786 -13.547   4.092  1.00  0.00    -0.271 OA
BRANCH  15  18
HETATM   18  C   UNL     1      42.183 -16.482   4.082  1.00  0.00     0.046 A 
HETATM   19  C   UNL     1      41.848 -16.809   2.751  1.00  0.00    -0.034 A 
HETATM   20  C   UNL     1      42.457 -17.923   2.138  1.00  0.00     0.015 A 
HETATM   21  C   UNL     1      40.902 -16.023   1.883  1.00  0.00     0.050 C 
HETATM   22  C   UNL     1      43.427 -18.683   2.792  1.00  0.00    -0.061 A 
HETATM   23  C   UNL     1      44.092 -19.834   2.098  1.00  0.00     0.048 C 
HETATM   24  C   UNL     1      43.819 -18.303   4.073  1.00  0.00     0.015 A 
HETATM   25  C   UNL     1      43.211 -17.217   4.728  1.00  0.00    -0.034 A 
HETATM   26  C   UNL     1      43.676 -16.897   6.128  1.00  0.00     0.050 C 
ENDBRANCH  15  18
ENDBRANCH  13  14
ENDBRANCH   1  13
BRANCH   4  27
HETATM   27  C   UNL     1      43.263  -9.214   7.407  1.00  0.00     0.175 C 
BRANCH  27  28
HETATM   28  C   UNL     1      42.654  -9.364   8.788  1.00  0.00    -0.037 A 
HETATM   29  C   UNL     1      41.306  -9.034   9.007  1.00  0.00     0.048 A 
HETATM   30  C   UNL     1      40.780  -9.239  10.265  1.00  0.00     0.105 A 
HETATM   31  C   UNL     1      41.537  -9.749  11.292  1.00  0.00     0.105 A 
HETATM   32  O   UNL     1      39.497  -8.988  10.641  1.00  0.00    -0.323 OA
HETATM   33  O   UNL     1      40.827  -9.882  12.445  1.00  0.00    -0.323 OA
HETATM   34  C   UNL     1      42.863 -10.082  11.120  1.00  0.00     0.040 A 
HETATM   35  C   UNL     1      39.532  -9.407  12.021  1.00  0.00     0.352 A 
HETATM   36  C   UNL     1      43.423  -9.890   9.854  1.00  0.00     0.012 A 
ENDBRANCH  27  28
ENDBRANCH   4  27
BRANCH  11  37
HETATM   37  C   UNL     1      38.439 -11.511   1.530  1.00  0.00     0.252 C 
HETATM   38  N   UNL     1      39.096 -12.103   0.469  1.00  0.00    -0.352 N 
HETATM   39  H   UNL     1      40.086 -11.929   0.353  1.00  0.00     0.163 HD
HETATM   40  O   UNL     1      37.220 -11.436   1.624  1.00  0.00    -0.268 OA
BRANCH  38  41
HETATM   41  C   UNL     1      38.368 -12.587  -0.699  1.00  0.00     0.084 C 
HETATM   42  C   UNL     1      38.296 -11.506  -1.787  1.00  0.00     0.025 C 
HETATM   43  C   UNL     1      39.652 -11.252  -2.445  1.00  0.00     0.002 C 
HETATM   44  C   UNL     1      40.260 -12.539  -2.993  1.00  0.00     0.000 C 
HETATM   45  C   UNL     1      40.350 -13.627  -1.927  1.00  0.00     0.002 C 
HETATM   46  C   UNL     1      39.004 -13.872  -1.242  1.00  0.00     0.025 C 
ENDBRANCH  38  41
ENDBRANCH  11  37
TORSDOF 7
ENDMDL
MODEL 7
REMARK VINA RESULT:      -9.4      2.245      8.520
REMARK  7 active torsions:
REMARK  status: ('A' for Active; 'I' for Inactive)
REMARK    1  A    between atoms: C_6  and  N_7 
REMARK       I    between atoms: N_7  and  C_8 
REMARK    2  A    between atoms: C_8  and  C_9 
REMARK    3  A    between atoms: C_9  and  N_10 
REMARK    4  A    between atoms: N_13  and  C_14 
REMARK    5  A    between atoms: C_14  and  C_15 
REMARK    6  A    between atoms: C_30  and  C_31 
REMARK       I    between atoms: C_31  and  N_32 
REMARK    7  A    between atoms: N_32  and  C_33 
ROOT
HETATM    1  N   UNL     1      41.112 -12.629   2.536  1.00  0.00    -0.290 N 
HETATM    2  C   UNL     1      40.039 -12.660   1.654  1.00  0.00     0.332 C 
HETATM    3  O   UNL     1      39.960 -13.551   0.801  1.00  0.00    -0.246 OA
HETATM    4  N   UNL     1      39.068 -11.687   1.806  1.00  0.00    -0.261 N 
HETATM    5  C   UNL     1      38.996 -10.807   2.875  1.00  0.00     0.264 C 
HETATM    6  O   UNL     1      38.091  -9.992   3.038  1.00  0.00    -0.267 OA
HETATM    7  C   UNL     1      40.073 -10.888   3.875  1.00  0.00     0.059 A 
HETATM    8  C   UNL     1      41.119 -11.791   3.683  1.00  0.00     0.056 A 
HETATM    9  C   UNL     1      40.037 -10.047   4.997  1.00  0.00     0.020 A 
HETATM   10  C   UNL     1      41.043 -10.121   5.956  1.00  0.00     0.018 A 
HETATM   11  C   UNL     1      42.085 -11.038   5.799  1.00  0.00     0.034 A 
HETATM   12  C   UNL     1      42.131 -11.853   4.657  1.00  0.00     0.048 A 
ENDROOT
BRANCH   1  13
HETATM   13  C   UNL     1      42.220 -13.556   2.284  1.00  0.00     0.237 C 
BRANCH  13  14
HETATM   14  C   UNL     1      42.054 -14.879   3.036  1.00  0.00     0.240 C 
HETATM   15  N   UNL     1      43.256 -15.518   3.283  1.00  0.00    -0.325 N 
HETATM   16  H   UNL     1      44.066 -14.908   3.205  1.00  0.00     0.169 HD
HETATM   17  O   UNL     1      40.944 -15.215   3.443  1.00  0.00    -0.271 OA
BRANCH  15  18
HETATM   18  C   UNL     1      43.468 -16.751   3.949  1.00  0.00     0.046 A 
HETATM   19  C   UNL     1      43.591 -16.889   5.348  1.00  0.00    -0.034 A 
HETATM   20  C   UNL     1      43.858 -18.161   5.895  1.00  0.00     0.015 A 
HETATM   21  C   UNL     1      43.412 -15.774   6.343  1.00  0.00     0.050 C 
HETATM   22  C   UNL     1      43.949 -19.301   5.098  1.00  0.00    -0.061 A 
HETATM   23  C   UNL     1      44.186 -20.648   5.713  1.00  0.00     0.048 C 
HETATM   24  C   UNL     1      43.738 -19.173   3.727  1.00  0.00     0.015 A 
HETATM   25  C   UNL     1      43.501 -17.916   3.141  1.00  0.00    -0.034 A 
HETATM   26  C   UNL     1      43.317 -17.869   1.644  1.00  0.00     0.050 C 
ENDBRANCH  15  18
ENDBRANCH  13  14
ENDBRANCH   1  13
BRANCH   4  27
HETATM   27  C   UNL     1      38.039 -11.584   0.779  1.00  0.00     0.175 C 
BRANCH  27  28
HETATM   28  C   UNL     1      38.618 -11.070  -0.524  1.00  0.00    -0.037 A 
HETATM   29  C   UNL     1      39.408  -9.908  -0.539  1.00  0.00     0.048 A 
HETATM   30  C   UNL     1      39.960  -9.510  -1.738  1.00  0.00     0.105 A 
HETATM   31  C   UNL     1      39.756 -10.215  -2.899  1.00  0.00     0.105 A 
HETATM   32  O   UNL     1      40.756  -8.423  -1.924  1.00  0.00    -0.323 OA
HETATM   33  O   UNL     1      40.395  -9.660  -3.963  1.00  0.00    -0.323 OA
HETATM   34  C   UNL     1      38.987 -11.358  -2.928  1.00  0.00     0.040 A 
HETATM   35  C   UNL     1      41.036  -8.530  -3.334  1.00  0.00     0.352 A 
HETATM   36  C   UNL     1      38.417 -11.789  -1.727  1.00  0.00     0.012 A 
ENDBRANCH  27  28
ENDBRANCH   4  27
BRANCH  11  37
HETATM   37  C   UNL     1      43.125 -11.115   6.862  1.00  0.00     0.252 C 
HETATM   38  N   UNL     1      43.205 -10.034   7.717  1.00  0.00    -0.352 N 
HETATM   39  H   UNL     1      42.706  -9.187   7.477  1.00  0.00     0.163 HD
HETATM   40  O   UNL     1      43.876 -12.082   6.909  1.00  0.00    -0.268 OA
BRANCH  38  41
HETATM   41  C   UNL     1      44.291  -9.910   8.683  1.00  0.00     0.084 C 
HETATM   42  C   UNL     1      44.771  -8.455   8.787  1.00  0.00     0.025 C 
HETATM   43  C   UNL     1      43.745  -7.551   9.470  1.00  0.00     0.002 C 
HETATM   44  C   UNL     1      43.344  -8.094  10.839  1.00  0.00     0.000 C 
HETATM   45  C   UNL     1      42.855  -9.536  10.760  1.00  0.00     0.002 C 
HETATM   46  C   UNL     1      43.862 -10.446  10.055  1.00  0.00     0.025 C 
ENDBRANCH  38  41
ENDBRANCH  11  37
TORSDOF 7
ENDMDL
MODEL 8
REMARK VINA RESULT:      -9.4      2.749      8.722
REMARK  7 active torsions:
REMARK  status: ('A' for Active; 'I' for Inactive)
REMARK    1  A    between atoms: C_6  and  N_7 
REMARK       I    between atoms: N_7  and  C_8 
REMARK    2  A    between atoms: C_8  and  C_9 
REMARK    3  A    between atoms: C_9  and  N_10 
REMARK    4  A    between atoms: N_13  and  C_14 
REMARK    5  A    between atoms: C_14  and  C_15 
REMARK    6  A    between atoms: C_30  and  C_31 
REMARK       I    between atoms: C_31  and  N_32 
REMARK    7  A    between atoms: N_32  and  C_33 
ROOT
HETATM    1  N   UNL     1      39.611 -11.230   4.135  1.00  0.00    -0.290 N 
HETATM    2  C   UNL     1      38.874 -11.180   2.958  1.00  0.00     0.332 C 
HETATM    3  O   UNL     1      38.148 -12.126   2.637  1.00  0.00    -0.246 OA
HETATM    4  N   UNL     1      38.966 -10.022   2.205  1.00  0.00    -0.261 N 
HETATM    5  C   UNL     1      39.585  -8.856   2.627  1.00  0.00     0.264 C 
HETATM    6  O   UNL     1      39.601  -7.811   1.980  1.00  0.00    -0.267 OA
HETATM    7  C   UNL     1      40.241  -8.891   3.944  1.00  0.00     0.059 A 
HETATM    8  C   UNL     1      40.252 -10.082   4.672  1.00  0.00     0.056 A 
HETATM    9  C   UNL     1      40.855  -7.732   4.440  1.00  0.00     0.020 A 
HETATM   10  C   UNL     1      41.469  -7.747   5.689  1.00  0.00     0.018 A 
HETATM   11  C   UNL     1      41.467  -8.920   6.447  1.00  0.00     0.034 A 
HETATM   12  C   UNL     1      40.879 -10.086   5.930  1.00  0.00     0.048 A 
ENDROOT
BRANCH   1  13
HETATM   13  C   UNL     1      39.644 -12.507   4.856  1.00  0.00     0.237 C 
BRANCH  13  14
HETATM   14  C   UNL     1      40.838 -13.373   4.449  1.00  0.00     0.240 C 
HETATM   15  N   UNL     1      40.533 -14.721   4.381  1.00  0.00    -0.325 N 
HETATM   16  H   UNL     1      39.536 -14.911   4.317  1.00  0.00     0.169 HD
HETATM   17  O   UNL     1      41.896 -12.841   4.124  1.00  0.00    -0.271 OA
BRANCH  15  18
HETATM   18  C   UNL     1      41.394 -15.794   4.040  1.00  0.00     0.046 A 
HETATM   19  C   UNL     1      42.291 -16.411   4.939  1.00  0.00    -0.034 A 
HETATM   20  C   UNL     1      43.141 -17.434   4.472  1.00  0.00     0.015 A 
HETATM   21  C   UNL     1      42.393 -16.097   6.407  1.00  0.00     0.050 C 
HETATM   22  C   UNL     1      43.085 -17.896   3.157  1.00  0.00    -0.061 A 
HETATM   23  C   UNL     1      43.969 -19.018   2.702  1.00  0.00     0.048 C 
HETATM   24  C   UNL     1      42.136 -17.345   2.298  1.00  0.00     0.015 A 
HETATM   25  C   UNL     1      41.293 -16.301   2.719  1.00  0.00    -0.034 A 
HETATM   26  C   UNL     1      40.318 -15.743   1.711  1.00  0.00     0.050 C 
ENDBRANCH  15  18
ENDBRANCH  13  14
ENDBRANCH   1  13
BRANCH   4  27
HETATM   27  C   UNL     1      38.357 -10.021   0.881  1.00  0.00     0.175 C 
BRANCH  27  28
HETATM   28  C   UNL     1      38.975 -11.086  -0.004  1.00  0.00    -0.037 A 
HETATM   29  C   UNL     1      38.160 -12.031  -0.650  1.00  0.00     0.048 A 
HETATM   30  C   UNL     1      38.760 -12.945  -1.489  1.00  0.00     0.105 A 
HETATM   31  C   UNL     1      40.117 -12.951  -1.702  1.00  0.00     0.105 A 
HETATM   32  O   UNL     1      38.119 -13.913  -2.198  1.00  0.00    -0.323 OA
HETATM   33  O   UNL     1      40.503 -13.925  -2.570  1.00  0.00    -0.323 OA
HETATM   34  C   UNL     1      40.952 -12.044  -1.087  1.00  0.00     0.040 A 
HETATM   35  C   UNL     1      39.229 -14.523  -2.888  1.00  0.00     0.352 A 
HETATM   36  C   UNL     1      40.372 -11.101  -0.234  1.00  0.00     0.012 A 
ENDBRANCH  27  28
ENDBRANCH   4  27
BRANCH  11  37
HETATM   37  C   UNL     1      42.101  -8.892   7.794  1.00  0.00     0.252 C 
HETATM   38  N   UNL     1      41.256  -8.663   8.862  1.00  0.00    -0.352 N 
HETATM   39  H   UNL     1      40.314  -8.345   8.676  1.00  0.00     0.163 HD
HETATM   40  O   UNL     1      43.315  -9.024   7.898  1.00  0.00    -0.268 OA
BRANCH  38  41
HETATM   41  C   UNL     1      41.776  -8.438  10.206  1.00  0.00     0.084 C 
HETATM   42  C   UNL     1      41.181  -7.162  10.819  1.00  0.00     0.025 C 
HETATM   43  C   UNL     1      39.700  -7.317  11.164  1.00  0.00     0.002 C 
HETATM   44  C   UNL     1      39.460  -8.522  12.069  1.00  0.00     0.000 C 
HETATM   45  C   UNL     1      40.034  -9.805  11.477  1.00  0.00     0.002 C 
HETATM   46  C   UNL     1      41.510  -9.653  11.103  1.00  0.00     0.025 C 
ENDBRANCH  38  41
ENDBRANCH  11  37
TORSDOF 7
ENDMDL
MODEL 9
REMARK VINA RESULT:      -9.3      4.685     11.897
REMARK  7 active torsions:
REMARK  status: ('A' for Active; 'I' for Inactive)
REMARK    1  A    between atoms: C_6  and  N_7 
REMARK       I    between atoms: N_7  and  C_8 
REMARK    2  A    between atoms: C_8  and  C_9 
REMARK    3  A    between atoms: C_9  and  N_10 
REMARK    4  A    between atoms: N_13  and  C_14 
REMARK    5  A    between atoms: C_14  and  C_15 
REMARK    6  A    between atoms: C_30  and  C_31 
REMARK       I    between atoms: C_31  and  N_32 
REMARK    7  A    between atoms: N_32  and  C_33 
ROOT
HETATM    1  N   UNL     1      43.266  -7.446  10.155  1.00  0.00    -0.290 N 
HETATM    2  C   UNL     1      44.151  -8.122   9.325  1.00  0.00     0.332 C 
HETATM    3  O   UNL     1      44.770  -7.513   8.446  1.00  0.00    -0.246 OA
HETATM    4  N   UNL     1      44.326  -9.475   9.557  1.00  0.00    -0.261 N 
HETATM    5  C   UNL     1      43.829 -10.155  10.659  1.00  0.00     0.264 C 
HETATM    6  O   UNL     1      44.048 -11.341  10.894  1.00  0.00    -0.267 OA
HETATM    7  C   UNL     1      43.008  -9.380  11.603  1.00  0.00     0.059 A 
HETATM    8  C   UNL     1      42.731  -8.040  11.329  1.00  0.00     0.056 A 
HETATM    9  C   UNL     1      42.506 -10.004  12.754  1.00  0.00     0.020 A 
HETATM   10  C   UNL     1      41.736  -9.281  13.660  1.00  0.00     0.018 A 
HETATM   11  C   UNL     1      41.471  -7.931  13.421  1.00  0.00     0.034 A 
HETATM   12  C   UNL     1      41.949  -7.321  12.250  1.00  0.00     0.048 A 
ENDROOT
BRANCH   1  13
HETATM   13  C   UNL     1      42.956  -6.053   9.818  1.00  0.00     0.237 C 
BRANCH  13  14
HETATM   14  C   UNL     1      41.750  -5.935   8.883  1.00  0.00     0.240 C 
HETATM   15  N   UNL     1      41.745  -6.889   7.881  1.00  0.00    -0.325 N 
HETATM   16  H   UNL     1      42.348  -7.685   8.071  1.00  0.00     0.169 HD
HETATM   17  O   UNL     1      40.862  -5.123   9.130  1.00  0.00    -0.271 OA
BRANCH  15  18
HETATM   18  C   UNL     1      40.787  -7.068   6.851  1.00  0.00     0.046 A 
HETATM   19  C   UNL     1      40.784  -6.353   5.634  1.00  0.00    -0.034 A 
HETATM   20  C   UNL     1      39.746  -6.574   4.706  1.00  0.00     0.015 A 
HETATM   21  C   UNL     1      41.847  -5.378   5.204  1.00  0.00     0.050 C 
HETATM   22  C   UNL     1      38.748  -7.523   4.930  1.00  0.00    -0.061 A 
HETATM   23  C   UNL     1      37.684  -7.770   3.902  1.00  0.00     0.048 C 
HETATM   24  C   UNL     1      38.806  -8.288   6.092  1.00  0.00     0.015 A 
HETATM   25  C   UNL     1      39.808  -8.074   7.056  1.00  0.00    -0.034 A 
HETATM   26  C   UNL     1      39.773  -8.928   8.299  1.00  0.00     0.050 C 
ENDBRANCH  15  18
ENDBRANCH  13  14
ENDBRANCH   1  13
BRANCH   4  27
HETATM   27  C   UNL     1      45.097 -10.240   8.586  1.00  0.00     0.175 C 
BRANCH  27  28
HETATM   28  C   UNL     1      44.188 -10.908   7.572  1.00  0.00    -0.037 A 
HETATM   29  C   UNL     1      44.395 -12.250   7.212  1.00  0.00     0.048 A 
HETATM   30  C   UNL     1      43.510 -12.832   6.329  1.00  0.00     0.105 A 
HETATM   31  C   UNL     1      42.449 -12.137   5.803  1.00  0.00     0.105 A 
HETATM   32  O   UNL     1      43.557 -14.119   5.889  1.00  0.00    -0.323 OA
HETATM   33  O   UNL     1      41.695 -12.896   4.964  1.00  0.00    -0.323 OA
HETATM   34  C   UNL     1      42.212 -10.819   6.128  1.00  0.00     0.040 A 
HETATM   35  C   UNL     1      42.398 -14.154   5.032  1.00  0.00     0.352 A 
HETATM   36  C   UNL     1      43.090 -10.203   7.025  1.00  0.00     0.012 A 
ENDBRANCH  27  28
ENDBRANCH   4  27
BRANCH  11  37
HETATM   37  C   UNL     1      40.675  -7.177  14.430  1.00  0.00     0.252 C 
HETATM   38  N   UNL     1      40.971  -7.432  15.754  1.00  0.00    -0.352 N 
HETATM   39  H   UNL     1      41.556  -8.227  15.977  1.00  0.00     0.163 HD
HETATM   40  O   UNL     1      39.787  -6.419  14.061  1.00  0.00    -0.268 OA
BRANCH  38  41
HETATM   41  C   UNL     1      40.148  -6.893  16.832  1.00  0.00     0.084 C 
HETATM   42  C   UNL     1      40.210  -7.796  18.073  1.00  0.00     0.025 C 
HETATM   43  C   UNL     1      41.571  -7.740  18.767  1.00  0.00     0.002 C 
HETATM   44  C   UNL     1      41.964  -6.307  19.113  1.00  0.00     0.000 C 
HETATM   45  C   UNL     1      41.920  -5.392  17.893  1.00  0.00     0.002 C 
HETATM   46  C   UNL     1      40.571  -5.460  17.175  1.00  0.00     0.025 C 
ENDBRANCH  38  41
ENDBRANCH  11  37
TORSDOF 7
ENDMDL
MODEL 10
REMARK VINA RESULT:      -9.2      2.389      5.803
REMARK  7 active torsions:
REMARK  status: ('A' for Active; 'I' for Inactive)
REMARK    1  A    between atoms: C_6  and  N_7 
REMARK       I    between atoms: N_7  and  C_8 
REMARK    2  A    between atoms: C_8  and  C_9 
REMARK    3  A    between atoms: C_9  and  N_10 
REMARK    4  A    between atoms: N_13  and  C_14 
REMARK    5  A    between atoms: C_14  and  C_15 
REMARK    6  A    between atoms: C_30  and  C_31 
REMARK       I    between atoms: C_31  and  N_32 
REMARK    7  A    between atoms: N_32  and  C_33 
ROOT
HETATM    1  N   UNL     1      41.608  -9.949   6.589  1.00  0.00    -0.290 N 
HETATM    2  C   UNL     1      41.990  -8.808   7.284  1.00  0.00     0.332 C 
HETATM    3  O   UNL     1      41.197  -7.871   7.426  1.00  0.00    -0.246 OA
HETATM    4  N   UNL     1      43.263  -8.796   7.827  1.00  0.00    -0.261 N 
HETATM    5  C   UNL     1      44.104  -9.897   7.887  1.00  0.00     0.264 C 
HETATM    6  O   UNL     1      45.203  -9.896   8.434  1.00  0.00    -0.267 OA
HETATM    7  C   UNL     1      43.616 -11.139   7.265  1.00  0.00     0.059 A 
HETATM    8  C   UNL     1      42.380 -11.141   6.617  1.00  0.00     0.056 A 
HETATM    9  C   UNL     1      44.407 -12.296   7.322  1.00  0.00     0.020 A 
HETATM   10  C   UNL     1      43.954 -13.480   6.748  1.00  0.00     0.018 A 
HETATM   11  C   UNL     1      42.707 -13.512   6.120  1.00  0.00     0.034 A 
HETATM   12  C   UNL     1      41.936 -12.342   6.038  1.00  0.00     0.048 A 
ENDROOT
BRANCH   1  13
HETATM   13  C   UNL     1      40.326  -9.908   5.878  1.00  0.00     0.237 C 
BRANCH  13  14
HETATM   14  C   UNL     1      40.503  -9.703   4.372  1.00  0.00     0.240 C 
HETATM   15  N   UNL     1      40.092 -10.792   3.624  1.00  0.00    -0.325 N 
HETATM   16  H   UNL     1      39.479 -11.427   4.128  1.00  0.00     0.169 HD
HETATM   17  O   UNL     1      40.873  -8.613   3.943  1.00  0.00    -0.271 OA
BRANCH  15  18
HETATM   18  C   UNL     1      40.117 -10.941   2.214  1.00  0.00     0.046 A 
HETATM   19  C   UNL     1      41.225 -11.423   1.484  1.00  0.00    -0.034 A 
HETATM   20  C   UNL     1      41.154 -11.475   0.077  1.00  0.00     0.015 A 
HETATM   21  C   UNL     1      42.498 -11.945   2.094  1.00  0.00     0.050 C 
HETATM   22  C   UNL     1      39.998 -11.115  -0.616  1.00  0.00    -0.061 A 
HETATM   23  C   UNL     1      39.937 -11.227  -2.110  1.00  0.00     0.048 C 
HETATM   24  C   UNL     1      38.878 -10.726   0.114  1.00  0.00     0.015 A 
HETATM   25  C   UNL     1      38.921 -10.631   1.517  1.00  0.00    -0.034 A 
HETATM   26  C   UNL     1      37.669 -10.169   2.223  1.00  0.00     0.050 C 
ENDBRANCH  15  18
ENDBRANCH  13  14
ENDBRANCH   1  13
BRANCH   4  27
HETATM   27  C   UNL     1      43.751  -7.545   8.391  1.00  0.00     0.175 C 
BRANCH  27  28
HETATM   28  C   UNL     1      43.207  -7.328   9.790  1.00  0.00    -0.037 A 
HETATM   29  C   UNL     1      43.306  -8.346  10.754  1.00  0.00     0.048 A 
HETATM   30  C   UNL     1      42.849  -8.084  12.028  1.00  0.00     0.105 A 
HETATM   31  C   UNL     1      42.307  -6.868  12.368  1.00  0.00     0.105 A 
HETATM   32  O   UNL     1      42.882  -8.949  13.078  1.00  0.00    -0.323 OA
HETATM   33  O   UNL     1      41.928  -6.815  13.673  1.00  0.00    -0.323 OA
HETATM   34  C   UNL     1      42.190  -5.845  11.453  1.00  0.00     0.040 A 
HETATM   35  C   UNL     1      42.306  -8.135  14.119  1.00  0.00     0.352 A 
HETATM   36  C   UNL     1      42.649  -6.079  10.153  1.00  0.00     0.012 A 
ENDBRANCH  27  28
ENDBRANCH   4  27
BRANCH  11  37
HETATM   37  C   UNL     1      42.238 -14.804   5.548  1.00  0.00     0.252 C 
HETATM   38  N   UNL     1      42.101 -14.850   4.175  1.00  0.00    -0.352 N 
HETATM   39  H   UNL     1      42.139 -13.984   3.654  1.00  0.00     0.163 HD
HETATM   40  O   UNL     1      41.955 -15.734   6.295  1.00  0.00    -0.268 OA
BRANCH  38  41
HETATM   41  C   UNL     1      41.485 -15.994   3.511  1.00  0.00     0.084 C 
HETATM   42  C   UNL     1      40.018 -15.702   3.163  1.00  0.00     0.025 C 
HETATM   43  C   UNL     1      39.880 -14.677   2.038  1.00  0.00     0.002 C 
HETATM   44  C   UNL     1      40.663 -15.097   0.798  1.00  0.00     0.000 C 
HETATM   45  C   UNL     1      42.127 -15.384   1.117  1.00  0.00     0.002 C 
HETATM   46  C   UNL     1      42.278 -16.389   2.260  1.00  0.00     0.025 C 
ENDBRANCH  38  41
ENDBRANCH  11  37
TORSDOF 7
ENDMDL
