MODEL 1
REMARK VINA RESULT:      -8.5      0.000      0.000
REMARK  6 active torsions:
REMARK  status: ('A' for Active; 'I' for Inactive)
REMARK    1  A    between atoms: C_2  and  C_3 
REMARK    2  A    between atoms: C_7  and  O_8 
REMARK    3  A    between atoms: O_8  and  C_9 
REMARK    4  A    between atoms: C_9  and  C_10 
REMARK       I    between atoms: C_10  and  N_11 
REMARK    5  A    between atoms: N_11  and  N_12 
REMARK    6  A    between atoms: C_13  and  C_14 
ROOT
HETATM    1  C   UNL     1      41.072 -14.808   5.602  1.00  0.00     0.261 C 
HETATM    2  N   UNL     1      41.514 -14.075   6.678  1.00  0.00    -0.246 N 
HETATM    3  O   UNL     1      40.301 -15.755   5.779  1.00  0.00    -0.269 OA
HETATM    4  H   UNL     1      41.136 -14.332   7.584  1.00  0.00     0.192 HD
ENDROOT
BRANCH   2   5
HETATM    5  N   UNL     1      42.371 -13.027   6.549  1.00  0.00    -0.184 NA
HETATM    6  C   UNL     1      43.491 -13.147   7.186  1.00  0.00     0.152 C 
BRANCH   6   7
HETATM    7  C   UNL     1      44.460 -12.073   7.141  1.00  0.00     0.011 A 
HETATM    8  C   UNL     1      44.638 -11.022   8.098  1.00  0.00     0.004 A 
HETATM    9  C   UNL     1      45.676 -10.210   7.639  1.00  0.00     0.043 A 
HETATM   10  C   UNL     1      44.014 -10.684   9.319  1.00  0.00     0.014 A 
HETATM   11  C   UNL     1      46.120  -9.079   8.334  1.00  0.00     0.030 A 
HETATM   12  N   UNL     1      46.112 -10.744   6.448  1.00  0.00    -0.364 N 
HETATM   13  C   UNL     1      45.485  -8.769   9.540  1.00  0.00     0.002 A 
HETATM   14  C   UNL     1      44.448  -9.558  10.028  1.00  0.00     0.001 A 
HETATM   15  H   UNL     1      46.855 -10.355   5.883  1.00  0.00     0.165 HD
HETATM   16  C   UNL     1      45.392 -11.865   6.141  1.00  0.00     0.102 A 
ENDBRANCH   6   7
ENDBRANCH   2   5
BRANCH   1  17
HETATM   17  C   UNL     1      41.601 -14.433   4.222  1.00  0.00     0.280 C 
BRANCH  17  18
HETATM   18  O   UNL     1      42.933 -14.903   4.062  1.00  0.00    -0.341 OA
BRANCH  18  19
HETATM   19  C   UNL     1      43.090 -16.207   3.670  1.00  0.00     0.086 A 
HETATM   20  C   UNL     1      43.809 -17.052   4.527  1.00  0.00     0.044 A 
HETATM   21  C   UNL     1      44.046 -18.389   4.184  1.00  0.00     0.029 A 
HETATM   22 BR   UNL     1      44.484 -16.434   6.194  1.00  0.00    -0.048 Br
HETATM   23  C   UNL     1      43.566 -18.905   2.975  1.00  0.00    -0.057 A 
HETATM   24  C   UNL     1      42.855 -18.061   2.116  1.00  0.00     0.010 A 
HETATM   25  C   UNL     1      42.618 -16.724   2.460  1.00  0.00     0.039 A 
BRANCH  23  26
HETATM   26  C   UNL     1      43.848 -20.333   2.584  1.00  0.00     0.034 C 
HETATM   27  C   UNL     1      43.917 -21.249   3.796  1.00  0.00     0.010 C 
ENDBRANCH  23  26
ENDBRANCH  18  19
ENDBRANCH  17  18
ENDBRANCH   1  17
TORSDOF 6
ENDMDL
MODEL 2
REMARK VINA RESULT:      -8.3      3.262      7.741
REMARK  6 active torsions:
REMARK  status: ('A' for Active; 'I' for Inactive)
REMARK    1  A    between atoms: C_2  and  C_3 
REMARK    2  A    between atoms: C_7  and  O_8 
REMARK    3  A    between atoms: O_8  and  C_9 
REMARK    4  A    between atoms: C_9  and  C_10 
REMARK       I    between atoms: C_10  and  N_11 
REMARK    5  A    between atoms: N_11  and  N_12 
REMARK    6  A    between atoms: C_13  and  C_14 
ROOT
HETATM    1  C   UNL     1      40.746 -14.013   1.103  1.00  0.00     0.261 C 
HETATM    2  N   UNL     1      41.838 -14.848   1.090  1.00  0.00    -0.246 N 
HETATM    3  O   UNL     1      40.617 -13.157   0.223  1.00  0.00    -0.269 OA
HETATM    4  H   UNL     1      42.476 -14.743   0.308  1.00  0.00     0.192 HD
ENDROOT
BRANCH   2   5
HETATM    5  N   UNL     1      42.041 -15.804   2.036  1.00  0.00    -0.184 NA
HETATM    6  C   UNL     1      43.225 -15.822   2.559  1.00  0.00     0.152 C 
BRANCH   6   7
HETATM    7  C   UNL     1      43.555 -16.820   3.552  1.00  0.00     0.011 A 
HETATM    8  C   UNL     1      43.613 -18.240   3.371  1.00  0.00     0.004 A 
HETATM    9  C   UNL     1      43.958 -18.804   4.600  1.00  0.00     0.043 A 
HETATM   10  C   UNL     1      43.408 -19.104   2.273  1.00  0.00     0.014 A 
HETATM   11  C   UNL     1      44.105 -20.184   4.789  1.00  0.00     0.030 A 
HETATM   12  N   UNL     1      44.101 -17.769   5.496  1.00  0.00    -0.364 N 
HETATM   13  C   UNL     1      43.897 -21.015   3.684  1.00  0.00     0.002 A 
HETATM   14  C   UNL     1      43.554 -20.485   2.443  1.00  0.00     0.001 A 
HETATM   15  H   UNL     1      44.342 -17.883   6.471  1.00  0.00     0.165 HD
HETATM   16  C   UNL     1      43.867 -16.573   4.876  1.00  0.00     0.102 A 
ENDBRANCH   6   7
ENDBRANCH   2   5
BRANCH   1  17
HETATM   17  C   UNL     1      39.753 -14.160   2.251  1.00  0.00     0.280 C 
BRANCH  17  18
HETATM   18  O   UNL     1      39.765 -12.993   3.063  1.00  0.00    -0.341 OA
BRANCH  18  19
HETATM   19  C   UNL     1      40.681 -12.952   4.082  1.00  0.00     0.086 A 
HETATM   20  C   UNL     1      41.566 -11.865   4.105  1.00  0.00     0.044 A 
HETATM   21  C   UNL     1      42.554 -11.766   5.091  1.00  0.00     0.029 A 
HETATM   22 BR   UNL     1      41.460 -10.472   2.815  1.00  0.00    -0.048 Br
HETATM   23  C   UNL     1      42.676 -12.755   6.074  1.00  0.00    -0.057 A 
HETATM   24  C   UNL     1      41.798 -13.844   6.047  1.00  0.00     0.010 A 
HETATM   25  C   UNL     1      40.809 -13.942   5.061  1.00  0.00     0.039 A 
BRANCH  23  26
HETATM   26  C   UNL     1      43.760 -12.672   7.118  1.00  0.00     0.034 C 
HETATM   27  C   UNL     1      45.030 -12.042   6.566  1.00  0.00     0.010 C 
ENDBRANCH  23  26
ENDBRANCH  18  19
ENDBRANCH  17  18
ENDBRANCH   1  17
TORSDOF 6
ENDMDL
MODEL 3
REMARK VINA RESULT:      -8.3      1.810      2.203
REMARK  6 active torsions:
REMARK  status: ('A' for Active; 'I' for Inactive)
REMARK    1  A    between atoms: C_2  and  C_3 
REMARK    2  A    between atoms: C_7  and  O_8 
REMARK    3  A    between atoms: O_8  and  C_9 
REMARK    4  A    between atoms: C_9  and  C_10 
REMARK       I    between atoms: C_10  and  N_11 
REMARK    5  A    between atoms: N_11  and  N_12 
REMARK    6  A    between atoms: C_13  and  C_14 
ROOT
HETATM    1  C   UNL     1      42.308 -12.031   2.768  1.00  0.00     0.261 C 
HETATM    2  N   UNL     1      42.487 -10.961   3.612  1.00  0.00    -0.246 N 
HETATM    3  O   UNL     1      41.368 -12.033   1.968  1.00  0.00    -0.269 OA
HETATM    4  H   UNL     1      41.842 -10.185   3.498  1.00  0.00     0.192 HD
ENDROOT
BRANCH   2   5
HETATM    5  N   UNL     1      43.497 -10.904   4.521  1.00  0.00    -0.184 NA
HETATM    6  C   UNL     1      43.125 -10.871   5.760  1.00  0.00     0.152 C 
BRANCH   6   7
HETATM    7  C   UNL     1      44.121 -10.777   6.805  1.00  0.00     0.011 A 
HETATM    8  C   UNL     1      43.958 -10.213   8.112  1.00  0.00     0.004 A 
HETATM    9  C   UNL     1      45.182 -10.328   8.772  1.00  0.00     0.043 A 
HETATM   10  C   UNL     1      42.880  -9.615   8.802  1.00  0.00     0.014 A 
HETATM   11  C   UNL     1      45.385  -9.874  10.081  1.00  0.00     0.030 A 
HETATM   12  N   UNL     1      46.057 -10.936   7.901  1.00  0.00    -0.364 N 
HETATM   13  C   UNL     1      44.301  -9.288  10.740  1.00  0.00     0.002 A 
HETATM   14  C   UNL     1      43.066  -9.159  10.112  1.00  0.00     0.001 A 
HETATM   15  H   UNL     1      47.025 -11.140   8.109  1.00  0.00     0.165 HD
HETATM   16  C   UNL     1      45.429 -11.215   6.719  1.00  0.00     0.102 A 
ENDBRANCH   6   7
ENDBRANCH   2   5
BRANCH   1  17
HETATM   17  C   UNL     1      43.274 -13.204   2.896  1.00  0.00     0.280 C 
BRANCH  17  18
HETATM   18  O   UNL     1      42.792 -14.135   3.856  1.00  0.00    -0.341 OA
BRANCH  18  19
HETATM   19  C   UNL     1      43.026 -15.463   3.609  1.00  0.00     0.086 A 
HETATM   20  C   UNL     1      43.498 -16.240   4.676  1.00  0.00     0.044 A 
HETATM   21  C   UNL     1      43.795 -17.596   4.499  1.00  0.00     0.029 A 
HETATM   22 BR   UNL     1      43.744 -15.500   6.410  1.00  0.00    -0.048 Br
HETATM   23  C   UNL     1      43.625 -18.201   3.248  1.00  0.00    -0.057 A 
HETATM   24  C   UNL     1      43.161 -17.425   2.181  1.00  0.00     0.010 A 
HETATM   25  C   UNL     1      42.863 -16.068   2.359  1.00  0.00     0.039 A 
BRANCH  23  26
HETATM   26  C   UNL     1      43.977 -19.652   3.042  1.00  0.00     0.034 C 
HETATM   27  C   UNL     1      43.194 -20.266   1.892  1.00  0.00     0.010 C 
ENDBRANCH  23  26
ENDBRANCH  18  19
ENDBRANCH  17  18
ENDBRANCH   1  17
TORSDOF 6
ENDMDL
MODEL 4
REMARK VINA RESULT:      -8.3      2.851      6.456
REMARK  6 active torsions:
REMARK  status: ('A' for Active; 'I' for Inactive)
REMARK    1  A    between atoms: C_2  and  C_3 
REMARK    2  A    between atoms: C_7  and  O_8 
REMARK    3  A    between atoms: O_8  and  C_9 
REMARK    4  A    between atoms: C_9  and  C_10 
REMARK       I    between atoms: C_10  and  N_11 
REMARK    5  A    between atoms: N_11  and  N_12 
REMARK    6  A    between atoms: C_13  and  C_14 
ROOT
HETATM    1  C   UNL     1      43.337 -11.361   6.769  1.00  0.00     0.261 C 
HETATM    2  N   UNL     1      43.548 -12.549   7.428  1.00  0.00    -0.246 N 
HETATM    3  O   UNL     1      43.063 -10.342   7.409  1.00  0.00    -0.269 OA
HETATM    4  H   UNL     1      43.510 -12.514   8.442  1.00  0.00     0.192 HD
ENDROOT
BRANCH   2   5
HETATM    5  N   UNL     1      43.843 -13.706   6.778  1.00  0.00    -0.184 NA
HETATM    6  C   UNL     1      42.949 -14.637   6.873  1.00  0.00     0.152 C 
BRANCH   6   7
HETATM    7  C   UNL     1      43.180 -15.920   6.245  1.00  0.00     0.011 A 
HETATM    8  C   UNL     1      43.241 -16.201   4.841  1.00  0.00     0.004 A 
HETATM    9  C   UNL     1      43.470 -17.571   4.699  1.00  0.00     0.043 A 
HETATM   10  C   UNL     1      43.126 -15.417   3.672  1.00  0.00     0.014 A 
HETATM   11  C   UNL     1      43.586 -18.196   3.452  1.00  0.00     0.030 A 
HETATM   12  N   UNL     1      43.543 -18.103   5.967  1.00  0.00    -0.364 N 
HETATM   13  C   UNL     1      43.469 -17.396   2.312  1.00  0.00     0.002 A 
HETATM   14  C   UNL     1      43.243 -16.027   2.418  1.00  0.00     0.001 A 
HETATM   15  H   UNL     1      43.694 -19.082   6.169  1.00  0.00     0.165 HD
HETATM   16  C   UNL     1      43.376 -17.120   6.902  1.00  0.00     0.102 A 
ENDBRANCH   6   7
ENDBRANCH   2   5
BRANCH   1  17
HETATM   17  C   UNL     1      43.410 -11.372   5.246  1.00  0.00     0.280 C 
BRANCH  17  18
HETATM   18  O   UNL     1      42.154 -11.005   4.691  1.00  0.00    -0.341 OA
BRANCH  18  19
HETATM   19  C   UNL     1      41.657 -11.802   3.692  1.00  0.00     0.086 A 
HETATM   20  C   UNL     1      40.610 -12.672   4.028  1.00  0.00     0.044 A 
HETATM   21  C   UNL     1      40.070 -13.544   3.075  1.00  0.00     0.029 A 
HETATM   22 BR   UNL     1      39.867 -12.703   5.778  1.00  0.00    -0.048 Br
HETATM   23  C   UNL     1      40.567 -13.561   1.767  1.00  0.00    -0.057 A 
HETATM   24  C   UNL     1      41.616 -12.698   1.434  1.00  0.00     0.010 A 
HETATM   25  C   UNL     1      42.156 -11.826   2.386  1.00  0.00     0.039 A 
BRANCH  23  26
HETATM   26  C   UNL     1      40.013 -14.522   0.747  1.00  0.00     0.034 C 
HETATM   27  C   UNL     1      39.865 -15.926   1.313  1.00  0.00     0.010 C 
ENDBRANCH  23  26
ENDBRANCH  18  19
ENDBRANCH  17  18
ENDBRANCH   1  17
TORSDOF 6
ENDMDL
MODEL 5
REMARK VINA RESULT:      -8.2      2.662      8.457
REMARK  6 active torsions:
REMARK  status: ('A' for Active; 'I' for Inactive)
REMARK    1  A    between atoms: C_2  and  C_3 
REMARK    2  A    between atoms: C_7  and  O_8 
REMARK    3  A    between atoms: O_8  and  C_9 
REMARK    4  A    between atoms: C_9  and  C_10 
REMARK       I    between atoms: C_10  and  N_11 
REMARK    5  A    between atoms: N_11  and  N_12 
REMARK    6  A    between atoms: C_13  and  C_14 
ROOT
HETATM    1  C   UNL     1      42.729 -11.977   2.604  1.00  0.00     0.261 C 
HETATM    2  N   UNL     1      42.495 -13.277   2.222  1.00  0.00    -0.246 N 
HETATM    3  O   UNL     1      42.072 -11.061   2.101  1.00  0.00    -0.269 OA
HETATM    4  H   UNL     1      41.741 -13.423   1.559  1.00  0.00     0.192 HD
ENDROOT
BRANCH   2   5
HETATM    5  N   UNL     1      43.191 -14.328   2.733  1.00  0.00    -0.184 NA
HETATM    6  C   UNL     1      42.484 -15.194   3.385  1.00  0.00     0.152 C 
BRANCH   6   7
HETATM    7  C   UNL     1      43.132 -16.334   3.996  1.00  0.00     0.011 A 
HETATM    8  C   UNL     1      43.247 -17.658   3.461  1.00  0.00     0.004 A 
HETATM    9  C   UNL     1      43.938 -18.428   4.398  1.00  0.00     0.043 A 
HETATM   10  C   UNL     1      42.831 -18.278   2.262  1.00  0.00     0.014 A 
HETATM   11  C   UNL     1      44.231 -19.783   4.201  1.00  0.00     0.030 A 
HETATM   12  N   UNL     1      44.230 -17.606   5.463  1.00  0.00    -0.364 N 
HETATM   13  C   UNL     1      43.808 -20.370   3.005  1.00  0.00     0.002 A 
HETATM   14  C   UNL     1      43.118 -19.631   2.048  1.00  0.00     0.001 A 
HETATM   15  H   UNL     1      44.721 -17.900   6.296  1.00  0.00     0.165 HD
HETATM   16  C   UNL     1      43.755 -16.345   5.230  1.00  0.00     0.102 A 
ENDBRANCH   6   7
ENDBRANCH   2   5
BRANCH   1  17
HETATM   17  C   UNL     1      43.839 -11.724   3.618  1.00  0.00     0.280 C 
BRANCH  17  18
HETATM   18  O   UNL     1      43.430 -12.147   4.911  1.00  0.00    -0.341 OA
BRANCH  18  19
HETATM   19  C   UNL     1      43.992 -11.506   5.984  1.00  0.00     0.086 A 
HETATM   20  C   UNL     1      43.169 -10.636   6.714  1.00  0.00     0.044 A 
HETATM   21  C   UNL     1      43.675  -9.915   7.802  1.00  0.00     0.029 A 
HETATM   22 BR   UNL     1      41.334 -10.404   6.274  1.00  0.00    -0.048 Br
HETATM   23  C   UNL     1      45.015 -10.051   8.181  1.00  0.00    -0.057 A 
HETATM   24  C   UNL     1      45.838 -10.913   7.449  1.00  0.00     0.010 A 
HETATM   25  C   UNL     1      45.332 -11.634   6.361  1.00  0.00     0.039 A 
BRANCH  23  26
HETATM   26  C   UNL     1      45.574  -9.251   9.330  1.00  0.00     0.034 C 
HETATM   27  C   UNL     1      44.875  -9.579  10.640  1.00  0.00     0.010 C 
ENDBRANCH  23  26
ENDBRANCH  18  19
ENDBRANCH  17  18
ENDBRANCH   1  17
TORSDOF 6
ENDMDL
MODEL 6
REMARK VINA RESULT:      -8.1      4.120      6.955
REMARK  6 active torsions:
REMARK  status: ('A' for Active; 'I' for Inactive)
REMARK    1  A    between atoms: C_2  and  C_3 
REMARK    2  A    between atoms: C_7  and  O_8 
REMARK    3  A    between atoms: O_8  and  C_9 
REMARK    4  A    between atoms: C_9  and  C_10 
REMARK       I    between atoms: C_10  and  N_11 
REMARK    5  A    between atoms: N_11  and  N_12 
REMARK    6  A    between atoms: C_13  and  C_14 
ROOT
HETATM    1  C   UNL     1      40.101 -12.675   5.417  1.00  0.00     0.261 C 
HETATM    2  N   UNL     1      40.714 -13.406   6.407  1.00  0.00    -0.246 N 
HETATM    3  O   UNL     1      39.762 -11.508   5.634  1.00  0.00    -0.269 OA
HETATM    4  H   UNL     1      40.902 -12.917   7.276  1.00  0.00     0.192 HD
ENDROOT
BRANCH   2   5
HETATM    5  N   UNL     1      41.101 -14.698   6.232  1.00  0.00    -0.184 NA
HETATM    6  C   UNL     1      42.379 -14.885   6.148  1.00  0.00     0.152 C 
BRANCH   6   7
HETATM    7  C   UNL     1      42.895 -16.219   5.929  1.00  0.00     0.011 A 
HETATM    8  C   UNL     1      43.091 -16.879   4.673  1.00  0.00     0.004 A 
HETATM    9  C   UNL     1      43.594 -18.153   4.945  1.00  0.00     0.043 A 
HETATM   10  C   UNL     1      42.889 -16.514   3.324  1.00  0.00     0.014 A 
HETATM   11  C   UNL     1      43.903 -19.078   3.940  1.00  0.00     0.030 A 
HETATM   12  N   UNL     1      43.698 -18.264   6.313  1.00  0.00    -0.364 N 
HETATM   13  C   UNL     1      43.695 -18.689   2.614  1.00  0.00     0.002 A 
HETATM   14  C   UNL     1      43.196 -17.426   2.308  1.00  0.00     0.001 A 
HETATM   15  H   UNL     1      44.029 -19.087   6.797  1.00  0.00     0.165 HD
HETATM   16  C   UNL     1      43.287 -17.107   6.913  1.00  0.00     0.102 A 
ENDBRANCH   6   7
ENDBRANCH   2   5
BRANCH   1  17
HETATM   17  C   UNL     1      39.824 -13.372   4.089  1.00  0.00     0.280 C 
BRANCH  17  18
HETATM   18  O   UNL     1      40.933 -13.221   3.214  1.00  0.00    -0.341 OA
BRANCH  18  19
HETATM   19  C   UNL     1      40.720 -13.483   1.886  1.00  0.00     0.086 A 
HETATM   20  C   UNL     1      40.956 -12.439   0.980  1.00  0.00     0.044 A 
HETATM   21  C   UNL     1      40.729 -12.613  -0.390  1.00  0.00     0.029 A 
HETATM   22 BR   UNL     1      41.606 -10.749   1.562  1.00  0.00    -0.048 Br
HETATM   23  C   UNL     1      40.260 -13.836  -0.881  1.00  0.00    -0.057 A 
HETATM   24  C   UNL     1      40.017 -14.877   0.023  1.00  0.00     0.010 A 
HETATM   25  C   UNL     1      40.245 -14.702   1.393  1.00  0.00     0.039 A 
BRANCH  23  26
HETATM   26  C   UNL     1      39.980 -14.019  -2.350  1.00  0.00     0.034 C 
HETATM   27  C   UNL     1      38.835 -14.991  -2.592  1.00  0.00     0.010 C 
ENDBRANCH  23  26
ENDBRANCH  18  19
ENDBRANCH  17  18
ENDBRANCH   1  17
TORSDOF 6
ENDMDL
MODEL 7
REMARK VINA RESULT:      -8.0      3.817      7.175
REMARK  6 active torsions:
REMARK  status: ('A' for Active; 'I' for Inactive)
REMARK    1  A    between atoms: C_2  and  C_3 
REMARK    2  A    between atoms: C_7  and  O_8 
REMARK    3  A    between atoms: O_8  and  C_9 
REMARK    4  A    between atoms: C_9  and  C_10 
REMARK       I    between atoms: C_10  and  N_11 
REMARK    5  A    between atoms: N_11  and  N_12 
REMARK    6  A    between atoms: C_13  and  C_14 
ROOT
HETATM    1  C   UNL     1      41.818 -12.874   5.131  1.00  0.00     0.261 C 
HETATM    2  N   UNL     1      41.065 -12.386   4.089  1.00  0.00    -0.246 N 
HETATM    3  O   UNL     1      42.328 -12.093   5.939  1.00  0.00    -0.269 OA
HETATM    4  H   UNL     1      40.928 -11.381   4.065  1.00  0.00     0.192 HD
ENDROOT
BRANCH   2   5
HETATM    5  N   UNL     1      40.485 -13.195   3.162  1.00  0.00    -0.184 NA
HETATM    6  C   UNL     1      40.910 -13.038   1.949  1.00  0.00     0.152 C 
BRANCH   6   7
HETATM    7  C   UNL     1      40.335 -13.827   0.881  1.00  0.00     0.011 A 
HETATM    8  C   UNL     1      40.149 -13.435  -0.485  1.00  0.00     0.004 A 
HETATM    9  C   UNL     1      39.549 -14.506  -1.148  1.00  0.00     0.043 A 
HETATM   10  C   UNL     1      40.437 -12.267  -1.224  1.00  0.00     0.014 A 
HETATM   11  C   UNL     1      39.221 -14.470  -2.509  1.00  0.00     0.030 A 
HETATM   12  N   UNL     1      39.374 -15.510  -0.222  1.00  0.00    -0.364 N 
HETATM   13  C   UNL     1      39.519 -13.302  -3.216  1.00  0.00     0.002 A 
HETATM   14  C   UNL     1      40.119 -12.216  -2.586  1.00  0.00     0.001 A 
HETATM   15  H   UNL     1      38.952 -16.407  -0.421  1.00  0.00     0.165 HD
HETATM   16  C   UNL     1      39.847 -15.115   0.998  1.00  0.00     0.102 A 
ENDBRANCH   6   7
ENDBRANCH   2   5
BRANCH   1  17
HETATM   17  C   UNL     1      42.024 -14.383   5.212  1.00  0.00     0.280 C 
BRANCH  17  18
HETATM   18  O   UNL     1      43.182 -14.760   4.479  1.00  0.00    -0.341 OA
BRANCH  18  19
HETATM   19  C   UNL     1      43.268 -16.068   4.079  1.00  0.00     0.086 A 
HETATM   20  C   UNL     1      43.950 -16.955   4.925  1.00  0.00     0.044 A 
HETATM   21  C   UNL     1      44.113 -18.299   4.573  1.00  0.00     0.029 A 
HETATM   22 BR   UNL     1      44.669 -16.382   6.589  1.00  0.00    -0.048 Br
HETATM   23  C   UNL     1      43.597 -18.784   3.366  1.00  0.00    -0.057 A 
HETATM   24  C   UNL     1      42.923 -17.899   2.517  1.00  0.00     0.010 A 
HETATM   25  C   UNL     1      42.759 -16.553   2.870  1.00  0.00     0.039 A 
BRANCH  23  26
HETATM   26  C   UNL     1      43.799 -20.222   2.965  1.00  0.00     0.034 C 
HETATM   27  C   UNL     1      43.516 -20.443   1.487  1.00  0.00     0.010 C 
ENDBRANCH  23  26
ENDBRANCH  18  19
ENDBRANCH  17  18
ENDBRANCH   1  17
TORSDOF 6
ENDMDL
MODEL 8
REMARK VINA RESULT:      -8.0      3.433      7.061
REMARK  6 active torsions:
REMARK  status: ('A' for Active; 'I' for Inactive)
REMARK    1  A    between atoms: C_2  and  C_3 
REMARK    2  A    between atoms: C_7  and  O_8 
REMARK    3  A    between atoms: O_8  and  C_9 
REMARK    4  A    between atoms: C_9  and  C_10 
REMARK       I    between atoms: C_10  and  N_11 
REMARK    5  A    between atoms: N_11  and  N_12 
REMARK    6  A    between atoms: C_13  and  C_14 
ROOT
HETATM    1  C   UNL     1      40.906 -13.351   0.685  1.00  0.00     0.261 C 
HETATM    2  N   UNL     1      41.718 -14.451   0.545  1.00  0.00    -0.246 N 
HETATM    3  O   UNL     1      40.815 -12.532  -0.234  1.00  0.00    -0.269 OA
HETATM    4  H   UNL     1      42.180 -14.558  -0.352  1.00  0.00     0.192 HD
ENDROOT
BRANCH   2   5
HETATM    5  N   UNL     1      41.866 -15.382   1.525  1.00  0.00    -0.184 NA
HETATM    6  C   UNL     1      43.032 -15.940   1.585  1.00  0.00     0.152 C 
BRANCH   6   7
HETATM    7  C   UNL     1      43.285 -16.968   2.571  1.00  0.00     0.011 A 
HETATM    8  C   UNL     1      43.356 -16.809   3.993  1.00  0.00     0.004 A 
HETATM    9  C   UNL     1      43.633 -18.063   4.540  1.00  0.00     0.043 A 
HETATM   10  C   UNL     1      43.209 -15.714   4.872  1.00  0.00     0.014 A 
HETATM   11  C   UNL     1      43.771 -18.278   5.917  1.00  0.00     0.030 A 
HETATM   12  N   UNL     1      43.728 -18.951   3.493  1.00  0.00    -0.364 N 
HETATM   13  C   UNL     1      43.619 -17.176   6.763  1.00  0.00     0.002 A 
HETATM   14  C   UNL     1      43.341 -15.912   6.251  1.00  0.00     0.001 A 
HETATM   15  H   UNL     1      43.931 -19.936   3.592  1.00  0.00     0.165 HD
HETATM   16  C   UNL     1      43.516 -18.305   2.306  1.00  0.00     0.102 A 
ENDBRANCH   6   7
ENDBRANCH   2   5
BRANCH   1  17
HETATM   17  C   UNL     1      40.177 -13.171   2.012  1.00  0.00     0.280 C 
BRANCH  17  18
HETATM   18  O   UNL     1      40.597 -11.970   2.645  1.00  0.00    -0.341 OA
BRANCH  18  19
HETATM   19  C   UNL     1      41.608 -12.070   3.565  1.00  0.00     0.086 A 
HETATM   20  C   UNL     1      41.239 -12.232   4.908  1.00  0.00     0.044 A 
HETATM   21  C   UNL     1      42.209 -12.307   5.914  1.00  0.00     0.029 A 
HETATM   22 BR   UNL     1      39.414 -12.370   5.426  1.00  0.00    -0.048 Br
HETATM   23  C   UNL     1      43.569 -12.221   5.595  1.00  0.00    -0.057 A 
HETATM   24  C   UNL     1      43.938 -12.053   4.256  1.00  0.00     0.010 A 
HETATM   25  C   UNL     1      42.967 -11.978   3.250  1.00  0.00     0.039 A 
BRANCH  23  26
HETATM   26  C   UNL     1      44.617 -12.266   6.677  1.00  0.00     0.034 C 
HETATM   27  C   UNL     1      45.684 -11.201   6.476  1.00  0.00     0.010 C 
ENDBRANCH  23  26
ENDBRANCH  18  19
ENDBRANCH  17  18
ENDBRANCH   1  17
TORSDOF 6
ENDMDL
MODEL 9
REMARK VINA RESULT:      -7.9      4.730      7.969
REMARK  6 active torsions:
REMARK  status: ('A' for Active; 'I' for Inactive)
REMARK    1  A    between atoms: C_2  and  C_3 
REMARK    2  A    between atoms: C_7  and  O_8 
REMARK    3  A    between atoms: O_8  and  C_9 
REMARK    4  A    between atoms: C_9  and  C_10 
REMARK       I    between atoms: C_10  and  N_11 
REMARK    5  A    between atoms: N_11  and  N_12 
REMARK    6  A    between atoms: C_13  and  C_14 
ROOT
HETATM    1  C   UNL     1      42.615 -12.082   2.913  1.00  0.00     0.261 C 
HETATM    2  N   UNL     1      41.839 -11.166   2.244  1.00  0.00    -0.246 N 
HETATM    3  O   UNL     1      43.660 -11.719   3.460  1.00  0.00    -0.269 OA
HETATM    4  H   UNL     1      42.153 -10.202   2.273  1.00  0.00     0.192 HD
ENDROOT
BRANCH   2   5
HETATM    5  N   UNL     1      40.682 -11.507   1.614  1.00  0.00    -0.184 NA
HETATM    6  C   UNL     1      40.645 -11.245   0.347  1.00  0.00     0.152 C 
BRANCH   6   7
HETATM    7  C   UNL     1      39.448 -11.538  -0.411  1.00  0.00     0.011 A 
HETATM    8  C   UNL     1      39.229 -12.643  -1.296  1.00  0.00     0.004 A 
HETATM    9  C   UNL     1      37.939 -12.514  -1.814  1.00  0.00     0.043 A 
HETATM   10  C   UNL     1      40.007 -13.749  -1.706  1.00  0.00     0.014 A 
HETATM   11  C   UNL     1      37.390 -13.429  -2.721  1.00  0.00     0.030 A 
HETATM   12  N   UNL     1      37.395 -11.374  -1.268  1.00  0.00    -0.364 N 
HETATM   13  C   UNL     1      38.181 -14.514  -3.108  1.00  0.00     0.002 A 
HETATM   14  C   UNL     1      39.471 -14.674  -2.609  1.00  0.00     0.001 A 
HETATM   15  H   UNL     1      36.468 -11.026  -1.472  1.00  0.00     0.165 HD
HETATM   16  C   UNL     1      38.290 -10.782  -0.421  1.00  0.00     0.102 A 
ENDBRANCH   6   7
ENDBRANCH   2   5
BRANCH   1  17
HETATM   17  C   UNL     1      42.159 -13.537   2.909  1.00  0.00     0.280 C 
BRANCH  17  18
HETATM   18  O   UNL     1      42.853 -14.273   3.907  1.00  0.00    -0.341 OA
BRANCH  18  19
HETATM   19  C   UNL     1      43.061 -15.606   3.668  1.00  0.00     0.086 A 
HETATM   20  C   UNL     1      43.582 -16.373   4.719  1.00  0.00     0.044 A 
HETATM   21  C   UNL     1      43.856 -17.735   4.546  1.00  0.00     0.029 A 
HETATM   22 BR   UNL     1      43.926 -15.611   6.427  1.00  0.00    -0.048 Br
HETATM   23  C   UNL     1      43.615 -18.356   3.316  1.00  0.00    -0.057 A 
HETATM   24  C   UNL     1      43.102 -17.590   2.263  1.00  0.00     0.010 A 
HETATM   25  C   UNL     1      42.827 -16.228   2.437  1.00  0.00     0.039 A 
BRANCH  23  26
HETATM   26  C   UNL     1      43.941 -19.813   3.113  1.00  0.00     0.034 C 
HETATM   27  C   UNL     1      43.343 -20.353   1.822  1.00  0.00     0.010 C 
ENDBRANCH  23  26
ENDBRANCH  18  19
ENDBRANCH  17  18
ENDBRANCH   1  17
TORSDOF 6
ENDMDL
MODEL 10
REMARK VINA RESULT:      -7.8      4.543      7.424
REMARK  6 active torsions:
REMARK  status: ('A' for Active; 'I' for Inactive)
REMARK    1  A    between atoms: C_2  and  C_3 
REMARK    2  A    between atoms: C_7  and  O_8 
REMARK    3  A    between atoms: O_8  and  C_9 
REMARK    4  A    between atoms: C_9  and  C_10 
REMARK       I    between atoms: C_10  and  N_11 
REMARK    5  A    between atoms: N_11  and  N_12 
REMARK    6  A    between atoms: C_13  and  C_14 
ROOT
HETATM    1  C   UNL     1      39.362 -13.171  -0.984  1.00  0.00     0.261 C 
HETATM    2  N   UNL     1      39.447 -14.428  -0.435  1.00  0.00    -0.246 N 
HETATM    3  O   UNL     1      38.326 -12.818  -1.553  1.00  0.00    -0.269 OA
HETATM    4  H   UNL     1      38.611 -15.001  -0.489  1.00  0.00     0.192 HD
ENDROOT
BRANCH   2   5
HETATM    5  N   UNL     1      40.565 -14.879   0.196  1.00  0.00    -0.184 NA
HETATM    6  C   UNL     1      40.369 -15.394   1.367  1.00  0.00     0.152 C 
BRANCH   6   7
HETATM    7  C   UNL     1      41.496 -15.874   2.137  1.00  0.00     0.011 A 
HETATM    8  C   UNL     1      41.536 -16.140   3.545  1.00  0.00     0.004 A 
HETATM    9  C   UNL     1      42.828 -16.572   3.851  1.00  0.00     0.043 A 
HETATM   10  C   UNL     1      40.593 -16.056   4.592  1.00  0.00     0.014 A 
HETATM   11  C   UNL     1      43.225 -16.921   5.147  1.00  0.00     0.030 A 
HETATM   12  N   UNL     1      43.546 -16.567   2.677  1.00  0.00    -0.364 N 
HETATM   13  C   UNL     1      42.270 -16.830   6.164  1.00  0.00     0.002 A 
HETATM   14  C   UNL     1      40.973 -16.404   5.893  1.00  0.00     0.001 A 
HETATM   15  H   UNL     1      44.519 -16.828   2.599  1.00  0.00     0.165 HD
HETATM   16  C   UNL     1      42.755 -16.155   1.641  1.00  0.00     0.102 A 
ENDBRANCH   6   7
ENDBRANCH   2   5
BRANCH   1  17
HETATM   17  C   UNL     1      40.593 -12.275  -0.899  1.00  0.00     0.280 C 
BRANCH  17  18
HETATM   18  O   UNL     1      40.429 -11.311   0.132  1.00  0.00    -0.341 OA
BRANCH  18  19
HETATM   19  C   UNL     1      40.770 -11.694   1.403  1.00  0.00     0.086 A 
HETATM   20  C   UNL     1      39.751 -11.705   2.366  1.00  0.00     0.044 A 
HETATM   21  C   UNL     1      40.023 -12.049   3.695  1.00  0.00     0.029 A 
HETATM   22 BR   UNL     1      37.955 -11.269   1.914  1.00  0.00    -0.048 Br
HETATM   23  C   UNL     1      41.322 -12.389   4.087  1.00  0.00    -0.057 A 
HETATM   24  C   UNL     1      42.342 -12.371   3.129  1.00  0.00     0.010 A 
HETATM   25  C   UNL     1      42.069 -12.027   1.800  1.00  0.00     0.039 A 
BRANCH  23  26
HETATM   26  C   UNL     1      41.628 -12.726   5.524  1.00  0.00     0.034 C 
HETATM   27  C   UNL     1      43.079 -13.144   5.711  1.00  0.00     0.010 C 
ENDBRANCH  23  26
ENDBRANCH  18  19
ENDBRANCH  17  18
ENDBRANCH   1  17
TORSDOF 6
ENDMDL
