MODEL 1
REMARK VINA RESULT:      -8.7      0.000      0.000
REMARK  8 active torsions:
REMARK  status: ('A' for Active; 'I' for Inactive)
REMARK    1  A    between atoms: C_7  and  C_8 
REMARK       I    between atoms: C_8  and  N_9 
REMARK    2  A    between atoms: N_9  and  C_10 
REMARK    3  A    between atoms: C_12  and  C_13 
REMARK       I    between atoms: C_13  and  N_14 
REMARK    4  A    between atoms: N_14  and  C_15 
REMARK    5  A    between atoms: C_15  and  C_16 
REMARK    6  A    between atoms: C_16  and  C_17 
REMARK    7  A    between atoms: C_18  and  O_19 
REMARK    8  A    between atoms: C_23  and  O_24 
ROOT
HETATM    1  C   UNL     1      44.006 -10.671   8.374  1.00  0.00     0.035 A 
HETATM    2  C   UNL     1      43.529 -11.178   7.162  1.00  0.00     0.046 A 
HETATM    3  C   UNL     1      44.421 -11.462   6.116  1.00  0.00     0.034 A 
HETATM    4  C   UNL     1      45.789 -11.217   6.273  1.00  0.00     0.017 A 
HETATM    5  C   UNL     1      46.270 -10.722   7.482  1.00  0.00     0.003 A 
HETATM    6  C   UNL     1      45.382 -10.457   8.528  1.00  0.00     0.029 A 
ENDROOT
BRANCH   3   7
HETATM    7  C   UNL     1      43.942 -11.981   4.809  1.00  0.00     0.251 C 
HETATM    8  N   UNL     1      43.121 -13.087   4.856  1.00  0.00    -0.357 N 
HETATM    9  H   UNL     1      42.873 -13.494   5.749  1.00  0.00     0.162 HD
HETATM   10  O   UNL     1      44.300 -11.439   3.770  1.00  0.00    -0.268 OA
BRANCH   8  11
HETATM   11  C   UNL     1      42.481 -13.610   3.662  1.00  0.00     0.127 C 
BRANCH  11  12
HETATM   12  C   UNL     1      41.723 -14.918   3.910  1.00  0.00     0.061 C 
BRANCH  12  13
HETATM   13  C   UNL     1      42.498 -16.227   3.906  1.00  0.00    -0.021 A 
HETATM   14  C   UNL     1      43.247 -16.574   5.053  1.00  0.00     0.074 A 
HETATM   15  C   UNL     1      43.966 -17.771   5.078  1.00  0.00     0.040 A 
HETATM   16  C   UNL     1      43.965 -18.616   3.968  1.00  0.00     0.039 A 
HETATM   17  C   UNL     1      43.257 -18.277   2.817  1.00  0.00     0.068 A 
HETATM   18  C   UNL     1      42.534 -17.082   2.787  1.00  0.00     0.046 A 
BRANCH  14  19
HETATM   19  O   UNL     1      43.201 -15.678   6.090  1.00  0.00    -0.355 OA
HETATM   20  C   UNL     1      42.555 -16.095   7.287  1.00  0.00     0.210 C 
ENDBRANCH  14  19
BRANCH  17  21
HETATM   21  O   UNL     1      43.354 -19.188   1.801  1.00  0.00    -0.356 OA
HETATM   22  C   UNL     1      43.769 -20.502   2.151  1.00  0.00     0.210 C 
ENDBRANCH  17  21
ENDBRANCH  12  13
ENDBRANCH  11  12
ENDBRANCH   8  11
ENDBRANCH   3   7
BRANCH   1  23
HETATM   23  N   UNL     1      43.181 -10.347   9.468  1.00  0.00    -0.322 N 
HETATM   24  C   UNL     1      42.304  -9.286   9.595  1.00  0.00     0.265 C 
HETATM   25  O   UNL     1      42.113  -8.423   8.743  1.00  0.00    -0.267 OA
HETATM   26  H   UNL     1      43.269 -10.931  10.294  1.00  0.00     0.169 HD
BRANCH  24  27
HETATM   27  C   UNL     1      41.581  -9.247  10.935  1.00  0.00     0.097 C 
HETATM   28  C   UNL     1      42.240  -8.934  12.078  1.00  0.00     0.064 C 
HETATM   29  C   UNL     1      43.676  -8.476  12.124  1.00  0.00     0.078 C 
HETATM   30  O   UNL     1      41.689  -8.942  13.351  1.00  0.00    -0.353 OA
HETATM   31  C   UNL     1      40.490  -9.697  13.523  1.00  0.00     0.185 C 
HETATM   32  C   UNL     1      39.405  -9.217  12.585  1.00  0.00     0.106 C 
HETATM   33  S   UNL     1      39.876  -9.651  10.893  1.00  0.00    -0.120 SA
ENDBRANCH  24  27
ENDBRANCH   1  23
TORSDOF 8
ENDMDL
MODEL 2
REMARK VINA RESULT:      -8.2      1.987      2.804
REMARK  8 active torsions:
REMARK  status: ('A' for Active; 'I' for Inactive)
REMARK    1  A    between atoms: C_7  and  C_8 
REMARK       I    between atoms: C_8  and  N_9 
REMARK    2  A    between atoms: N_9  and  C_10 
REMARK    3  A    between atoms: C_12  and  C_13 
REMARK       I    between atoms: C_13  and  N_14 
REMARK    4  A    between atoms: N_14  and  C_15 
REMARK    5  A    between atoms: C_15  and  C_16 
REMARK    6  A    between atoms: C_16  and  C_17 
REMARK    7  A    between atoms: C_18  and  O_19 
REMARK    8  A    between atoms: C_23  and  O_24 
ROOT
HETATM    1  C   UNL     1      44.081  -9.836   9.346  1.00  0.00     0.035 A 
HETATM    2  C   UNL     1      43.574 -10.875   8.562  1.00  0.00     0.046 A 
HETATM    3  C   UNL     1      44.359 -11.441   7.546  1.00  0.00     0.034 A 
HETATM    4  C   UNL     1      45.645 -10.952   7.298  1.00  0.00     0.017 A 
HETATM    5  C   UNL     1      46.159  -9.923   8.083  1.00  0.00     0.003 A 
HETATM    6  C   UNL     1      45.382  -9.373   9.105  1.00  0.00     0.029 A 
ENDROOT
BRANCH   3   7
HETATM    7  C   UNL     1      43.839 -12.533   6.683  1.00  0.00     0.251 C 
HETATM    8  N   UNL     1      43.337 -13.639   7.334  1.00  0.00    -0.357 N 
HETATM    9  H   UNL     1      43.332 -13.669   8.346  1.00  0.00     0.162 HD
HETATM   10  O   UNL     1      43.895 -12.425   5.464  1.00  0.00    -0.268 OA
BRANCH   8  11
HETATM   11  C   UNL     1      42.681 -14.714   6.611  1.00  0.00     0.127 C 
BRANCH  11  12
HETATM   12  C   UNL     1      43.660 -15.767   6.081  1.00  0.00     0.061 C 
BRANCH  12  13
HETATM   13  C   UNL     1      43.457 -16.317   4.678  1.00  0.00    -0.021 A 
HETATM   14  C   UNL     1      43.693 -17.691   4.448  1.00  0.00     0.074 A 
HETATM   15  C   UNL     1      43.512 -18.225   3.170  1.00  0.00     0.040 A 
HETATM   16  C   UNL     1      43.119 -17.402   2.114  1.00  0.00     0.039 A 
HETATM   17  C   UNL     1      42.910 -16.040   2.314  1.00  0.00     0.068 A 
HETATM   18  C   UNL     1      43.087 -15.501   3.591  1.00  0.00     0.046 A 
BRANCH  14  19
HETATM   19  O   UNL     1      44.091 -18.421   5.540  1.00  0.00    -0.355 OA
HETATM   20  C   UNL     1      44.018 -19.838   5.442  1.00  0.00     0.210 C 
ENDBRANCH  14  19
BRANCH  17  21
HETATM   21  O   UNL     1      42.542 -15.351   1.191  1.00  0.00    -0.356 OA
HETATM   22  C   UNL     1      41.231 -14.800   1.173  1.00  0.00     0.210 C 
ENDBRANCH  17  21
ENDBRANCH  12  13
ENDBRANCH  11  12
ENDBRANCH   8  11
ENDBRANCH   3   7
BRANCH   1  23
HETATM   23  N   UNL     1      43.357  -9.203  10.376  1.00  0.00    -0.322 N 
HETATM   24  C   UNL     1      43.079  -9.679  11.644  1.00  0.00     0.265 C 
HETATM   25  O   UNL     1      43.424 -10.774  12.078  1.00  0.00    -0.267 OA
HETATM   26  H   UNL     1      42.939  -8.306  10.154  1.00  0.00     0.169 HD
BRANCH  24  27
HETATM   27  C   UNL     1      42.255  -8.718  12.491  1.00  0.00     0.097 C 
HETATM   28  C   UNL     1      40.900  -8.757  12.477  1.00  0.00     0.064 C 
HETATM   29  C   UNL     1      40.095  -9.808  11.755  1.00  0.00     0.078 C 
HETATM   30  O   UNL     1      40.064  -7.881  13.154  1.00  0.00    -0.353 OA
HETATM   31  C   UNL     1      40.636  -6.638  13.560  1.00  0.00     0.185 C 
HETATM   32  C   UNL     1      41.842  -6.857  14.447  1.00  0.00     0.106 C 
HETATM   33  S   UNL     1      43.170  -7.565  13.443  1.00  0.00    -0.120 SA
ENDBRANCH  24  27
ENDBRANCH   1  23
TORSDOF 8
ENDMDL
MODEL 3
REMARK VINA RESULT:      -7.9      1.694      2.346
REMARK  8 active torsions:
REMARK  status: ('A' for Active; 'I' for Inactive)
REMARK    1  A    between atoms: C_7  and  C_8 
REMARK       I    between atoms: C_8  and  N_9 
REMARK    2  A    between atoms: N_9  and  C_10 
REMARK    3  A    between atoms: C_12  and  C_13 
REMARK       I    between atoms: C_13  and  N_14 
REMARK    4  A    between atoms: N_14  and  C_15 
REMARK    5  A    between atoms: C_15  and  C_16 
REMARK    6  A    between atoms: C_16  and  C_17 
REMARK    7  A    between atoms: C_18  and  O_19 
REMARK    8  A    between atoms: C_23  and  O_24 
ROOT
HETATM    1  C   UNL     1      43.757  -9.542   9.312  1.00  0.00     0.035 A 
HETATM    2  C   UNL     1      43.410 -10.614   8.485  1.00  0.00     0.046 A 
HETATM    3  C   UNL     1      44.359 -11.172   7.616  1.00  0.00     0.034 A 
HETATM    4  C   UNL     1      45.653 -10.643   7.556  1.00  0.00     0.017 A 
HETATM    5  C   UNL     1      46.007  -9.582   8.385  1.00  0.00     0.003 A 
HETATM    6  C   UNL     1      45.065  -9.040   9.261  1.00  0.00     0.029 A 
ENDROOT
BRANCH   3   7
HETATM    7  C   UNL     1      44.014 -12.298   6.711  1.00  0.00     0.251 C 
HETATM    8  N   UNL     1      43.499 -13.427   7.310  1.00  0.00    -0.357 N 
HETATM    9  H   UNL     1      43.371 -13.451   8.314  1.00  0.00     0.162 HD
HETATM   10  O   UNL     1      44.213 -12.195   5.506  1.00  0.00    -0.268 OA
BRANCH   8  11
HETATM   11  C   UNL     1      43.000 -14.543   6.527  1.00  0.00     0.127 C 
BRANCH  11  12
HETATM   12  C   UNL     1      44.099 -15.531   6.119  1.00  0.00     0.061 C 
BRANCH  12  13
HETATM   13  C   UNL     1      43.842 -16.474   4.954  1.00  0.00    -0.021 A 
HETATM   14  C   UNL     1      43.335 -15.940   3.748  1.00  0.00     0.074 A 
HETATM   15  C   UNL     1      43.092 -16.782   2.661  1.00  0.00     0.040 A 
HETATM   16  C   UNL     1      43.328 -18.153   2.768  1.00  0.00     0.039 A 
HETATM   17  C   UNL     1      43.800 -18.703   3.957  1.00  0.00     0.068 A 
HETATM   18  C   UNL     1      44.047 -17.865   5.047  1.00  0.00     0.046 A 
BRANCH  14  19
HETATM   19  O   UNL     1      43.119 -14.585   3.739  1.00  0.00    -0.355 OA
HETATM   20  C   UNL     1      42.975 -13.954   2.472  1.00  0.00     0.210 C 
ENDBRANCH  14  19
BRANCH  17  21
HETATM   21  O   UNL     1      43.973 -20.059   3.926  1.00  0.00    -0.356 OA
HETATM   22  C   UNL     1      44.234 -20.706   5.166  1.00  0.00     0.210 C 
ENDBRANCH  17  21
ENDBRANCH  12  13
ENDBRANCH  11  12
ENDBRANCH   8  11
ENDBRANCH   3   7
BRANCH   1  23
HETATM   23  N   UNL     1      42.864  -8.915  10.202  1.00  0.00    -0.322 N 
HETATM   24  C   UNL     1      42.422  -9.367  11.432  1.00  0.00     0.265 C 
HETATM   25  O   UNL     1      42.744 -10.432  11.949  1.00  0.00    -0.267 OA
HETATM   26  H   UNL     1      42.446  -8.044   9.890  1.00  0.00     0.169 HD
BRANCH  24  27
HETATM   27  C   UNL     1      41.442  -8.421  12.115  1.00  0.00     0.097 C 
HETATM   28  C   UNL     1      41.832  -7.637  13.150  1.00  0.00     0.064 C 
HETATM   29  C   UNL     1      43.257  -7.521  13.630  1.00  0.00     0.078 C 
HETATM   30  O   UNL     1      41.001  -6.801  13.881  1.00  0.00    -0.353 OA
HETATM   31  C   UNL     1      39.601  -7.070  13.811  1.00  0.00     0.185 C 
HETATM   32  C   UNL     1      39.109  -7.027  12.381  1.00  0.00     0.106 C 
HETATM   33  S   UNL     1      39.804  -8.441  11.492  1.00  0.00    -0.120 SA
ENDBRANCH  24  27
ENDBRANCH   1  23
TORSDOF 8
ENDMDL
MODEL 4
REMARK VINA RESULT:      -7.9      1.851      2.565
REMARK  8 active torsions:
REMARK  status: ('A' for Active; 'I' for Inactive)
REMARK    1  A    between atoms: C_7  and  C_8 
REMARK       I    between atoms: C_8  and  N_9 
REMARK    2  A    between atoms: N_9  and  C_10 
REMARK    3  A    between atoms: C_12  and  C_13 
REMARK       I    between atoms: C_13  and  N_14 
REMARK    4  A    between atoms: N_14  and  C_15 
REMARK    5  A    between atoms: C_15  and  C_16 
REMARK    6  A    between atoms: C_16  and  C_17 
REMARK    7  A    between atoms: C_18  and  O_19 
REMARK    8  A    between atoms: C_23  and  O_24 
ROOT
HETATM    1  C   UNL     1      43.969  -9.670   9.265  1.00  0.00     0.035 A 
HETATM    2  C   UNL     1      43.518 -10.351   8.131  1.00  0.00     0.046 A 
HETATM    3  C   UNL     1      44.428 -10.754   7.141  1.00  0.00     0.034 A 
HETATM    4  C   UNL     1      45.787 -10.454   7.273  1.00  0.00     0.017 A 
HETATM    5  C   UNL     1      46.243  -9.784   8.405  1.00  0.00     0.003 A 
HETATM    6  C   UNL     1      45.338  -9.400   9.397  1.00  0.00     0.029 A 
ENDROOT
BRANCH   3   7
HETATM    7  C   UNL     1      43.976 -11.461   5.916  1.00  0.00     0.251 C 
HETATM    8  N   UNL     1      43.006 -12.425   6.091  1.00  0.00    -0.357 N 
HETATM    9  H   UNL     1      42.639 -12.610   7.016  1.00  0.00     0.162 HD
HETATM   10  O   UNL     1      44.481 -11.189   4.833  1.00  0.00    -0.268 OA
BRANCH   8  11
HETATM   11  C   UNL     1      42.387 -13.093   4.960  1.00  0.00     0.127 C 
BRANCH  11  12
HETATM   12  C   UNL     1      41.827 -14.476   5.312  1.00  0.00     0.061 C 
BRANCH  12  13
HETATM   13  C   UNL     1      42.290 -15.681   4.508  1.00  0.00    -0.021 A 
HETATM   14  C   UNL     1      41.617 -15.992   3.304  1.00  0.00     0.074 A 
HETATM   15  C   UNL     1      42.023 -17.091   2.544  1.00  0.00     0.040 A 
HETATM   16  C   UNL     1      43.076 -17.897   2.978  1.00  0.00     0.039 A 
HETATM   17  C   UNL     1      43.732 -17.624   4.176  1.00  0.00     0.068 A 
HETATM   18  C   UNL     1      43.333 -16.524   4.940  1.00  0.00     0.046 A 
BRANCH  14  19
HETATM   19  O   UNL     1      40.585 -15.155   2.963  1.00  0.00    -0.355 OA
HETATM   20  C   UNL     1      40.037 -15.292   1.658  1.00  0.00     0.210 C 
ENDBRANCH  14  19
BRANCH  17  21
HETATM   21  O   UNL     1      44.735 -18.501   4.487  1.00  0.00    -0.356 OA
HETATM   22  C   UNL     1      44.361 -19.852   4.723  1.00  0.00     0.210 C 
ENDBRANCH  17  21
ENDBRANCH  12  13
ENDBRANCH  11  12
ENDBRANCH   8  11
ENDBRANCH   3   7
BRANCH   1  23
HETATM   23  N   UNL     1      43.124  -9.219  10.298  1.00  0.00    -0.322 N 
HETATM   24  C   UNL     1      42.856  -9.826  11.511  1.00  0.00     0.265 C 
HETATM   25  O   UNL     1      43.322 -10.899  11.881  1.00  0.00    -0.267 OA
HETATM   26  H   UNL     1      42.602  -8.367  10.121  1.00  0.00     0.169 HD
BRANCH  24  27
HETATM   27  C   UNL     1      41.876  -9.048  12.380  1.00  0.00     0.097 C 
HETATM   28  C   UNL     1      40.543  -9.080  12.136  1.00  0.00     0.064 C 
HETATM   29  C   UNL     1      39.898  -9.966  11.099  1.00  0.00     0.078 C 
HETATM   30  O   UNL     1      39.582  -8.353  12.822  1.00  0.00    -0.353 OA
HETATM   31  C   UNL     1      40.043  -7.216  13.552  1.00  0.00     0.185 C 
HETATM   32  C   UNL     1      41.095  -7.609  14.566  1.00  0.00     0.106 C 
HETATM   33  S   UNL     1      42.589  -8.108  13.677  1.00  0.00    -0.120 SA
ENDBRANCH  24  27
ENDBRANCH   1  23
TORSDOF 8
ENDMDL
MODEL 5
REMARK VINA RESULT:      -7.8      1.780      1.910
REMARK  8 active torsions:
REMARK  status: ('A' for Active; 'I' for Inactive)
REMARK    1  A    between atoms: C_7  and  C_8 
REMARK       I    between atoms: C_8  and  N_9 
REMARK    2  A    between atoms: N_9  and  C_10 
REMARK    3  A    between atoms: C_12  and  C_13 
REMARK       I    between atoms: C_13  and  N_14 
REMARK    4  A    between atoms: N_14  and  C_15 
REMARK    5  A    between atoms: C_15  and  C_16 
REMARK    6  A    between atoms: C_16  and  C_17 
REMARK    7  A    between atoms: C_18  and  O_19 
REMARK    8  A    between atoms: C_23  and  O_24 
ROOT
HETATM    1  C   UNL     1      43.679  -9.842   7.857  1.00  0.00     0.035 A 
HETATM    2  C   UNL     1      42.978 -10.314   6.745  1.00  0.00     0.046 A 
HETATM    3  C   UNL     1      43.578 -11.231   5.868  1.00  0.00     0.034 A 
HETATM    4  C   UNL     1      44.891 -11.659   6.091  1.00  0.00     0.017 A 
HETATM    5  C   UNL     1      45.590 -11.200   7.204  1.00  0.00     0.003 A 
HETATM    6  C   UNL     1      44.984 -10.301   8.084  1.00  0.00     0.029 A 
ENDROOT
BRANCH   3   7
HETATM    7  C   UNL     1      42.866 -11.733   4.666  1.00  0.00     0.251 C 
HETATM    8  N   UNL     1      43.488 -12.744   3.965  1.00  0.00    -0.357 N 
HETATM    9  H   UNL     1      44.378 -13.105   4.285  1.00  0.00     0.162 HD
HETATM   10  O   UNL     1      41.796 -11.232   4.337  1.00  0.00    -0.268 OA
BRANCH   8  11
HETATM   11  C   UNL     1      42.835 -13.410   2.852  1.00  0.00     0.127 C 
BRANCH  11  12
HETATM   12  C   UNL     1      41.991 -14.614   3.283  1.00  0.00     0.061 C 
BRANCH  12  13
HETATM   13  C   UNL     1      42.680 -15.951   3.506  1.00  0.00    -0.021 A 
HETATM   14  C   UNL     1      43.392 -16.156   4.709  1.00  0.00     0.074 A 
HETATM   15  C   UNL     1      44.032 -17.375   4.942  1.00  0.00     0.040 A 
HETATM   16  C   UNL     1      43.990 -18.385   3.980  1.00  0.00     0.039 A 
HETATM   17  C   UNL     1      43.319 -18.193   2.775  1.00  0.00     0.068 A 
HETATM   18  C   UNL     1      42.674 -16.976   2.539  1.00  0.00     0.046 A 
BRANCH  14  19
HETATM   19  O   UNL     1      43.392 -15.103   5.589  1.00  0.00    -0.355 OA
HETATM   20  C   UNL     1      42.612 -15.239   6.771  1.00  0.00     0.210 C 
ENDBRANCH  14  19
BRANCH  17  21
HETATM   21  O   UNL     1      43.369 -19.259   1.920  1.00  0.00    -0.356 OA
HETATM   22  C   UNL     1      43.630 -20.534   2.494  1.00  0.00     0.210 C 
ENDBRANCH  17  21
ENDBRANCH  12  13
ENDBRANCH  11  12
ENDBRANCH   8  11
ENDBRANCH   3   7
BRANCH   1  23
HETATM   23  N   UNL     1      43.158  -8.913   8.779  1.00  0.00    -0.322 N 
HETATM   24  C   UNL     1      43.647  -7.661   9.103  1.00  0.00     0.265 C 
HETATM   25  O   UNL     1      44.659  -7.155   8.628  1.00  0.00    -0.267 OA
HETATM   26  H   UNL     1      42.348  -9.209   9.315  1.00  0.00     0.169 HD
BRANCH  24  27
HETATM   27  C   UNL     1      42.822  -6.936  10.158  1.00  0.00     0.097 C 
HETATM   28  C   UNL     1      42.770  -7.385  11.437  1.00  0.00     0.064 C 
HETATM   29  C   UNL     1      43.601  -8.528  11.964  1.00  0.00     0.078 C 
HETATM   30  O   UNL     1      41.993  -6.839  12.448  1.00  0.00    -0.353 OA
HETATM   31  C   UNL     1      40.895  -6.022  12.041  1.00  0.00     0.185 C 
HETATM   32  C   UNL     1      41.365  -4.867  11.184  1.00  0.00     0.106 C 
HETATM   33  S   UNL     1      41.944  -5.525   9.602  1.00  0.00    -0.120 SA
ENDBRANCH  24  27
ENDBRANCH   1  23
TORSDOF 8
ENDMDL
MODEL 6
REMARK VINA RESULT:      -7.7      1.740      2.755
REMARK  8 active torsions:
REMARK  status: ('A' for Active; 'I' for Inactive)
REMARK    1  A    between atoms: C_7  and  C_8 
REMARK       I    between atoms: C_8  and  N_9 
REMARK    2  A    between atoms: N_9  and  C_10 
REMARK    3  A    between atoms: C_12  and  C_13 
REMARK       I    between atoms: C_13  and  N_14 
REMARK    4  A    between atoms: N_14  and  C_15 
REMARK    5  A    between atoms: C_15  and  C_16 
REMARK    6  A    between atoms: C_16  and  C_17 
REMARK    7  A    between atoms: C_18  and  O_19 
REMARK    8  A    between atoms: C_23  and  O_24 
ROOT
HETATM    1  C   UNL     1      43.799 -10.379   8.703  1.00  0.00     0.035 A 
HETATM    2  C   UNL     1      43.128 -10.562   7.491  1.00  0.00     0.046 A 
HETATM    3  C   UNL     1      43.842 -10.906   6.333  1.00  0.00     0.034 A 
HETATM    4  C   UNL     1      45.233 -11.046   6.382  1.00  0.00     0.017 A 
HETATM    5  C   UNL     1      45.905 -10.874   7.590  1.00  0.00     0.003 A 
HETATM    6  C   UNL     1      45.189 -10.548   8.744  1.00  0.00     0.029 A 
ENDROOT
BRANCH   3   7
HETATM    7  C   UNL     1      43.159 -11.087   5.027  1.00  0.00     0.251 C 
HETATM    8  N   UNL     1      43.723 -12.002   4.165  1.00  0.00    -0.357 N 
HETATM    9  H   UNL     1      44.554 -12.511   4.442  1.00  0.00     0.162 HD
HETATM   10  O   UNL     1      42.165 -10.421   4.761  1.00  0.00    -0.268 OA
BRANCH   8  11
HETATM   11  C   UNL     1      43.079 -12.366   2.915  1.00  0.00     0.127 C 
BRANCH  11  12
HETATM   12  C   UNL     1      42.020 -13.461   3.081  1.00  0.00     0.061 C 
BRANCH  12  13
HETATM   13  C   UNL     1      42.473 -14.910   3.186  1.00  0.00    -0.021 A 
HETATM   14  C   UNL     1      42.118 -15.808   2.154  1.00  0.00     0.074 A 
HETATM   15  C   UNL     1      42.523 -17.142   2.223  1.00  0.00     0.040 A 
HETATM   16  C   UNL     1      43.258 -17.599   3.317  1.00  0.00     0.039 A 
HETATM   17  C   UNL     1      43.591 -16.737   4.359  1.00  0.00     0.068 A 
HETATM   18  C   UNL     1      43.192 -15.400   4.294  1.00  0.00     0.046 A 
BRANCH  14  19
HETATM   19  O   UNL     1      41.383 -15.275   1.125  1.00  0.00    -0.355 OA
HETATM   20  C   UNL     1      40.007 -15.628   1.054  1.00  0.00     0.210 C 
ENDBRANCH  14  19
BRANCH  17  21
HETATM   21  O   UNL     1      44.301 -17.319   5.373  1.00  0.00    -0.356 OA
HETATM   22  C   UNL     1      44.624 -16.499   6.489  1.00  0.00     0.210 C 
ENDBRANCH  17  21
ENDBRANCH  12  13
ENDBRANCH  11  12
ENDBRANCH   8  11
ENDBRANCH   3   7
BRANCH   1  23
HETATM   23  N   UNL     1      43.161 -10.020   9.907  1.00  0.00    -0.322 N 
HETATM   24  C   UNL     1      42.506  -8.841  10.211  1.00  0.00     0.265 C 
HETATM   25  O   UNL     1      42.386  -7.885   9.452  1.00  0.00    -0.267 OA
HETATM   26  H   UNL     1      43.228 -10.683  10.673  1.00  0.00     0.169 HD
BRANCH  24  27
HETATM   27  C   UNL     1      41.943  -8.802  11.626  1.00  0.00     0.097 C 
HETATM   28  C   UNL     1      40.663  -9.169  11.882  1.00  0.00     0.064 C 
HETATM   29  C   UNL     1      39.735  -9.763  10.852  1.00  0.00     0.078 C 
HETATM   30  O   UNL     1      40.039  -9.099  13.119  1.00  0.00    -0.353 OA
HETATM   31  C   UNL     1      40.632  -8.231  14.085  1.00  0.00     0.185 C 
HETATM   32  C   UNL     1      42.073  -8.610  14.347  1.00  0.00     0.106 C 
HETATM   33  S   UNL     1      43.043  -8.235  12.868  1.00  0.00    -0.120 SA
ENDBRANCH  24  27
ENDBRANCH   1  23
TORSDOF 8
ENDMDL
MODEL 7
REMARK VINA RESULT:      -7.5      2.814     10.526
REMARK  8 active torsions:
REMARK  status: ('A' for Active; 'I' for Inactive)
REMARK    1  A    between atoms: C_7  and  C_8 
REMARK       I    between atoms: C_8  and  N_9 
REMARK    2  A    between atoms: N_9  and  C_10 
REMARK    3  A    between atoms: C_12  and  C_13 
REMARK       I    between atoms: C_13  and  N_14 
REMARK    4  A    between atoms: N_14  and  C_15 
REMARK    5  A    between atoms: C_15  and  C_16 
REMARK    6  A    between atoms: C_16  and  C_17 
REMARK    7  A    between atoms: C_18  and  O_19 
REMARK    8  A    between atoms: C_23  and  O_24 
ROOT
HETATM    1  C   UNL     1      43.090 -13.010   5.637  1.00  0.00     0.035 A 
HETATM    2  C   UNL     1      43.794 -12.561   6.757  1.00  0.00     0.046 A 
HETATM    3  C   UNL     1      43.623 -11.246   7.219  1.00  0.00     0.034 A 
HETATM    4  C   UNL     1      42.764 -10.372   6.544  1.00  0.00     0.017 A 
HETATM    5  C   UNL     1      42.053 -10.818   5.433  1.00  0.00     0.003 A 
HETATM    6  C   UNL     1      42.212 -12.132   4.987  1.00  0.00     0.029 A 
ENDROOT
BRANCH   3   7
HETATM    7  C   UNL     1      44.372 -10.734   8.394  1.00  0.00     0.251 C 
HETATM    8  N   UNL     1      43.694  -9.862   9.218  1.00  0.00    -0.357 N 
HETATM    9  H   UNL     1      42.736  -9.611   9.007  1.00  0.00     0.162 HD
HETATM   10  O   UNL     1      45.536 -11.076   8.571  1.00  0.00    -0.268 OA
BRANCH   8  11
HETATM   11  C   UNL     1      44.268  -9.395  10.467  1.00  0.00     0.127 C 
BRANCH  11  12
HETATM   12  C   UNL     1      43.490  -9.868  11.700  1.00  0.00     0.061 C 
BRANCH  12  13
HETATM   13  C   UNL     1      42.548  -8.894  12.391  1.00  0.00    -0.021 A 
HETATM   14  C   UNL     1      41.227  -8.770  11.906  1.00  0.00     0.074 A 
HETATM   15  C   UNL     1      40.339  -7.885  12.523  1.00  0.00     0.040 A 
HETATM   16  C   UNL     1      40.758  -7.108  13.603  1.00  0.00     0.039 A 
HETATM   17  C   UNL     1      42.065  -7.195  14.077  1.00  0.00     0.068 A 
HETATM   18  C   UNL     1      42.956  -8.079  13.466  1.00  0.00     0.046 A 
BRANCH  14  19
HETATM   19  O   UNL     1      40.907  -9.561  10.832  1.00  0.00    -0.355 OA
HETATM   20  C   UNL     1      39.532  -9.862  10.628  1.00  0.00     0.210 C 
ENDBRANCH  14  19
BRANCH  17  21
HETATM   21  O   UNL     1      42.343  -6.368  15.130  1.00  0.00    -0.356 OA
HETATM   22  C   UNL     1      42.035  -6.853  16.431  1.00  0.00     0.210 C 
ENDBRANCH  17  21
ENDBRANCH  12  13
ENDBRANCH  11  12
ENDBRANCH   8  11
ENDBRANCH   3   7
BRANCH   1  23
HETATM   23  N   UNL     1      43.212 -14.307   5.101  1.00  0.00    -0.322 N 
HETATM   24  C   UNL     1      42.286 -15.333   5.122  1.00  0.00     0.265 C 
HETATM   25  O   UNL     1      41.177 -15.272   5.642  1.00  0.00    -0.267 OA
HETATM   26  H   UNL     1      44.108 -14.547   4.689  1.00  0.00     0.169 HD
BRANCH  24  27
HETATM   27  C   UNL     1      42.772 -16.610   4.447  1.00  0.00     0.097 C 
HETATM   28  C   UNL     1      43.344 -17.607   5.166  1.00  0.00     0.064 C 
HETATM   29  C   UNL     1      43.433 -17.617   6.671  1.00  0.00     0.078 C 
HETATM   30  O   UNL     1      43.882 -18.772   4.637  1.00  0.00    -0.353 OA
HETATM   31  C   UNL     1      44.214 -18.749   3.249  1.00  0.00     0.185 C 
HETATM   32  C   UNL     1      43.006 -18.407   2.405  1.00  0.00     0.106 C 
HETATM   33  S   UNL     1      42.564 -16.680   2.708  1.00  0.00    -0.120 SA
ENDBRANCH  24  27
ENDBRANCH   1  23
TORSDOF 8
ENDMDL
MODEL 8
REMARK VINA RESULT:      -7.5      3.002      9.522
REMARK  8 active torsions:
REMARK  status: ('A' for Active; 'I' for Inactive)
REMARK    1  A    between atoms: C_7  and  C_8 
REMARK       I    between atoms: C_8  and  N_9 
REMARK    2  A    between atoms: N_9  and  C_10 
REMARK    3  A    between atoms: C_12  and  C_13 
REMARK       I    between atoms: C_13  and  N_14 
REMARK    4  A    between atoms: N_14  and  C_15 
REMARK    5  A    between atoms: C_15  and  C_16 
REMARK    6  A    between atoms: C_16  and  C_17 
REMARK    7  A    between atoms: C_18  and  O_19 
REMARK    8  A    between atoms: C_23  and  O_24 
ROOT
HETATM    1  C   UNL     1      41.184 -13.213   4.379  1.00  0.00     0.035 A 
HETATM    2  C   UNL     1      40.608 -12.714   5.550  1.00  0.00     0.046 A 
HETATM    3  C   UNL     1      39.912 -11.495   5.531  1.00  0.00     0.034 A 
HETATM    4  C   UNL     1      39.812 -10.763   4.344  1.00  0.00     0.017 A 
HETATM    5  C   UNL     1      40.375 -11.261   3.172  1.00  0.00     0.003 A 
HETATM    6  C   UNL     1      41.052 -12.482   3.191  1.00  0.00     0.029 A 
ENDROOT
BRANCH   3   7
HETATM    7  C   UNL     1      39.307 -10.929   6.764  1.00  0.00     0.251 C 
HETATM    8  N   UNL     1      40.153 -10.217   7.587  1.00  0.00    -0.357 N 
HETATM    9  H   UNL     1      41.125 -10.100   7.332  1.00  0.00     0.162 HD
HETATM   10  O   UNL     1      38.123 -11.129   7.009  1.00  0.00    -0.268 OA
BRANCH   8  11
HETATM   11  C   UNL     1      39.657  -9.504   8.751  1.00  0.00     0.127 C 
BRANCH  11  12
HETATM   12  C   UNL     1      40.735  -8.664   9.445  1.00  0.00     0.061 C 
BRANCH  12  13
HETATM   13  C   UNL     1      41.870  -9.377  10.164  1.00  0.00    -0.021 A 
HETATM   14  C   UNL     1      41.733  -9.653  11.543  1.00  0.00     0.074 A 
HETATM   15  C   UNL     1      42.758 -10.309  12.228  1.00  0.00     0.040 A 
HETATM   16  C   UNL     1      43.928 -10.673  11.561  1.00  0.00     0.039 A 
HETATM   17  C   UNL     1      44.095 -10.383  10.209  1.00  0.00     0.068 A 
HETATM   18  C   UNL     1      43.072  -9.731   9.518  1.00  0.00     0.046 A 
BRANCH  14  19
HETATM   19  O   UNL     1      40.556  -9.245  12.119  1.00  0.00    -0.355 OA
HETATM   20  C   UNL     1      40.645  -8.485  13.318  1.00  0.00     0.210 C 
ENDBRANCH  14  19
BRANCH  17  21
HETATM   21  O   UNL     1      45.294 -10.785   9.686  1.00  0.00    -0.356 OA
HETATM   22  C   UNL     1      45.558 -10.434   8.334  1.00  0.00     0.210 C 
ENDBRANCH  17  21
ENDBRANCH  12  13
ENDBRANCH  11  12
ENDBRANCH   8  11
ENDBRANCH   3   7
BRANCH   1  23
HETATM   23  N   UNL     1      41.909 -14.419   4.313  1.00  0.00    -0.322 N 
HETATM   24  C   UNL     1      41.451 -15.675   3.962  1.00  0.00     0.265 C 
HETATM   25  O   UNL     1      40.294 -15.944   3.654  1.00  0.00    -0.267 OA
HETATM   26  H   UNL     1      42.880 -14.383   4.607  1.00  0.00     0.169 HD
BRANCH  24  27
HETATM   27  C   UNL     1      42.526 -16.754   4.013  1.00  0.00     0.097 C 
HETATM   28  C   UNL     1      43.217 -17.108   2.902  1.00  0.00     0.064 C 
HETATM   29  C   UNL     1      43.096 -16.403   1.574  1.00  0.00     0.078 C 
HETATM   30  O   UNL     1      44.159 -18.124   2.831  1.00  0.00    -0.353 OA
HETATM   31  C   UNL     1      44.115 -19.108   3.865  1.00  0.00     0.185 C 
HETATM   32  C   UNL     1      44.265 -18.472   5.229  1.00  0.00     0.106 C 
HETATM   33  S   UNL     1      42.778 -17.504   5.577  1.00  0.00    -0.120 SA
ENDBRANCH  24  27
ENDBRANCH   1  23
TORSDOF 8
ENDMDL
MODEL 9
REMARK VINA RESULT:      -7.4      2.853      3.847
REMARK  8 active torsions:
REMARK  status: ('A' for Active; 'I' for Inactive)
REMARK    1  A    between atoms: C_7  and  C_8 
REMARK       I    between atoms: C_8  and  N_9 
REMARK    2  A    between atoms: N_9  and  C_10 
REMARK    3  A    between atoms: C_12  and  C_13 
REMARK       I    between atoms: C_13  and  N_14 
REMARK    4  A    between atoms: N_14  and  C_15 
REMARK    5  A    between atoms: C_15  and  C_16 
REMARK    6  A    between atoms: C_16  and  C_17 
REMARK    7  A    between atoms: C_18  and  O_19 
REMARK    8  A    between atoms: C_23  and  O_24 
ROOT
HETATM    1  C   UNL     1      44.059  -9.687   9.469  1.00  0.00     0.035 A 
HETATM    2  C   UNL     1      43.596 -10.726   8.657  1.00  0.00     0.046 A 
HETATM    3  C   UNL     1      44.398 -11.218   7.615  1.00  0.00     0.034 A 
HETATM    4  C   UNL     1      45.654 -10.655   7.370  1.00  0.00     0.017 A 
HETATM    5  C   UNL     1      46.123  -9.626   8.182  1.00  0.00     0.003 A 
HETATM    6  C   UNL     1      45.331  -9.150   9.229  1.00  0.00     0.029 A 
ENDROOT
BRANCH   3   7
HETATM    7  C   UNL     1      43.926 -12.307   6.723  1.00  0.00     0.251 C 
HETATM    8  N   UNL     1      43.389 -13.415   7.344  1.00  0.00    -0.357 N 
HETATM    9  H   UNL     1      43.329 -13.447   8.354  1.00  0.00     0.162 HD
HETATM   10  O   UNL     1      44.048 -12.197   5.509  1.00  0.00    -0.268 OA
BRANCH   8  11
HETATM   11  C   UNL     1      42.772 -14.488   6.583  1.00  0.00     0.127 C 
BRANCH  11  12
HETATM   12  C   UNL     1      41.268 -14.287   6.372  1.00  0.00     0.061 C 
BRANCH  12  13
HETATM   13  C   UNL     1      40.787 -13.669   5.068  1.00  0.00    -0.021 A 
HETATM   14  C   UNL     1      40.334 -12.331   5.078  1.00  0.00     0.074 A 
HETATM   15  C   UNL     1      39.890 -11.736   3.895  1.00  0.00     0.040 A 
HETATM   16  C   UNL     1      39.870 -12.466   2.706  1.00  0.00     0.039 A 
HETATM   17  C   UNL     1      40.284 -13.796   2.681  1.00  0.00     0.068 A 
HETATM   18  C   UNL     1      40.732 -14.394   3.861  1.00  0.00     0.046 A 
BRANCH  14  19
HETATM   19  O   UNL     1      40.375 -11.696   6.294  1.00  0.00    -0.355 OA
HETATM   20  C   UNL     1      39.188 -11.048   6.734  1.00  0.00     0.210 C 
ENDBRANCH  14  19
BRANCH  17  21
HETATM   21  O   UNL     1      40.199 -14.394   1.454  1.00  0.00    -0.356 OA
HETATM   22  C   UNL     1      39.925 -15.789   1.433  1.00  0.00     0.210 C 
ENDBRANCH  17  21
ENDBRANCH  12  13
ENDBRANCH  11  12
ENDBRANCH   8  11
ENDBRANCH   3   7
BRANCH   1  23
HETATM   23  N   UNL     1      43.315  -9.125  10.525  1.00  0.00    -0.322 N 
HETATM   24  C   UNL     1      43.014  -9.686  11.753  1.00  0.00     0.265 C 
HETATM   25  O   UNL     1      43.351 -10.808  12.118  1.00  0.00    -0.267 OA
HETATM   26  H   UNL     1      42.900  -8.215  10.357  1.00  0.00     0.169 HD
BRANCH  24  27
HETATM   27  C   UNL     1      42.173  -8.784  12.647  1.00  0.00     0.097 C 
HETATM   28  C   UNL     1      40.820  -8.869  12.654  1.00  0.00     0.064 C 
HETATM   29  C   UNL     1      40.037  -9.919  11.906  1.00  0.00     0.078 C 
HETATM   30  O   UNL     1      39.967  -8.046  13.375  1.00  0.00    -0.353 OA
HETATM   31  C   UNL     1      40.504  -6.800  13.818  1.00  0.00     0.185 C 
HETATM   32  C   UNL     1      41.732  -7.011  14.677  1.00  0.00     0.106 C 
HETATM   33  S   UNL     1      43.065  -7.637  13.627  1.00  0.00    -0.120 SA
ENDBRANCH  24  27
ENDBRANCH   1  23
TORSDOF 8
ENDMDL
MODEL 10
REMARK VINA RESULT:      -7.4      3.417     10.324
REMARK  8 active torsions:
REMARK  status: ('A' for Active; 'I' for Inactive)
REMARK    1  A    between atoms: C_7  and  C_8 
REMARK       I    between atoms: C_8  and  N_9 
REMARK    2  A    between atoms: N_9  and  C_10 
REMARK    3  A    between atoms: C_12  and  C_13 
REMARK       I    between atoms: C_13  and  N_14 
REMARK    4  A    between atoms: N_14  and  C_15 
REMARK    5  A    between atoms: C_15  and  C_16 
REMARK    6  A    between atoms: C_16  and  C_17 
REMARK    7  A    between atoms: C_18  and  O_19 
REMARK    8  A    between atoms: C_23  and  O_24 
ROOT
HETATM    1  C   UNL     1      42.596 -13.859   4.353  1.00  0.00     0.035 A 
HETATM    2  C   UNL     1      43.265 -12.826   5.015  1.00  0.00     0.046 A 
HETATM    3  C   UNL     1      43.859 -13.057   6.266  1.00  0.00     0.034 A 
HETATM    4  C   UNL     1      43.763 -14.316   6.866  1.00  0.00     0.017 A 
HETATM    5  C   UNL     1      43.106 -15.351   6.206  1.00  0.00     0.003 A 
HETATM    6  C   UNL     1      42.532 -15.124   4.954  1.00  0.00     0.029 A 
ENDROOT
BRANCH   3   7
HETATM    7  C   UNL     1      44.558 -11.974   7.003  1.00  0.00     0.251 C 
HETATM    8  N   UNL     1      43.927 -11.497   8.131  1.00  0.00    -0.357 N 
HETATM    9  H   UNL     1      43.039 -11.891   8.417  1.00  0.00     0.162 HD
HETATM   10  O   UNL     1      45.625 -11.541   6.582  1.00  0.00    -0.268 OA
BRANCH   8  11
HETATM   11  C   UNL     1      44.566 -10.534   9.011  1.00  0.00     0.127 C 
BRANCH  11  12
HETATM   12  C   UNL     1      44.211  -9.082   8.672  1.00  0.00     0.061 C 
BRANCH  12  13
HETATM   13  C   UNL     1      43.569  -8.215   9.744  1.00  0.00    -0.021 A 
HETATM   14  C   UNL     1      42.985  -6.986   9.362  1.00  0.00     0.074 A 
HETATM   15  C   UNL     1      42.386  -6.171  10.325  1.00  0.00     0.040 A 
HETATM   16  C   UNL     1      42.380  -6.555  11.666  1.00  0.00     0.039 A 
HETATM   17  C   UNL     1      42.976  -7.748  12.067  1.00  0.00     0.068 A 
HETATM   18  C   UNL     1      43.574  -8.569  11.108  1.00  0.00     0.046 A 
BRANCH  14  19
HETATM   19  O   UNL     1      43.051  -6.683   8.026  1.00  0.00    -0.355 OA
HETATM   20  C   UNL     1      41.861  -6.215   7.403  1.00  0.00     0.210 C 
ENDBRANCH  14  19
BRANCH  17  21
HETATM   21  O   UNL     1      42.909  -7.994  13.411  1.00  0.00    -0.356 OA
HETATM   22  C   UNL     1      42.155  -9.127  13.823  1.00  0.00     0.210 C 
ENDBRANCH  17  21
ENDBRANCH  12  13
ENDBRANCH  11  12
ENDBRANCH   8  11
ENDBRANCH   3   7
BRANCH   1  23
HETATM   23  N   UNL     1      41.963 -13.710   3.104  1.00  0.00    -0.322 N 
HETATM   24  C   UNL     1      40.634 -13.428   2.846  1.00  0.00     0.265 C 
HETATM   25  O   UNL     1      39.768 -13.271   3.699  1.00  0.00    -0.267 OA
HETATM   26  H   UNL     1      42.533 -13.879   2.281  1.00  0.00     0.169 HD
BRANCH  24  27
HETATM   27  C   UNL     1      40.303 -13.351   1.360  1.00  0.00     0.097 C 
HETATM   28  C   UNL     1      40.053 -14.472   0.639  1.00  0.00     0.064 C 
HETATM   29  C   UNL     1      39.944 -15.852   1.237  1.00  0.00     0.078 C 
HETATM   30  O   UNL     1      39.814 -14.511  -0.727  1.00  0.00    -0.353 OA
HETATM   31  C   UNL     1      40.245 -13.380  -1.483  1.00  0.00     0.185 C 
HETATM   32  C   UNL     1      39.610 -12.107  -0.970  1.00  0.00     0.106 C 
HETATM   33  S   UNL     1      40.296 -11.743   0.664  1.00  0.00    -0.120 SA
ENDBRANCH  24  27
ENDBRANCH   1  23
TORSDOF 8
ENDMDL
