MODEL 1
REMARK VINA RESULT:      -9.0      0.000      0.000
REMARK  5 active torsions:
REMARK  status: ('A' for Active; 'I' for Inactive)
REMARK    1  A    between atoms: C_3  and  N_4 
REMARK    2  A    between atoms: N_5  and  C_6 
REMARK    3  A    between atoms: C_6  and  C_7 
REMARK    4  A    between atoms: C_7  and  C_8 
REMARK    5  A    between atoms: C_19  and  C_20 
ROOT
HETATM    1  C   UNL     1      41.433 -16.255   6.622  1.00  0.00     0.175 C 
HETATM    2  N   UNL     1      41.794 -15.340   5.549  1.00  0.00    -0.186 N 
HETATM    3  C   UNL     1      41.502 -14.043   5.545  1.00  0.00     0.680 C 
HETATM    4  N   UNL     1      42.223 -13.442   4.607  1.00  0.00    -0.184 N 
HETATM    5  C   UNL     1      42.877 -14.422   3.874  1.00  0.00     0.140 C 
HETATM    6  C   UNL     1      42.559 -15.653   4.412  1.00  0.00     0.077 C 
ENDROOT
BRANCH   4   7
HETATM    7  C   UNL     1      42.395 -11.987   4.395  1.00  0.00     0.231 C 
BRANCH   7   8
HETATM    8  C   UNL     1      43.820 -11.491   4.618  1.00  0.00     0.178 C 
HETATM    9  O   UNL     1      44.606 -11.313   3.685  1.00  0.00    -0.290 OA
BRANCH   8  10
HETATM   10  C   UNL     1      44.256 -11.148   5.998  1.00  0.00     0.014 A 
HETATM   11  C   UNL     1      43.343 -10.739   6.979  1.00  0.00     0.055 A 
HETATM   12  C   UNL     1      43.850 -10.405   8.218  1.00  0.00     0.106 A 
HETATM   13  C   UNL     1      45.194 -10.469   8.503  1.00  0.00     0.105 A 
HETATM   14  O   UNL     1      43.118  -9.973   9.279  1.00  0.00    -0.323 OA
HETATM   15  O   UNL     1      45.474 -10.090   9.776  1.00  0.00    -0.323 OA
HETATM   16  C   UNL     1      46.115 -10.868   7.560  1.00  0.00     0.040 A 
HETATM   17  C   UNL     1      44.158  -9.748  10.259  1.00  0.00     0.352 A 
HETATM   18  C   UNL     1      45.638 -11.205   6.290  1.00  0.00     0.018 A 
ENDBRANCH   8  10
ENDBRANCH   7   8
ENDBRANCH   4   7
BRANCH   3  19
HETATM   19  N   UNL     1      40.635 -13.465   6.370  1.00  0.00    -0.234 N 
HETATM   20  H   UNL     1      39.675 -13.762   6.434  1.00  0.00     0.174 HD
HETATM   21  H   UNL     1      40.841 -12.521   6.697  1.00  0.00     0.174 HD
ENDBRANCH   3  19
BRANCH   6  22
HETATM   22  C   UNL     1      42.986 -16.989   3.867  1.00  0.00    -0.007 A 
HETATM   23  C   UNL     1      43.934 -17.760   4.558  1.00  0.00     0.017 A 
HETATM   24  C   UNL     1      44.333 -19.000   4.050  1.00  0.00     0.043 A 
HETATM   25  C   UNL     1      43.802 -19.457   2.851  1.00  0.00     0.116 A 
HETATM   26  F   UNL     1      44.190 -20.642   2.365  1.00  0.00    -0.206 F 
HETATM   27  C   UNL     1      42.880 -18.696   2.147  1.00  0.00     0.043 A 
HETATM   28  C   UNL     1      42.472 -17.459   2.652  1.00  0.00     0.017 A 
ENDBRANCH   6  22
TORSDOF 5
ENDMDL
MODEL 2
REMARK VINA RESULT:      -8.4      4.225      6.871
REMARK  5 active torsions:
REMARK  status: ('A' for Active; 'I' for Inactive)
REMARK    1  A    between atoms: C_3  and  N_4 
REMARK    2  A    between atoms: N_5  and  C_6 
REMARK    3  A    between atoms: C_6  and  C_7 
REMARK    4  A    between atoms: C_7  and  C_8 
REMARK    5  A    between atoms: C_19  and  C_20 
ROOT
HETATM    1  C   UNL     1      40.946 -16.086   5.458  1.00  0.00     0.175 C 
HETATM    2  N   UNL     1      41.523 -15.488   4.263  1.00  0.00    -0.186 N 
HETATM    3  C   UNL     1      41.268 -14.250   3.851  1.00  0.00     0.680 C 
HETATM    4  N   UNL     1      42.167 -13.906   2.935  1.00  0.00    -0.184 N 
HETATM    5  C   UNL     1      42.922 -15.030   2.633  1.00  0.00     0.140 C 
HETATM    6  C   UNL     1      42.480 -16.077   3.417  1.00  0.00     0.077 C 
ENDROOT
BRANCH   4   7
HETATM    7  C   UNL     1      42.410 -12.560   2.371  1.00  0.00     0.231 C 
BRANCH   7   8
HETATM    8  C   UNL     1      41.178 -11.920   1.739  1.00  0.00     0.178 C 
HETATM    9  O   UNL     1      40.553 -11.013   2.293  1.00  0.00    -0.290 OA
BRANCH   8  10
HETATM   10  C   UNL     1      40.755 -12.358   0.382  1.00  0.00     0.014 A 
HETATM   11  C   UNL     1      40.026 -13.537   0.181  1.00  0.00     0.055 A 
HETATM   12  C   UNL     1      39.714 -13.878  -1.119  1.00  0.00     0.106 A 
HETATM   13  C   UNL     1      40.090 -13.102  -2.191  1.00  0.00     0.105 A 
HETATM   14  O   UNL     1      39.031 -14.990  -1.500  1.00  0.00    -0.323 OA
HETATM   15  O   UNL     1      39.687 -13.626  -3.377  1.00  0.00    -0.323 OA
HETATM   16  C   UNL     1      40.806 -11.937  -2.026  1.00  0.00     0.040 A 
HETATM   17  C   UNL     1      39.041 -14.839  -2.939  1.00  0.00     0.352 A 
HETATM   18  C   UNL     1      41.147 -11.566  -0.722  1.00  0.00     0.018 A 
ENDBRANCH   8  10
ENDBRANCH   7   8
ENDBRANCH   4   7
BRANCH   3  19
HETATM   19  N   UNL     1      40.276 -13.494   4.310  1.00  0.00    -0.234 N 
HETATM   20  H   UNL     1      39.319 -13.640   4.034  1.00  0.00     0.174 HD
HETATM   21  H   UNL     1      40.508 -12.571   4.677  1.00  0.00     0.174 HD
ENDBRANCH   3  19
BRANCH   6  22
HETATM   22  C   UNL     1      42.970 -17.497   3.348  1.00  0.00    -0.007 A 
HETATM   23  C   UNL     1      43.737 -18.030   4.396  1.00  0.00     0.017 A 
HETATM   24  C   UNL     1      44.195 -19.349   4.329  1.00  0.00     0.043 A 
HETATM   25  C   UNL     1      43.903 -20.125   3.215  1.00  0.00     0.116 A 
HETATM   26  F   UNL     1      44.346 -21.386   3.152  1.00  0.00    -0.206 F 
HETATM   27  C   UNL     1      43.163 -19.605   2.162  1.00  0.00     0.043 A 
HETATM   28  C   UNL     1      42.697 -18.289   2.225  1.00  0.00     0.017 A 
ENDBRANCH   6  22
TORSDOF 5
ENDMDL
MODEL 3
REMARK VINA RESULT:      -8.2      1.680      2.061
REMARK  5 active torsions:
REMARK  status: ('A' for Active; 'I' for Inactive)
REMARK    1  A    between atoms: C_3  and  N_4 
REMARK    2  A    between atoms: N_5  and  C_6 
REMARK    3  A    between atoms: C_6  and  C_7 
REMARK    4  A    between atoms: C_7  and  C_8 
REMARK    5  A    between atoms: C_19  and  C_20 
ROOT
HETATM    1  C   UNL     1      40.048 -15.657   2.627  1.00  0.00     0.175 C 
HETATM    2  N   UNL     1      41.295 -14.908   2.682  1.00  0.00    -0.186 N 
HETATM    3  C   UNL     1      41.384 -13.594   2.497  1.00  0.00     0.680 C 
HETATM    4  N   UNL     1      42.574 -13.180   2.914  1.00  0.00    -0.184 N 
HETATM    5  C   UNL     1      43.334 -14.299   3.223  1.00  0.00     0.140 C 
HETATM    6  C   UNL     1      42.561 -15.423   3.011  1.00  0.00     0.077 C 
ENDROOT
BRANCH   4   7
HETATM    7  C   UNL     1      43.025 -11.784   3.110  1.00  0.00     0.231 C 
BRANCH   7   8
HETATM    8  C   UNL     1      42.452 -11.114   4.354  1.00  0.00     0.178 C 
HETATM    9  O   UNL     1      41.308 -10.654   4.383  1.00  0.00    -0.290 OA
BRANCH   8  10
HETATM   10  C   UNL     1      43.274 -11.072   5.593  1.00  0.00     0.014 A 
HETATM   11  C   UNL     1      42.773 -10.553   6.793  1.00  0.00     0.055 A 
HETATM   12  C   UNL     1      43.626 -10.521   7.877  1.00  0.00     0.106 A 
HETATM   13  C   UNL     1      44.920 -10.980   7.806  1.00  0.00     0.105 A 
HETATM   14  O   UNL     1      43.317 -10.038   9.110  1.00  0.00    -0.323 OA
HETATM   15  O   UNL     1      45.584 -10.848   8.983  1.00  0.00    -0.323 OA
HETATM   16  C   UNL     1      45.442 -11.497   6.640  1.00  0.00     0.040 A 
HETATM   17  C   UNL     1      44.573 -10.223   9.802  1.00  0.00     0.352 A 
HETATM   18  C   UNL     1      44.608 -11.536   5.519  1.00  0.00     0.018 A 
ENDBRANCH   8  10
ENDBRANCH   7   8
ENDBRANCH   4   7
BRANCH   3  19
HETATM   19  N   UNL     1      40.415 -12.840   1.989  1.00  0.00    -0.234 N 
HETATM   20  H   UNL     1      40.606 -11.989   1.485  1.00  0.00     0.174 HD
HETATM   21  H   UNL     1      39.478 -12.934   2.381  1.00  0.00     0.174 HD
ENDBRANCH   3  19
BRANCH   6  22
HETATM   22  C   UNL     1      43.024 -16.847   3.143  1.00  0.00    -0.007 A 
HETATM   23  C   UNL     1      42.816 -17.755   2.092  1.00  0.00     0.017 A 
HETATM   24  C   UNL     1      43.243 -19.081   2.216  1.00  0.00     0.043 A 
HETATM   25  C   UNL     1      43.859 -19.500   3.388  1.00  0.00     0.116 A 
HETATM   26  F   UNL     1      44.263 -20.771   3.505  1.00  0.00    -0.206 F 
HETATM   27  C   UNL     1      44.053 -18.619   4.442  1.00  0.00     0.043 A 
HETATM   28  C   UNL     1      43.634 -17.292   4.323  1.00  0.00     0.017 A 
ENDBRANCH   6  22
TORSDOF 5
ENDMDL
MODEL 4
REMARK VINA RESULT:      -8.2      3.903      8.047
REMARK  5 active torsions:
REMARK  status: ('A' for Active; 'I' for Inactive)
REMARK    1  A    between atoms: C_3  and  N_4 
REMARK    2  A    between atoms: N_5  and  C_6 
REMARK    3  A    between atoms: C_6  and  C_7 
REMARK    4  A    between atoms: C_7  and  C_8 
REMARK    5  A    between atoms: C_19  and  C_20 
ROOT
HETATM    1  C   UNL     1      41.806 -10.109   4.126  1.00  0.00     0.175 C 
HETATM    2  N   UNL     1      41.969 -11.501   4.519  1.00  0.00    -0.186 N 
HETATM    3  C   UNL     1      41.288 -12.510   3.986  1.00  0.00     0.680 C 
HETATM    4  N   UNL     1      41.876 -13.652   4.322  1.00  0.00    -0.184 N 
HETATM    5  C   UNL     1      42.874 -13.366   5.243  1.00  0.00     0.140 C 
HETATM    6  C   UNL     1      42.904 -12.000   5.442  1.00  0.00     0.077 C 
ENDROOT
BRANCH   4   7
HETATM    7  C   UNL     1      41.604 -15.001   3.777  1.00  0.00     0.231 C 
BRANCH   7   8
HETATM    8  C   UNL     1      42.780 -15.615   3.024  1.00  0.00     0.178 C 
HETATM    9  O   UNL     1      43.502 -14.948   2.279  1.00  0.00    -0.290 OA
BRANCH   8  10
HETATM   10  C   UNL     1      43.107 -17.049   3.244  1.00  0.00     0.014 A 
HETATM   11  C   UNL     1      43.418 -17.548   4.515  1.00  0.00     0.055 A 
HETATM   12  C   UNL     1      43.745 -18.885   4.610  1.00  0.00     0.106 A 
HETATM   13  C   UNL     1      43.767 -19.715   3.514  1.00  0.00     0.105 A 
HETATM   14  O   UNL     1      44.089 -19.533   5.755  1.00  0.00    -0.323 OA
HETATM   15  O   UNL     1      44.122 -20.986   3.832  1.00  0.00    -0.323 OA
HETATM   16  C   UNL     1      43.465 -19.254   2.251  1.00  0.00     0.040 A 
HETATM   17  C   UNL     1      44.355 -20.862   5.250  1.00  0.00     0.352 A 
HETATM   18  C   UNL     1      43.137 -17.902   2.116  1.00  0.00     0.018 A 
ENDBRANCH   8  10
ENDBRANCH   7   8
ENDBRANCH   4   7
BRANCH   3  19
HETATM   19  N   UNL     1      40.205 -12.370   3.228  1.00  0.00    -0.234 N 
HETATM   20  H   UNL     1      39.472 -11.718   3.455  1.00  0.00     0.174 HD
HETATM   21  H   UNL     1      39.953 -13.138   2.605  1.00  0.00     0.174 HD
ENDBRANCH   3  19
BRANCH   6  22
HETATM   22  C   UNL     1      43.780 -11.273   6.425  1.00  0.00    -0.007 A 
HETATM   23  C   UNL     1      43.217 -10.353   7.323  1.00  0.00     0.017 A 
HETATM   24  C   UNL     1      44.032  -9.674   8.235  1.00  0.00     0.043 A 
HETATM   25  C   UNL     1      45.402  -9.901   8.236  1.00  0.00     0.116 A 
HETATM   26  F   UNL     1      46.180  -9.247   9.107  1.00  0.00    -0.206 F 
HETATM   27  C   UNL     1      45.975 -10.793   7.341  1.00  0.00     0.043 A 
HETATM   28  C   UNL     1      45.165 -11.479   6.431  1.00  0.00     0.017 A 
ENDBRANCH   6  22
TORSDOF 5
ENDMDL
MODEL 5
REMARK VINA RESULT:      -8.1      4.146      7.721
REMARK  5 active torsions:
REMARK  status: ('A' for Active; 'I' for Inactive)
REMARK    1  A    between atoms: C_3  and  N_4 
REMARK    2  A    between atoms: N_5  and  C_6 
REMARK    3  A    between atoms: C_6  and  C_7 
REMARK    4  A    between atoms: C_7  and  C_8 
REMARK    5  A    between atoms: C_19  and  C_20 
ROOT
HETATM    1  C   UNL     1      41.357 -11.750   5.550  1.00  0.00     0.175 C 
HETATM    2  N   UNL     1      41.486 -13.186   5.353  1.00  0.00    -0.186 N 
HETATM    3  C   UNL     1      42.084 -14.006   6.212  1.00  0.00     0.680 C 
HETATM    4  N   UNL     1      41.766 -15.259   5.906  1.00  0.00    -0.184 N 
HETATM    5  C   UNL     1      41.072 -15.243   4.704  1.00  0.00     0.140 C 
HETATM    6  C   UNL     1      40.945 -13.932   4.291  1.00  0.00     0.077 C 
ENDROOT
BRANCH   4   7
HETATM    7  C   UNL     1      42.012 -16.475   6.712  1.00  0.00     0.231 C 
BRANCH   7   8
HETATM    8  C   UNL     1      43.407 -17.065   6.535  1.00  0.00     0.178 C 
HETATM    9  O   UNL     1      44.376 -16.665   7.184  1.00  0.00    -0.290 OA
BRANCH   8  10
HETATM   10  C   UNL     1      43.594 -18.203   5.596  1.00  0.00     0.014 A 
HETATM   11  C   UNL     1      43.565 -18.025   4.207  1.00  0.00     0.055 A 
HETATM   12  C   UNL     1      43.709 -19.150   3.419  1.00  0.00     0.106 A 
HETATM   13  C   UNL     1      43.880 -20.404   3.956  1.00  0.00     0.105 A 
HETATM   14  O   UNL     1      43.689 -19.167   2.060  1.00  0.00    -0.323 OA
HETATM   15  O   UNL     1      43.993 -21.365   3.003  1.00  0.00    -0.323 OA
HETATM   16  C   UNL     1      43.914 -20.611   5.317  1.00  0.00     0.040 A 
HETATM   17  C   UNL     1      43.842 -20.582   1.800  1.00  0.00     0.352 A 
HETATM   18  C   UNL     1      43.762 -19.495   6.146  1.00  0.00     0.018 A 
ENDBRANCH   8  10
ENDBRANCH   7   8
ENDBRANCH   4   7
BRANCH   3  19
HETATM   19  N   UNL     1      42.857 -13.609   7.217  1.00  0.00    -0.234 N 
HETATM   20  H   UNL     1      42.762 -12.701   7.641  1.00  0.00     0.174 HD
HETATM   21  H   UNL     1      43.754 -14.078   7.346  1.00  0.00     0.174 HD
ENDBRANCH   3  19
BRANCH   6  22
HETATM   22  C   UNL     1      40.335 -13.472   2.995  1.00  0.00    -0.007 A 
HETATM   23  C   UNL     1      39.290 -12.534   3.003  1.00  0.00     0.017 A 
HETATM   24  C   UNL     1      38.719 -12.110   1.799  1.00  0.00     0.043 A 
HETATM   25  C   UNL     1      39.180 -12.632   0.597  1.00  0.00     0.116 A 
HETATM   26  F   UNL     1      38.629 -12.227  -0.554  1.00  0.00    -0.206 F 
HETATM   27  C   UNL     1      40.198 -13.575   0.575  1.00  0.00     0.043 A 
HETATM   28  C   UNL     1      40.776 -13.999   1.775  1.00  0.00     0.017 A 
ENDBRANCH   6  22
TORSDOF 5
ENDMDL
MODEL 6
REMARK VINA RESULT:      -7.9      3.427      6.145
REMARK  5 active torsions:
REMARK  status: ('A' for Active; 'I' for Inactive)
REMARK    1  A    between atoms: C_3  and  N_4 
REMARK    2  A    between atoms: N_5  and  C_6 
REMARK    3  A    between atoms: C_6  and  C_7 
REMARK    4  A    between atoms: C_7  and  C_8 
REMARK    5  A    between atoms: C_19  and  C_20 
ROOT
HETATM    1  C   UNL     1      44.128 -16.462   7.192  1.00  0.00     0.175 C 
HETATM    2  N   UNL     1      43.528 -15.834   6.025  1.00  0.00    -0.186 N 
HETATM    3  C   UNL     1      43.074 -14.584   6.001  1.00  0.00     0.680 C 
HETATM    4  N   UNL     1      42.884 -14.219   4.738  1.00  0.00    -0.184 N 
HETATM    5  C   UNL     1      43.066 -15.337   3.936  1.00  0.00     0.140 C 
HETATM    6  C   UNL     1      43.406 -16.403   4.744  1.00  0.00     0.077 C 
ENDROOT
BRANCH   4   7
HETATM    7  C   UNL     1      42.609 -12.858   4.225  1.00  0.00     0.231 C 
BRANCH   7   8
HETATM    8  C   UNL     1      41.197 -12.675   3.677  1.00  0.00     0.178 C 
HETATM    9  O   UNL     1      40.309 -12.118   4.327  1.00  0.00    -0.290 OA
BRANCH   8  10
HETATM   10  C   UNL     1      40.898 -13.124   2.291  1.00  0.00     0.014 A 
HETATM   11  C   UNL     1      41.156 -12.311   1.181  1.00  0.00     0.055 A 
HETATM   12  C   UNL     1      40.807 -12.802  -0.061  1.00  0.00     0.106 A 
HETATM   13  C   UNL     1      40.233 -14.040  -0.225  1.00  0.00     0.105 A 
HETATM   14  O   UNL     1      40.968 -12.146  -1.241  1.00  0.00    -0.323 OA
HETATM   15  O   UNL     1      39.965 -14.319  -1.526  1.00  0.00    -0.323 OA
HETATM   16  C   UNL     1      39.968 -14.863   0.847  1.00  0.00     0.040 A 
HETATM   17  C   UNL     1      40.405 -13.104  -2.167  1.00  0.00     0.352 A 
HETATM   18  C   UNL     1      40.300 -14.394   2.121  1.00  0.00     0.018 A 
ENDBRANCH   8  10
ENDBRANCH   7   8
ENDBRANCH   4   7
BRANCH   3  19
HETATM   19  N   UNL     1      42.869 -13.838   7.081  1.00  0.00    -0.234 N 
HETATM   20  H   UNL     1      43.262 -14.073   7.978  1.00  0.00     0.174 HD
HETATM   21  H   UNL     1      42.059 -13.218   7.088  1.00  0.00     0.174 HD
ENDBRANCH   3  19
BRANCH   6  22
HETATM   22  C   UNL     1      43.608 -17.822   4.291  1.00  0.00    -0.007 A 
HETATM   23  C   UNL     1      43.421 -18.163   2.942  1.00  0.00     0.017 A 
HETATM   24  C   UNL     1      43.605 -19.484   2.521  1.00  0.00     0.043 A 
HETATM   25  C   UNL     1      43.956 -20.460   3.445  1.00  0.00     0.116 A 
HETATM   26  F   UNL     1      44.126 -21.724   3.040  1.00  0.00    -0.206 F 
HETATM   27  C   UNL     1      44.123 -20.141   4.785  1.00  0.00     0.043 A 
HETATM   28  C   UNL     1      43.947 -18.822   5.211  1.00  0.00     0.017 A 
ENDBRANCH   6  22
TORSDOF 5
ENDMDL
MODEL 7
REMARK VINA RESULT:      -7.6      5.885      8.505
REMARK  5 active torsions:
REMARK  status: ('A' for Active; 'I' for Inactive)
REMARK    1  A    between atoms: C_3  and  N_4 
REMARK    2  A    between atoms: N_5  and  C_6 
REMARK    3  A    between atoms: C_6  and  C_7 
REMARK    4  A    between atoms: C_7  and  C_8 
REMARK    5  A    between atoms: C_19  and  C_20 
ROOT
HETATM    1  C   UNL     1      39.416 -14.890  -1.777  1.00  0.00     0.175 C 
HETATM    2  N   UNL     1      39.834 -14.089  -0.636  1.00  0.00    -0.186 N 
HETATM    3  C   UNL     1      40.045 -14.579   0.582  1.00  0.00     0.680 C 
HETATM    4  N   UNL     1      40.704 -13.679   1.301  1.00  0.00    -0.184 N 
HETATM    5  C   UNL     1      40.768 -12.505   0.564  1.00  0.00     0.140 C 
HETATM    6  C   UNL     1      40.152 -12.719  -0.653  1.00  0.00     0.077 C 
ENDROOT
BRANCH   4   7
HETATM    7  C   UNL     1      41.344 -13.872   2.621  1.00  0.00     0.231 C 
BRANCH   7   8
HETATM    8  C   UNL     1      42.773 -14.399   2.547  1.00  0.00     0.178 C 
HETATM    9  O   UNL     1      43.727 -13.670   2.265  1.00  0.00    -0.290 OA
BRANCH   8  10
HETATM   10  C   UNL     1      43.035 -15.822   2.890  1.00  0.00     0.014 A 
HETATM   11  C   UNL     1      43.312 -16.226   4.202  1.00  0.00     0.055 A 
HETATM   12  C   UNL     1      43.580 -17.563   4.412  1.00  0.00     0.106 A 
HETATM   13  C   UNL     1      43.576 -18.482   3.389  1.00  0.00     0.105 A 
HETATM   14  O   UNL     1      43.884 -18.127   5.611  1.00  0.00    -0.323 OA
HETATM   15  O   UNL     1      43.872 -19.736   3.816  1.00  0.00    -0.323 OA
HETATM   16  C   UNL     1      43.307 -18.115   2.088  1.00  0.00     0.040 A 
HETATM   17  C   UNL     1      44.096 -19.504   5.222  1.00  0.00     0.352 A 
HETATM   18  C   UNL     1      43.040 -16.766   1.837  1.00  0.00     0.018 A 
ENDBRANCH   8  10
ENDBRANCH   7   8
ENDBRANCH   4   7
BRANCH   3  19
HETATM   19  N   UNL     1      39.662 -15.787   0.982  1.00  0.00    -0.234 N 
HETATM   20  H   UNL     1      40.318 -16.477   1.310  1.00  0.00     0.174 HD
HETATM   21  H   UNL     1      38.760 -16.137   0.657  1.00  0.00     0.174 HD
ENDBRANCH   3  19
BRANCH   6  22
HETATM   22  C   UNL     1      39.924 -11.684  -1.719  1.00  0.00    -0.007 A 
HETATM   23  C   UNL     1      38.623 -11.236  -2.000  1.00  0.00     0.017 A 
HETATM   24  C   UNL     1      38.412 -10.276  -2.994  1.00  0.00     0.043 A 
HETATM   25  C   UNL     1      39.491  -9.780  -3.715  1.00  0.00     0.116 A 
HETATM   26  F   UNL     1      39.284  -8.865  -4.669  1.00  0.00    -0.206 F 
HETATM   27  C   UNL     1      40.779 -10.228  -3.462  1.00  0.00     0.043 A 
HETATM   28  C   UNL     1      40.999 -11.183  -2.466  1.00  0.00     0.017 A 
ENDBRANCH   6  22
TORSDOF 5
ENDMDL
MODEL 8
REMARK VINA RESULT:      -7.6      2.020      3.234
REMARK  5 active torsions:
REMARK  status: ('A' for Active; 'I' for Inactive)
REMARK    1  A    between atoms: C_3  and  N_4 
REMARK    2  A    between atoms: N_5  and  C_6 
REMARK    3  A    between atoms: C_6  and  C_7 
REMARK    4  A    between atoms: C_7  and  C_8 
REMARK    5  A    between atoms: C_19  and  C_20 
ROOT
HETATM    1  C   UNL     1      40.374 -14.181   6.216  1.00  0.00     0.175 C 
HETATM    2  N   UNL     1      41.612 -13.436   6.041  1.00  0.00    -0.186 N 
HETATM    3  C   UNL     1      41.751 -12.145   6.322  1.00  0.00     0.680 C 
HETATM    4  N   UNL     1      43.045 -11.847   6.354  1.00  0.00    -0.184 N 
HETATM    5  C   UNL     1      43.751 -12.956   5.911  1.00  0.00     0.140 C 
HETATM    6  C   UNL     1      42.850 -13.964   5.633  1.00  0.00     0.077 C 
ENDROOT
BRANCH   4   7
HETATM    7  C   UNL     1      43.672 -10.599   6.844  1.00  0.00     0.231 C 
BRANCH   7   8
HETATM    8  C   UNL     1      44.262 -10.710   8.246  1.00  0.00     0.178 C 
HETATM    9  O   UNL     1      45.391 -11.164   8.448  1.00  0.00    -0.290 OA
BRANCH   8  10
HETATM   10  C   UNL     1      43.480 -10.194   9.401  1.00  0.00     0.014 A 
HETATM   11  C   UNL     1      42.358  -9.374   9.223  1.00  0.00     0.055 A 
HETATM   12  C   UNL     1      41.722  -8.914  10.358  1.00  0.00     0.106 A 
HETATM   13  C   UNL     1      42.152  -9.239  11.623  1.00  0.00     0.105 A 
HETATM   14  O   UNL     1      40.633  -8.099  10.376  1.00  0.00    -0.323 OA
HETATM   15  O   UNL     1      41.387  -8.674  12.592  1.00  0.00    -0.323 OA
HETATM   16  C   UNL     1      43.250 -10.043  11.830  1.00  0.00     0.040 A 
HETATM   17  C   UNL     1      40.442  -7.926  11.799  1.00  0.00     0.352 A 
HETATM   18  C   UNL     1      43.925 -10.520  10.702  1.00  0.00     0.018 A 
ENDBRANCH   8  10
ENDBRANCH   7   8
ENDBRANCH   4   7
BRANCH   3  19
HETATM   19  N   UNL     1      40.741 -11.312   6.548  1.00  0.00    -0.234 N 
HETATM   20  H   UNL     1      39.859 -11.625   6.919  1.00  0.00     0.174 HD
HETATM   21  H   UNL     1      40.733 -10.421   6.049  1.00  0.00     0.174 HD
ENDBRANCH   3  19
BRANCH   6  22
HETATM   22  C   UNL     1      43.185 -15.308   5.047  1.00  0.00    -0.007 A 
HETATM   23  C   UNL     1      43.858 -16.266   5.822  1.00  0.00     0.017 A 
HETATM   24  C   UNL     1      44.173 -17.514   5.275  1.00  0.00     0.043 A 
HETATM   25  C   UNL     1      43.834 -17.796   3.958  1.00  0.00     0.116 A 
HETATM   26  F   UNL     1      44.141 -18.990   3.437  1.00  0.00    -0.206 F 
HETATM   27  C   UNL     1      43.187 -16.851   3.174  1.00  0.00     0.043 A 
HETATM   28  C   UNL     1      42.864 -15.604   3.716  1.00  0.00     0.017 A 
ENDBRANCH   6  22
TORSDOF 5
ENDMDL
MODEL 9
REMARK VINA RESULT:      -7.5      4.147      7.911
REMARK  5 active torsions:
REMARK  status: ('A' for Active; 'I' for Inactive)
REMARK    1  A    between atoms: C_3  and  N_4 
REMARK    2  A    between atoms: N_5  and  C_6 
REMARK    3  A    between atoms: C_6  and  C_7 
REMARK    4  A    between atoms: C_7  and  C_8 
REMARK    5  A    between atoms: C_19  and  C_20 
ROOT
HETATM    1  C   UNL     1      40.957 -10.724   5.495  1.00  0.00     0.175 C 
HETATM    2  N   UNL     1      41.455 -12.055   5.811  1.00  0.00    -0.186 N 
HETATM    3  C   UNL     1      40.775 -13.176   5.593  1.00  0.00     0.680 C 
HETATM    4  N   UNL     1      41.605 -14.209   5.692  1.00  0.00    -0.184 N 
HETATM    5  C   UNL     1      42.824 -13.737   6.156  1.00  0.00     0.140 C 
HETATM    6  C   UNL     1      42.731 -12.368   6.312  1.00  0.00     0.077 C 
ENDROOT
BRANCH   4   7
HETATM    7  C   UNL     1      41.344 -15.615   5.309  1.00  0.00     0.231 C 
BRANCH   7   8
HETATM    8  C   UNL     1      41.988 -16.029   3.990  1.00  0.00     0.178 C 
HETATM    9  O   UNL     1      42.931 -16.822   3.941  1.00  0.00    -0.290 OA
BRANCH   8  10
HETATM   10  C   UNL     1      41.421 -15.510   2.717  1.00  0.00     0.014 A 
HETATM   11  C   UNL     1      41.807 -14.272   2.188  1.00  0.00     0.055 A 
HETATM   12  C   UNL     1      41.194 -13.860   1.022  1.00  0.00     0.106 A 
HETATM   13  C   UNL     1      40.243 -14.621   0.385  1.00  0.00     0.105 A 
HETATM   14  O   UNL     1      41.432 -12.686   0.379  1.00  0.00    -0.323 OA
HETATM   15  O   UNL     1      39.767 -14.024  -0.738  1.00  0.00    -0.323 OA
HETATM   16  C   UNL     1      39.843 -15.843   0.879  1.00  0.00     0.040 A 
HETATM   17  C   UNL     1      40.502 -12.783  -0.724  1.00  0.00     0.352 A 
HETATM   18  C   UNL     1      40.436 -16.288   2.065  1.00  0.00     0.018 A 
ENDBRANCH   8  10
ENDBRANCH   7   8
ENDBRANCH   4   7
BRANCH   3  19
HETATM   19  N   UNL     1      39.479 -13.227   5.307  1.00  0.00    -0.234 N 
HETATM   20  H   UNL     1      38.951 -12.404   5.063  1.00  0.00     0.174 HD
HETATM   21  H   UNL     1      38.943 -14.025   5.647  1.00  0.00     0.174 HD
ENDBRANCH   3  19
BRANCH   6  22
HETATM   22  C   UNL     1      43.799 -11.472   6.875  1.00  0.00    -0.007 A 
HETATM   23  C   UNL     1      45.150 -11.710   6.574  1.00  0.00     0.017 A 
HETATM   24  C   UNL     1      46.143 -10.879   7.101  1.00  0.00     0.043 A 
HETATM   25  C   UNL     1      45.789  -9.827   7.936  1.00  0.00     0.116 A 
HETATM   26  F   UNL     1      46.743  -9.036   8.442  1.00  0.00    -0.206 F 
HETATM   27  C   UNL     1      44.460  -9.591   8.258  1.00  0.00     0.043 A 
HETATM   28  C   UNL     1      43.463 -10.415   7.731  1.00  0.00     0.017 A 
ENDBRANCH   6  22
TORSDOF 5
ENDMDL
MODEL 10
REMARK VINA RESULT:      -7.5      2.320      3.040
REMARK  5 active torsions:
REMARK  status: ('A' for Active; 'I' for Inactive)
REMARK    1  A    between atoms: C_3  and  N_4 
REMARK    2  A    between atoms: N_5  and  C_6 
REMARK    3  A    between atoms: C_6  and  C_7 
REMARK    4  A    between atoms: C_7  and  C_8 
REMARK    5  A    between atoms: C_19  and  C_20 
ROOT
HETATM    1  C   UNL     1      39.927 -16.059   1.271  1.00  0.00     0.175 C 
HETATM    2  N   UNL     1      40.435 -15.104   2.244  1.00  0.00    -0.186 N 
HETATM    3  C   UNL     1      40.020 -13.845   2.341  1.00  0.00     0.680 C 
HETATM    4  N   UNL     1      40.436 -13.341   3.498  1.00  0.00    -0.184 N 
HETATM    5  C   UNL     1      41.290 -14.264   4.084  1.00  0.00     0.140 C 
HETATM    6  C   UNL     1      41.365 -15.372   3.265  1.00  0.00     0.077 C 
ENDROOT
BRANCH   4   7
HETATM    7  C   UNL     1      40.024 -12.067   4.126  1.00  0.00     0.231 C 
BRANCH   7   8
HETATM    8  C   UNL     1      40.178 -12.044   5.643  1.00  0.00     0.178 C 
HETATM    9  O   UNL     1      39.375 -12.604   6.393  1.00  0.00    -0.290 OA
BRANCH   8  10
HETATM   10  C   UNL     1      41.370 -11.380   6.236  1.00  0.00     0.014 A 
HETATM   11  C   UNL     1      42.597 -12.043   6.361  1.00  0.00     0.055 A 
HETATM   12  C   UNL     1      43.633 -11.355   6.960  1.00  0.00     0.106 A 
HETATM   13  C   UNL     1      43.490 -10.067   7.418  1.00  0.00     0.105 A 
HETATM   14  O   UNL     1      44.882 -11.845   7.178  1.00  0.00    -0.323 OA
HETATM   15  O   UNL     1      44.629  -9.585   7.978  1.00  0.00    -0.323 OA
HETATM   16  C   UNL     1      42.296  -9.388   7.309  1.00  0.00     0.040 A 
HETATM   17  C   UNL     1      45.504 -10.726   7.851  1.00  0.00     0.352 A 
HETATM   18  C   UNL     1      41.222 -10.058   6.715  1.00  0.00     0.018 A 
ENDBRANCH   8  10
ENDBRANCH   7   8
ENDBRANCH   4   7
BRANCH   3  19
HETATM   19  N   UNL     1      39.293 -13.220   1.421  1.00  0.00    -0.234 N 
HETATM   20  H   UNL     1      39.068 -13.644   0.536  1.00  0.00     0.174 HD
HETATM   21  H   UNL     1      39.236 -12.202   1.464  1.00  0.00     0.174 HD
ENDBRANCH   3  19
BRANCH   6  22
HETATM   22  C   UNL     1      42.247 -16.571   3.483  1.00  0.00    -0.007 A 
HETATM   23  C   UNL     1      42.745 -16.854   4.765  1.00  0.00     0.017 A 
HETATM   24  C   UNL     1      43.569 -17.966   4.967  1.00  0.00     0.043 A 
HETATM   25  C   UNL     1      43.904 -18.779   3.892  1.00  0.00     0.116 A 
HETATM   26  F   UNL     1      44.696 -19.841   4.088  1.00  0.00    -0.206 F 
HETATM   27  C   UNL     1      43.436 -18.500   2.616  1.00  0.00     0.043 A 
HETATM   28  C   UNL     1      42.608 -17.393   2.409  1.00  0.00     0.017 A 
ENDBRANCH   6  22
TORSDOF 5
ENDMDL
