MODEL 1
REMARK VINA RESULT:      -7.9      0.000      0.000
REMARK  5 active torsions:
REMARK  status: ('A' for Active; 'I' for Inactive)
REMARK    1  A    between atoms: C_8  and  C_9 
REMARK    2  A    between atoms: N_10  and  N_11 
REMARK       I    between atoms: N_11  and  C_12 
REMARK    3  A    between atoms: C_12  and  C_13 
REMARK    4  A    between atoms: C_13  and  N_14 
REMARK    5  A    between atoms: N_14  and  C_15 
ROOT
HETATM    1  N   UNL     1      43.816 -15.327   6.146  1.00  0.00    -0.246 N 
HETATM    2  C   UNL     1      43.283 -16.202   7.103  1.00  0.00     0.250 C 
HETATM    3  O   UNL     1      42.875 -15.872   8.216  1.00  0.00    -0.270 OA
HETATM    4  H   UNL     1      44.588 -15.692   5.598  1.00  0.00     0.192 HD
ENDROOT
BRANCH   1   5
HETATM    5  N   UNL     1      43.923 -13.985   6.408  1.00  0.00    -0.184 NA
HETATM    6  C   UNL     1      42.961 -13.198   6.012  1.00  0.00     0.152 C 
BRANCH   6   7
HETATM    7  C   UNL     1      41.876 -13.535   5.105  1.00  0.00     0.011 A 
HETATM    8  C   UNL     1      41.913 -13.963   3.735  1.00  0.00     0.004 A 
HETATM    9  C   UNL     1      42.938 -14.169   2.786  1.00  0.00     0.014 A 
HETATM   10  C   UNL     1      40.595 -14.196   3.337  1.00  0.00     0.043 A 
HETATM   11  C   UNL     1      42.619 -14.637   1.506  1.00  0.00     0.001 A 
HETATM   12  C   UNL     1      41.297 -14.887   1.154  1.00  0.00     0.002 A 
HETATM   13  C   UNL     1      40.257 -14.664   2.061  1.00  0.00     0.030 A 
HETATM   14  N   UNL     1      39.786 -13.879   4.403  1.00  0.00    -0.364 N 
HETATM   15  H   UNL     1      38.779 -13.955   4.400  1.00  0.00     0.165 HD
HETATM   16  C   UNL     1      40.541 -13.441   5.456  1.00  0.00     0.102 A 
ENDBRANCH   6   7
ENDBRANCH   1   5
BRANCH   2  17
HETATM   17  C   UNL     1      43.276 -17.652   6.596  1.00  0.00     0.197 C 
BRANCH  17  18
HETATM   18  N   UNL     1      44.332 -17.882   5.605  1.00  0.00    -0.283 NA
HETATM   19  H   UNL     1      44.918 -17.053   5.472  1.00  0.00     0.128 HD
BRANCH  18  20
HETATM   20  C   UNL     1      43.967 -18.486   4.391  1.00  0.00     0.030 A 
HETATM   21  C   UNL     1      44.016 -19.885   4.231  1.00  0.00     0.055 A 
HETATM   22 CL   UNL     1      44.626 -20.898   5.495  1.00  0.00    -0.082 Cl
HETATM   23  C   UNL     1      43.609 -20.496   3.040  1.00  0.00     0.026 A 
HETATM   24  C   UNL     1      43.120 -19.719   1.991  1.00  0.00     0.002 A 
HETATM   25  C   UNL     1      43.031 -18.338   2.139  1.00  0.00     0.002 A 
HETATM   26  C   UNL     1      43.443 -17.730   3.329  1.00  0.00     0.025 A 
ENDBRANCH  18  20
ENDBRANCH  17  18
ENDBRANCH   2  17
TORSDOF 5
ENDMDL
MODEL 2
REMARK VINA RESULT:      -7.9      2.754      4.592
REMARK  5 active torsions:
REMARK  status: ('A' for Active; 'I' for Inactive)
REMARK    1  A    between atoms: C_8  and  C_9 
REMARK    2  A    between atoms: N_10  and  N_11 
REMARK       I    between atoms: N_11  and  C_12 
REMARK    3  A    between atoms: C_12  and  C_13 
REMARK    4  A    between atoms: C_13  and  N_14 
REMARK    5  A    between atoms: N_14  and  C_15 
ROOT
HETATM    1  N   UNL     1      42.390 -11.085   3.608  1.00  0.00    -0.246 N 
HETATM    2  C   UNL     1      43.631 -11.419   4.169  1.00  0.00     0.250 C 
HETATM    3  O   UNL     1      44.695 -11.477   3.553  1.00  0.00    -0.270 OA
HETATM    4  H   UNL     1      41.592 -11.593   3.974  1.00  0.00     0.192 HD
ENDROOT
BRANCH   1   5
HETATM    5  N   UNL     1      42.282 -10.793   2.272  1.00  0.00    -0.184 NA
HETATM    6  C   UNL     1      41.525 -11.555   1.531  1.00  0.00     0.152 C 
BRANCH   6   7
HETATM    7  C   UNL     1      40.952 -12.838   1.900  1.00  0.00     0.011 A 
HETATM    8  C   UNL     1      41.592 -14.091   2.185  1.00  0.00     0.004 A 
HETATM    9  C   UNL     1      42.929 -14.548   2.176  1.00  0.00     0.014 A 
HETATM   10  C   UNL     1      40.591 -15.002   2.527  1.00  0.00     0.043 A 
HETATM   11  C   UNL     1      43.217 -15.866   2.548  1.00  0.00     0.001 A 
HETATM   12  C   UNL     1      42.196 -16.738   2.914  1.00  0.00     0.002 A 
HETATM   13  C   UNL     1      40.860 -16.324   2.903  1.00  0.00     0.030 A 
HETATM   14  N   UNL     1      39.388 -14.345   2.413  1.00  0.00    -0.364 N 
HETATM   15  H   UNL     1      38.488 -14.762   2.604  1.00  0.00     0.165 HD
HETATM   16  C   UNL     1      39.590 -13.058   1.996  1.00  0.00     0.102 A 
ENDBRANCH   6   7
ENDBRANCH   1   5
BRANCH   2  17
HETATM   17  C   UNL     1      43.506 -11.719   5.670  1.00  0.00     0.197 C 
BRANCH  17  18
HETATM   18  N   UNL     1      43.786 -13.128   5.964  1.00  0.00    -0.283 NA
HETATM   19  H   UNL     1      44.523 -13.505   5.362  1.00  0.00     0.128 HD
BRANCH  18  20
HETATM   20  C   UNL     1      42.691 -13.998   6.088  1.00  0.00     0.030 A 
HETATM   21  C   UNL     1      42.877 -15.367   6.368  1.00  0.00     0.055 A 
HETATM   22 CL   UNL     1      44.469 -16.040   6.468  1.00  0.00    -0.082 Cl
HETATM   23  C   UNL     1      41.789 -16.229   6.539  1.00  0.00     0.026 A 
HETATM   24  C   UNL     1      40.489 -15.733   6.458  1.00  0.00     0.002 A 
HETATM   25  C   UNL     1      40.281 -14.378   6.215  1.00  0.00     0.002 A 
HETATM   26  C   UNL     1      41.372 -13.520   6.040  1.00  0.00     0.025 A 
ENDBRANCH  18  20
ENDBRANCH  17  18
ENDBRANCH   2  17
TORSDOF 5
ENDMDL
MODEL 3
REMARK VINA RESULT:      -7.7      1.562      1.977
REMARK  5 active torsions:
REMARK  status: ('A' for Active; 'I' for Inactive)
REMARK    1  A    between atoms: C_8  and  C_9 
REMARK    2  A    between atoms: N_10  and  N_11 
REMARK       I    between atoms: N_11  and  C_12 
REMARK    3  A    between atoms: C_12  and  C_13 
REMARK    4  A    between atoms: C_13  and  N_14 
REMARK    5  A    between atoms: N_14  and  C_15 
ROOT
HETATM    1  N   UNL     1      43.392 -14.947   5.801  1.00  0.00    -0.246 N 
HETATM    2  C   UNL     1      43.333 -15.795   6.916  1.00  0.00     0.250 C 
HETATM    3  O   UNL     1      42.850 -15.499   8.008  1.00  0.00    -0.270 OA
HETATM    4  H   UNL     1      44.230 -15.022   5.235  1.00  0.00     0.192 HD
ENDROOT
BRANCH   1   5
HETATM    5  N   UNL     1      42.894 -13.670   5.867  1.00  0.00    -0.184 NA
HETATM    6  C   UNL     1      41.787 -13.403   5.231  1.00  0.00     0.152 C 
BRANCH   6   7
HETATM    7  C   UNL     1      41.121 -14.244   4.250  1.00  0.00     0.011 A 
HETATM    8  C   UNL     1      40.960 -14.066   2.834  1.00  0.00     0.004 A 
HETATM    9  C   UNL     1      41.321 -13.059   1.912  1.00  0.00     0.014 A 
HETATM   10  C   UNL     1      40.275 -15.183   2.350  1.00  0.00     0.043 A 
HETATM   11  C   UNL     1      41.031 -13.222   0.553  1.00  0.00     0.001 A 
HETATM   12  C   UNL     1      40.374 -14.363   0.102  1.00  0.00     0.002 A 
HETATM   13  C   UNL     1      39.976 -15.363   0.994  1.00  0.00     0.030 A 
HETATM   14  N   UNL     1      39.991 -15.985   3.430  1.00  0.00    -0.364 N 
HETATM   15  H   UNL     1      39.502 -16.867   3.375  1.00  0.00     0.165 HD
HETATM   16  C   UNL     1      40.456 -15.410   4.581  1.00  0.00     0.102 A 
ENDBRANCH   6   7
ENDBRANCH   1   5
BRANCH   2  17
HETATM   17  C   UNL     1      43.961 -17.164   6.613  1.00  0.00     0.197 C 
BRANCH  17  18
HETATM   18  N   UNL     1      44.478 -17.228   5.242  1.00  0.00    -0.283 NA
HETATM   19  H   UNL     1      44.350 -16.344   4.743  1.00  0.00     0.128 HD
BRANCH  18  20
HETATM   20  C   UNL     1      44.128 -18.344   4.464  1.00  0.00     0.030 A 
HETATM   21  C   UNL     1      43.691 -18.194   3.132  1.00  0.00     0.055 A 
HETATM   22 CL   UNL     1      43.476 -16.621   2.444  1.00  0.00    -0.082 Cl
HETATM   23  C   UNL     1      43.386 -19.305   2.338  1.00  0.00     0.026 A 
HETATM   24  C   UNL     1      43.536 -20.591   2.853  1.00  0.00     0.002 A 
HETATM   25  C   UNL     1      43.996 -20.763   4.155  1.00  0.00     0.002 A 
HETATM   26  C   UNL     1      44.297 -19.651   4.948  1.00  0.00     0.025 A 
ENDBRANCH  18  20
ENDBRANCH  17  18
ENDBRANCH   2  17
TORSDOF 5
ENDMDL
MODEL 4
REMARK VINA RESULT:      -7.5      2.393      4.022
REMARK  5 active torsions:
REMARK  status: ('A' for Active; 'I' for Inactive)
REMARK    1  A    between atoms: C_8  and  C_9 
REMARK    2  A    between atoms: N_10  and  N_11 
REMARK       I    between atoms: N_11  and  C_12 
REMARK    3  A    between atoms: C_12  and  C_13 
REMARK    4  A    between atoms: C_13  and  N_14 
REMARK    5  A    between atoms: N_14  and  C_15 
ROOT
HETATM    1  N   UNL     1      43.008 -13.816   2.293  1.00  0.00    -0.246 N 
HETATM    2  C   UNL     1      42.316 -14.795   1.566  1.00  0.00     0.250 C 
HETATM    3  O   UNL     1      41.224 -14.633   1.021  1.00  0.00    -0.270 OA
HETATM    4  H   UNL     1      43.509 -14.148   3.110  1.00  0.00     0.192 HD
ENDROOT
BRANCH   1   5
HETATM    5  N   UNL     1      42.481 -12.559   2.452  1.00  0.00    -0.184 NA
HETATM    6  C   UNL     1      42.561 -11.999   3.628  1.00  0.00     0.152 C 
BRANCH   6   7
HETATM    7  C   UNL     1      42.937 -12.641   4.876  1.00  0.00     0.011 A 
HETATM    8  C   UNL     1      42.397 -13.806   5.518  1.00  0.00     0.004 A 
HETATM    9  C   UNL     1      41.337 -14.695   5.234  1.00  0.00     0.014 A 
HETATM   10  C   UNL     1      43.142 -14.024   6.679  1.00  0.00     0.043 A 
HETATM   11  C   UNL     1      41.093 -15.782   6.081  1.00  0.00     0.001 A 
HETATM   12  C   UNL     1      41.877 -15.987   7.213  1.00  0.00     0.002 A 
HETATM   13  C   UNL     1      42.913 -15.106   7.538  1.00  0.00     0.030 A 
HETATM   14  N   UNL     1      44.067 -13.011   6.764  1.00  0.00    -0.364 N 
HETATM   15  H   UNL     1      44.747 -12.917   7.505  1.00  0.00     0.165 HD
HETATM   16  C   UNL     1      43.925 -12.150   5.710  1.00  0.00     0.102 A 
ENDBRANCH   6   7
ENDBRANCH   1   5
BRANCH   2  17
HETATM   17  C   UNL     1      43.088 -16.122   1.534  1.00  0.00     0.197 C 
BRANCH  17  18
HETATM   18  N   UNL     1      43.421 -16.585   2.885  1.00  0.00    -0.283 NA
HETATM   19  H   UNL     1      44.176 -16.034   3.303  1.00  0.00     0.128 HD
BRANCH  18  20
HETATM   20  C   UNL     1      43.587 -17.966   3.079  1.00  0.00     0.030 A 
HETATM   21  C   UNL     1      44.092 -18.475   4.292  1.00  0.00     0.055 A 
HETATM   22 CL   UNL     1      44.618 -17.406   5.548  1.00  0.00    -0.082 Cl
HETATM   23  C   UNL     1      44.216 -19.851   4.508  1.00  0.00     0.026 A 
HETATM   24  C   UNL     1      43.813 -20.749   3.522  1.00  0.00     0.002 A 
HETATM   25  C   UNL     1      43.282 -20.270   2.328  1.00  0.00     0.002 A 
HETATM   26  C   UNL     1      43.163 -18.893   2.114  1.00  0.00     0.025 A 
ENDBRANCH  18  20
ENDBRANCH  17  18
ENDBRANCH   2  17
TORSDOF 5
ENDMDL
MODEL 5
REMARK VINA RESULT:      -7.5      3.925      6.988
REMARK  5 active torsions:
REMARK  status: ('A' for Active; 'I' for Inactive)
REMARK    1  A    between atoms: C_8  and  C_9 
REMARK    2  A    between atoms: N_10  and  N_11 
REMARK       I    between atoms: N_11  and  C_12 
REMARK    3  A    between atoms: C_12  and  C_13 
REMARK    4  A    between atoms: C_13  and  N_14 
REMARK    5  A    between atoms: N_14  and  C_15 
ROOT
HETATM    1  N   UNL     1      40.961 -13.244   6.505  1.00  0.00    -0.246 N 
HETATM    2  C   UNL     1      41.399 -12.638   5.320  1.00  0.00     0.250 C 
HETATM    3  O   UNL     1      40.869 -12.771   4.218  1.00  0.00    -0.270 OA
HETATM    4  H   UNL     1      41.692 -13.549   7.140  1.00  0.00     0.192 HD
ENDROOT
BRANCH   1   5
HETATM    5  N   UNL     1      39.863 -14.067   6.506  1.00  0.00    -0.184 NA
HETATM    6  C   UNL     1      40.054 -15.355   6.423  1.00  0.00     0.152 C 
BRANCH   6   7
HETATM    7  C   UNL     1      41.296 -16.032   6.088  1.00  0.00     0.011 A 
HETATM    8  C   UNL     1      41.800 -16.468   4.816  1.00  0.00     0.004 A 
HETATM    9  C   UNL     1      41.305 -16.451   3.493  1.00  0.00     0.014 A 
HETATM   10  C   UNL     1      43.059 -17.029   5.038  1.00  0.00     0.043 A 
HETATM   11  C   UNL     1      42.094 -16.945   2.448  1.00  0.00     0.001 A 
HETATM   12  C   UNL     1      43.358 -17.469   2.702  1.00  0.00     0.002 A 
HETATM   13  C   UNL     1      43.862 -17.528   4.005  1.00  0.00     0.030 A 
HETATM   14  N   UNL     1      43.294 -16.978   6.391  1.00  0.00    -0.364 N 
HETATM   15  H   UNL     1      44.135 -17.312   6.840  1.00  0.00     0.165 HD
HETATM   16  C   UNL     1      42.224 -16.421   7.037  1.00  0.00     0.102 A 
ENDBRANCH   6   7
ENDBRANCH   1   5
BRANCH   2  17
HETATM   17  C   UNL     1      42.648 -11.776   5.558  1.00  0.00     0.197 C 
BRANCH  17  18
HETATM   18  N   UNL     1      42.994 -11.711   6.982  1.00  0.00    -0.283 NA
HETATM   19  H   UNL     1      42.167 -11.592   7.572  1.00  0.00     0.128 HD
BRANCH  18  20
HETATM   20  C   UNL     1      44.053 -10.868   7.358  1.00  0.00     0.030 A 
HETATM   21  C   UNL     1      43.812  -9.652   8.027  1.00  0.00     0.055 A 
HETATM   22 CL   UNL     1      42.194  -9.109   8.318  1.00  0.00    -0.082 Cl
HETATM   23  C   UNL     1      44.864  -8.830   8.445  1.00  0.00     0.026 A 
HETATM   24  C   UNL     1      46.183  -9.223   8.224  1.00  0.00     0.002 A 
HETATM   25  C   UNL     1      46.445 -10.436   7.594  1.00  0.00     0.002 A 
HETATM   26  C   UNL     1      45.391 -11.252   7.173  1.00  0.00     0.025 A 
ENDBRANCH  18  20
ENDBRANCH  17  18
ENDBRANCH   2  17
TORSDOF 5
ENDMDL
MODEL 6
REMARK VINA RESULT:      -7.3      2.583      4.222
REMARK  5 active torsions:
REMARK  status: ('A' for Active; 'I' for Inactive)
REMARK    1  A    between atoms: C_8  and  C_9 
REMARK    2  A    between atoms: N_10  and  N_11 
REMARK       I    between atoms: N_11  and  C_12 
REMARK    3  A    between atoms: C_12  and  C_13 
REMARK    4  A    between atoms: C_13  and  N_14 
REMARK    5  A    between atoms: N_14  and  C_15 
ROOT
HETATM    1  N   UNL     1      41.262 -15.056   2.910  1.00  0.00    -0.246 N 
HETATM    2  C   UNL     1      41.662 -15.308   1.590  1.00  0.00     0.250 C 
HETATM    3  O   UNL     1      41.073 -14.915   0.584  1.00  0.00    -0.270 OA
HETATM    4  H   UNL     1      41.409 -15.815   3.567  1.00  0.00     0.192 HD
ENDROOT
BRANCH   1   5
HETATM    5  N   UNL     1      40.131 -14.323   3.171  1.00  0.00    -0.184 NA
HETATM    6  C   UNL     1      40.265 -13.054   3.443  1.00  0.00     0.152 C 
BRANCH   6   7
HETATM    7  C   UNL     1      41.502 -12.352   3.740  1.00  0.00     0.011 A 
HETATM    8  C   UNL     1      42.412 -12.503   4.840  1.00  0.00     0.004 A 
HETATM    9  C   UNL     1      42.440 -13.303   6.003  1.00  0.00     0.014 A 
HETATM   10  C   UNL     1      43.468 -11.613   4.632  1.00  0.00     0.043 A 
HETATM   11  C   UNL     1      43.528 -13.221   6.880  1.00  0.00     0.001 A 
HETATM   12  C   UNL     1      44.578 -12.345   6.624  1.00  0.00     0.002 A 
HETATM   13  C   UNL     1      44.564 -11.517   5.497  1.00  0.00     0.030 A 
HETATM   14  N   UNL     1      43.191 -10.918   3.478  1.00  0.00    -0.364 N 
HETATM   15  H   UNL     1      43.789 -10.206   3.081  1.00  0.00     0.165 HD
HETATM   16  C   UNL     1      41.993 -11.322   2.957  1.00  0.00     0.102 A 
ENDBRANCH   6   7
ENDBRANCH   1   5
BRANCH   2  17
HETATM   17  C   UNL     1      42.941 -16.156   1.544  1.00  0.00     0.197 C 
BRANCH  17  18
HETATM   18  N   UNL     1      43.369 -16.561   2.887  1.00  0.00    -0.283 NA
HETATM   19  H   UNL     1      44.142 -15.985   3.232  1.00  0.00     0.128 HD
BRANCH  18  20
HETATM   20  C   UNL     1      43.567 -17.931   3.123  1.00  0.00     0.030 A 
HETATM   21  C   UNL     1      44.020 -18.396   4.375  1.00  0.00     0.055 A 
HETATM   22 CL   UNL     1      44.441 -17.282   5.631  1.00  0.00    -0.082 Cl
HETATM   23  C   UNL     1      44.174 -19.762   4.630  1.00  0.00     0.026 A 
HETATM   24  C   UNL     1      43.855 -20.695   3.645  1.00  0.00     0.002 A 
HETATM   25  C   UNL     1      43.376 -20.260   2.413  1.00  0.00     0.002 A 
HETATM   26  C   UNL     1      43.227 -18.893   2.159  1.00  0.00     0.025 A 
ENDBRANCH  18  20
ENDBRANCH  17  18
ENDBRANCH   2  17
TORSDOF 5
ENDMDL
MODEL 7
REMARK VINA RESULT:      -7.2      6.101      9.272
REMARK  5 active torsions:
REMARK  status: ('A' for Active; 'I' for Inactive)
REMARK    1  A    between atoms: C_8  and  C_9 
REMARK    2  A    between atoms: N_10  and  N_11 
REMARK       I    between atoms: N_11  and  C_12 
REMARK    3  A    between atoms: C_12  and  C_13 
REMARK    4  A    between atoms: C_13  and  N_14 
REMARK    5  A    between atoms: N_14  and  C_15 
ROOT
HETATM    1  N   UNL     1      43.621 -10.934   8.931  1.00  0.00    -0.246 N 
HETATM    2  C   UNL     1      43.234  -9.586   8.918  1.00  0.00     0.250 C 
HETATM    3  O   UNL     1      43.828  -8.684   8.330  1.00  0.00    -0.270 OA
HETATM    4  H   UNL     1      43.474 -11.425   9.807  1.00  0.00     0.192 HD
ENDROOT
BRANCH   1   5
HETATM    5  N   UNL     1      44.745 -11.346   8.260  1.00  0.00    -0.184 NA
HETATM    6  C   UNL     1      44.596 -11.937   7.107  1.00  0.00     0.152 C 
BRANCH   6   7
HETATM    7  C   UNL     1      43.355 -12.434   6.536  1.00  0.00     0.011 A 
HETATM    8  C   UNL     1      42.728 -13.720   6.660  1.00  0.00     0.004 A 
HETATM    9  C   UNL     1      43.066 -14.932   7.302  1.00  0.00     0.014 A 
HETATM   10  C   UNL     1      41.528 -13.669   5.947  1.00  0.00     0.043 A 
HETATM   11  C   UNL     1      42.185 -16.019   7.248  1.00  0.00     0.001 A 
HETATM   12  C   UNL     1      40.983 -15.921   6.554  1.00  0.00     0.002 A 
HETATM   13  C   UNL     1      40.635 -14.745   5.883  1.00  0.00     0.030 A 
HETATM   14  N   UNL     1      41.449 -12.421   5.377  1.00  0.00    -0.364 N 
HETATM   15  H   UNL     1      40.680 -12.101   4.804  1.00  0.00     0.165 HD
HETATM   16  C   UNL     1      42.560 -11.686   5.688  1.00  0.00     0.102 A 
ENDBRANCH   6   7
ENDBRANCH   1   5
BRANCH   2  17
HETATM   17  C   UNL     1      41.960  -9.360   9.745  1.00  0.00     0.197 C 
BRANCH  17  18
HETATM   18  N   UNL     1      42.016 -10.073  11.026  1.00  0.00    -0.283 NA
HETATM   19  H   UNL     1      41.308 -10.810  11.085  1.00  0.00     0.128 HD
BRANCH  18  20
HETATM   20  C   UNL     1      42.094  -9.303  12.198  1.00  0.00     0.030 A 
HETATM   21  C   UNL     1      41.187  -9.499  13.259  1.00  0.00     0.055 A 
HETATM   22 CL   UNL     1      39.884 -10.629  13.110  1.00  0.00    -0.082 Cl
HETATM   23  C   UNL     1      41.289  -8.768  14.447  1.00  0.00     0.026 A 
HETATM   24  C   UNL     1      42.317  -7.842  14.608  1.00  0.00     0.002 A 
HETATM   25  C   UNL     1      43.243  -7.655  13.586  1.00  0.00     0.002 A 
HETATM   26  C   UNL     1      43.136  -8.384  12.398  1.00  0.00     0.025 A 
ENDBRANCH  18  20
ENDBRANCH  17  18
ENDBRANCH   2  17
TORSDOF 5
ENDMDL
MODEL 8
REMARK VINA RESULT:      -7.2      3.647      6.865
REMARK  5 active torsions:
REMARK  status: ('A' for Active; 'I' for Inactive)
REMARK    1  A    between atoms: C_8  and  C_9 
REMARK    2  A    between atoms: N_10  and  N_11 
REMARK       I    between atoms: N_11  and  C_12 
REMARK    3  A    between atoms: C_12  and  C_13 
REMARK    4  A    between atoms: C_13  and  N_14 
REMARK    5  A    between atoms: N_14  and  C_15 
ROOT
HETATM    1  N   UNL     1      41.223 -15.045   3.916  1.00  0.00    -0.246 N 
HETATM    2  C   UNL     1      41.115 -14.159   2.835  1.00  0.00     0.250 C 
HETATM    3  O   UNL     1      41.887 -13.229   2.601  1.00  0.00    -0.270 OA
HETATM    4  H   UNL     1      40.346 -15.337   4.334  1.00  0.00     0.192 HD
ENDROOT
BRANCH   1   5
HETATM    5  N   UNL     1      42.244 -14.920   4.824  1.00  0.00    -0.184 NA
HETATM    6  C   UNL     1      43.279 -15.704   4.704  1.00  0.00     0.152 C 
BRANCH   6   7
HETATM    7  C   UNL     1      43.392 -16.876   3.852  1.00  0.00     0.011 A 
HETATM    8  C   UNL     1      43.617 -18.252   4.194  1.00  0.00     0.004 A 
HETATM    9  C   UNL     1      43.845 -18.951   5.399  1.00  0.00     0.014 A 
HETATM   10  C   UNL     1      43.601 -18.984   3.005  1.00  0.00     0.043 A 
HETATM   11  C   UNL     1      43.999 -20.342   5.380  1.00  0.00     0.001 A 
HETATM   12  C   UNL     1      43.945 -21.043   4.179  1.00  0.00     0.002 A 
HETATM   13  C   UNL     1      43.753 -20.375   2.966  1.00  0.00     0.030 A 
HETATM   14  N   UNL     1      43.418 -18.088   1.978  1.00  0.00    -0.364 N 
HETATM   15  H   UNL     1      43.362 -18.339   1.001  1.00  0.00     0.165 HD
HETATM   16  C   UNL     1      43.335 -16.814   2.471  1.00  0.00     0.102 A 
ENDBRANCH   6   7
ENDBRANCH   1   5
BRANCH   2  17
HETATM   17  C   UNL     1      39.893 -14.482   1.963  1.00  0.00     0.197 C 
BRANCH  17  18
HETATM   18  N   UNL     1      39.444 -13.308   1.208  1.00  0.00    -0.283 NA
HETATM   19  H   UNL     1      38.456 -13.099   1.378  1.00  0.00     0.128 HD
BRANCH  18  20
HETATM   20  C   UNL     1      39.785 -13.238  -0.153  1.00  0.00     0.030 A 
HETATM   21  C   UNL     1      40.562 -12.174  -0.654  1.00  0.00     0.055 A 
HETATM   22 CL   UNL     1      41.036 -10.865   0.374  1.00  0.00    -0.082 Cl
HETATM   23  C   UNL     1      40.945 -12.123  -1.999  1.00  0.00     0.026 A 
HETATM   24  C   UNL     1      40.578 -13.151  -2.865  1.00  0.00     0.002 A 
HETATM   25  C   UNL     1      39.838 -14.228  -2.385  1.00  0.00     0.002 A 
HETATM   26  C   UNL     1      39.454 -14.273  -1.041  1.00  0.00     0.025 A 
ENDBRANCH  18  20
ENDBRANCH  17  18
ENDBRANCH   2  17
TORSDOF 5
ENDMDL
MODEL 9
REMARK VINA RESULT:      -7.1      3.857      6.832
REMARK  5 active torsions:
REMARK  status: ('A' for Active; 'I' for Inactive)
REMARK    1  A    between atoms: C_8  and  C_9 
REMARK    2  A    between atoms: N_10  and  N_11 
REMARK       I    between atoms: N_11  and  C_12 
REMARK    3  A    between atoms: C_12  and  C_13 
REMARK    4  A    between atoms: C_13  and  N_14 
REMARK    5  A    between atoms: N_14  and  C_15 
ROOT
HETATM    1  N   UNL     1      42.523 -13.901   7.263  1.00  0.00    -0.246 N 
HETATM    2  C   UNL     1      43.451 -12.988   6.744  1.00  0.00     0.250 C 
HETATM    3  O   UNL     1      44.651 -13.210   6.586  1.00  0.00    -0.270 OA
HETATM    4  H   UNL     1      41.802 -13.506   7.858  1.00  0.00     0.192 HD
ENDROOT
BRANCH   1   5
HETATM    5  N   UNL     1      42.917 -15.157   7.650  1.00  0.00    -0.184 NA
HETATM    6  C   UNL     1      42.668 -16.158   6.852  1.00  0.00     0.152 C 
BRANCH   6   7
HETATM    7  C   UNL     1      41.801 -16.148   5.686  1.00  0.00     0.011 A 
HETATM    8  C   UNL     1      42.120 -15.976   4.296  1.00  0.00     0.004 A 
HETATM    9  C   UNL     1      43.307 -15.723   3.573  1.00  0.00     0.014 A 
HETATM   10  C   UNL     1      40.927 -16.089   3.578  1.00  0.00     0.043 A 
HETATM   11  C   UNL     1      43.269 -15.641   2.177  1.00  0.00     0.001 A 
HETATM   12  C   UNL     1      42.066 -15.790   1.492  1.00  0.00     0.002 A 
HETATM   13  C   UNL     1      40.870 -16.010   2.182  1.00  0.00     0.030 A 
HETATM   14  N   UNL     1      39.919 -16.278   4.493  1.00  0.00    -0.364 N 
HETATM   15  H   UNL     1      38.944 -16.397   4.255  1.00  0.00     0.165 HD
HETATM   16  C   UNL     1      40.426 -16.272   5.764  1.00  0.00     0.102 A 
ENDBRANCH   6   7
ENDBRANCH   1   5
BRANCH   2  17
HETATM   17  C   UNL     1      42.786 -11.649   6.394  1.00  0.00     0.197 C 
BRANCH  17  18
HETATM   18  N   UNL     1      43.675 -10.516   6.675  1.00  0.00    -0.283 NA
HETATM   19  H   UNL     1      44.547 -10.574   6.142  1.00  0.00     0.128 HD
BRANCH  18  20
HETATM   20  C   UNL     1      43.884 -10.169   8.019  1.00  0.00     0.030 A 
HETATM   21  C   UNL     1      45.182 -10.133   8.568  1.00  0.00     0.055 A 
HETATM   22 CL   UNL     1      46.553 -10.616   7.628  1.00  0.00    -0.082 Cl
HETATM   23  C   UNL     1      45.401  -9.743   9.893  1.00  0.00     0.026 A 
HETATM   24  C   UNL     1      44.326  -9.354  10.690  1.00  0.00     0.002 A 
HETATM   25  C   UNL     1      43.039  -9.350  10.160  1.00  0.00     0.002 A 
HETATM   26  C   UNL     1      42.823  -9.746   8.835  1.00  0.00     0.025 A 
ENDBRANCH  18  20
ENDBRANCH  17  18
ENDBRANCH   2  17
TORSDOF 5
ENDMDL
MODEL 10
REMARK VINA RESULT:      -6.9      3.412      4.450
REMARK  5 active torsions:
REMARK  status: ('A' for Active; 'I' for Inactive)
REMARK    1  A    between atoms: C_8  and  C_9 
REMARK    2  A    between atoms: N_10  and  N_11 
REMARK       I    between atoms: N_11  and  C_12 
REMARK    3  A    between atoms: C_12  and  C_13 
REMARK    4  A    between atoms: C_13  and  N_14 
REMARK    5  A    between atoms: N_14  and  C_15 
ROOT
HETATM    1  N   UNL     1      42.786 -11.877   2.695  1.00  0.00    -0.246 N 
HETATM    2  C   UNL     1      42.520 -12.161   4.042  1.00  0.00     0.250 C 
HETATM    3  O   UNL     1      41.912 -11.422   4.815  1.00  0.00    -0.270 OA
HETATM    4  H   UNL     1      43.688 -12.189   2.350  1.00  0.00     0.192 HD
ENDROOT
BRANCH   1   5
HETATM    5  N   UNL     1      42.369 -10.697   2.133  1.00  0.00    -0.184 NA
HETATM    6  C   UNL     1      41.290 -10.708   1.399  1.00  0.00     0.152 C 
BRANCH   6   7
HETATM    7  C   UNL     1      40.587 -11.878   0.901  1.00  0.00     0.011 A 
HETATM    8  C   UNL     1      40.518 -12.422  -0.427  1.00  0.00     0.004 A 
HETATM    9  C   UNL     1      41.033 -12.038  -1.685  1.00  0.00     0.014 A 
HETATM   10  C   UNL     1      39.741 -13.580  -0.362  1.00  0.00     0.043 A 
HETATM   11  C   UNL     1      40.795 -12.838  -2.808  1.00  0.00     0.001 A 
HETATM   12  C   UNL     1      40.042 -14.004  -2.701  1.00  0.00     0.002 A 
HETATM   13  C   UNL     1      39.494 -14.393  -1.475  1.00  0.00     0.030 A 
HETATM   14  N   UNL     1      39.318 -13.713   0.939  1.00  0.00    -0.364 N 
HETATM   15  H   UNL     1      38.739 -14.469   1.278  1.00  0.00     0.165 HD
HETATM   16  C   UNL     1      39.783 -12.674   1.697  1.00  0.00     0.102 A 
ENDBRANCH   6   7
ENDBRANCH   1   5
BRANCH   2  17
HETATM   17  C   UNL     1      43.093 -13.526   4.452  1.00  0.00     0.197 C 
BRANCH  17  18
HETATM   18  N   UNL     1      42.151 -14.614   4.166  1.00  0.00    -0.283 NA
HETATM   19  H   UNL     1      41.359 -14.614   4.814  1.00  0.00     0.128 HD
BRANCH  18  20
HETATM   20  C   UNL     1      42.681 -15.898   3.959  1.00  0.00     0.030 A 
HETATM   21  C   UNL     1      42.860 -16.409   2.658  1.00  0.00     0.055 A 
HETATM   22 CL   UNL     1      42.339 -15.509   1.274  1.00  0.00    -0.082 Cl
HETATM   23  C   UNL     1      43.431 -17.669   2.444  1.00  0.00     0.026 A 
HETATM   24  C   UNL     1      43.858 -18.432   3.529  1.00  0.00     0.002 A 
HETATM   25  C   UNL     1      43.720 -17.933   4.820  1.00  0.00     0.002 A 
HETATM   26  C   UNL     1      43.145 -16.676   5.031  1.00  0.00     0.025 A 
ENDBRANCH  18  20
ENDBRANCH  17  18
ENDBRANCH   2  17
TORSDOF 5
ENDMDL
