MODEL 1
REMARK VINA RESULT:      -9.7      0.000      0.000
REMARK  7 active torsions:
REMARK  status: ('A' for Active; 'I' for Inactive)
REMARK    1  A    between atoms: C_2  and  N_3 
REMARK    2  A    between atoms: C_2  and  C_25 
REMARK       I    between atoms: N_3  and  C_4 
REMARK    3  A    between atoms: C_4  and  C_5 
REMARK    4  A    between atoms: C_8  and  C_9 
REMARK       I    between atoms: C_9  and  N_10 
REMARK    5  A    between atoms: N_10  and  C_11 
REMARK    6  A    between atoms: N_19  and  C_20 
REMARK    7  A    between atoms: C_33  and  O_34 
ROOT
HETATM    1  C   UNL     1      40.754 -11.106   6.403  1.00  0.00     0.098 A 
HETATM    2  C   UNL     1      40.298 -10.059   7.368  1.00  0.00     0.206 A 
HETATM    3  O   UNL     1      39.097  -9.892   7.592  1.00  0.00    -0.286 OA
HETATM    4  C   UNL     1      41.322  -9.228   8.068  1.00  0.00     0.098 A 
HETATM    5  C   UNL     1      42.607  -9.459   7.748  1.00  0.00     0.112 A 
HETATM    6  N   UNL     1      43.012 -10.396   6.818  1.00  0.00    -0.360 N 
HETATM    7  C   UNL     1      42.080 -11.211   6.207  1.00  0.00     0.112 A 
ENDROOT
BRANCH   1   8
HETATM    8  C   UNL     1      39.836 -12.017   5.659  1.00  0.00     0.257 C 
HETATM    9  N   UNL     1      40.161 -12.199   4.344  1.00  0.00    -0.348 N 
HETATM   10  H   UNL     1      40.974 -11.706   3.978  1.00  0.00     0.163 HD
HETATM   11  O   UNL     1      38.878 -12.560   6.200  1.00  0.00    -0.267 OA
BRANCH   9  12
HETATM   12  C   UNL     1      39.434 -13.056   3.424  1.00  0.00     0.114 C 
HETATM   13  C   UNL     1      38.990 -12.287   2.180  1.00  0.00     0.037 C 
BRANCH  12  14
HETATM   14  C   UNL     1      40.311 -14.249   3.079  1.00  0.00    -0.035 A 
HETATM   15  C   UNL     1      41.341 -14.671   3.942  1.00  0.00     0.021 A 
HETATM   16  C   UNL     1      42.083 -15.834   3.685  1.00  0.00    -0.025 A 
HETATM   17  C   UNL     1      41.806 -16.587   2.525  1.00  0.00    -0.023 A 
HETATM   18  C   UNL     1      43.082 -16.275   4.566  1.00  0.00     0.015 A 
HETATM   19  C   UNL     1      40.798 -16.152   1.651  1.00  0.00     0.013 A 
HETATM   20  C   UNL     1      42.538 -17.762   2.282  1.00  0.00     0.049 A 
HETATM   21  C   UNL     1      40.055 -15.001   1.928  1.00  0.00     0.010 A 
HETATM   22  C   UNL     1      43.523 -18.202   3.172  1.00  0.00     0.069 A 
HETATM   23  C   UNL     1      43.796 -17.451   4.313  1.00  0.00     0.037 A 
BRANCH  22  24
HETATM   24  O   UNL     1      44.138 -19.369   2.812  1.00  0.00    -0.356 OA
HETATM   25  C   UNL     1      43.413 -20.237   1.949  1.00  0.00     0.210 C 
ENDBRANCH  22  24
ENDBRANCH  12  14
ENDBRANCH   9  12
ENDBRANCH   1   8
BRANCH   4  26
HETATM   26  C   UNL     1      41.005  -8.185   9.086  1.00  0.00     0.257 C 
HETATM   27  N   UNL     1      41.301  -8.530  10.381  1.00  0.00    -0.352 N 
HETATM   28  H   UNL     1      41.603  -9.489  10.555  1.00  0.00     0.163 HD
HETATM   29  O   UNL     1      40.515  -7.104   8.771  1.00  0.00    -0.267 OA
BRANCH  27  30
HETATM   30  C   UNL     1      40.951  -7.710  11.533  1.00  0.00     0.084 C 
HETATM   31  C   UNL     1      40.170  -8.526  12.572  1.00  0.00     0.025 C 
HETATM   32  C   UNL     1      41.046  -9.554  13.288  1.00  0.00     0.002 C 
HETATM   33  C   UNL     1      42.280  -8.908  13.911  1.00  0.00     0.000 C 
HETATM   34  C   UNL     1      43.083  -8.114  12.885  1.00  0.00     0.002 C 
HETATM   35  C   UNL     1      42.213  -7.091  12.152  1.00  0.00     0.025 C 
ENDBRANCH  27  30
ENDBRANCH   4  26
BRANCH   6  36
HETATM   36  C   UNL     1      44.445 -10.667   6.642  1.00  0.00     0.089 A 
HETATM   37  C   UNL     1      45.362 -10.915   7.812  1.00  0.00     0.028 A 
HETATM   38  C   UNL     1      45.021 -12.039   6.883  1.00  0.00     0.028 A 
ENDBRANCH   6  36
TORSDOF 7
ENDMDL
MODEL 2
REMARK VINA RESULT:      -9.6      2.228      3.333
REMARK  7 active torsions:
REMARK  status: ('A' for Active; 'I' for Inactive)
REMARK    1  A    between atoms: C_2  and  N_3 
REMARK    2  A    between atoms: C_2  and  C_25 
REMARK       I    between atoms: N_3  and  C_4 
REMARK    3  A    between atoms: C_4  and  C_5 
REMARK    4  A    between atoms: C_8  and  C_9 
REMARK       I    between atoms: C_9  and  N_10 
REMARK    5  A    between atoms: N_10  and  C_11 
REMARK    6  A    between atoms: N_19  and  C_20 
REMARK    7  A    between atoms: C_33  and  O_34 
ROOT
HETATM    1  C   UNL     1      40.851 -11.064   5.216  1.00  0.00     0.098 A 
HETATM    2  C   UNL     1      41.994 -11.302   6.151  1.00  0.00     0.206 A 
HETATM    3  O   UNL     1      42.610 -12.370   6.132  1.00  0.00    -0.286 OA
HETATM    4  C   UNL     1      42.388 -10.217   7.099  1.00  0.00     0.098 A 
HETATM    5  C   UNL     1      41.649  -9.094   7.070  1.00  0.00     0.112 A 
HETATM    6  N   UNL     1      40.564  -8.907   6.235  1.00  0.00    -0.360 N 
HETATM    7  C   UNL     1      40.226  -9.878   5.313  1.00  0.00     0.112 A 
ENDROOT
BRANCH   1   8
HETATM    8  C   UNL     1      40.375 -12.054   4.206  1.00  0.00     0.257 C 
HETATM    9  N   UNL     1      41.351 -12.533   3.377  1.00  0.00    -0.348 N 
HETATM   10  H   UNL     1      42.300 -12.181   3.500  1.00  0.00     0.163 HD
HETATM   11  O   UNL     1      39.202 -12.408   4.143  1.00  0.00    -0.267 OA
BRANCH   9  12
HETATM   12  C   UNL     1      41.138 -13.519   2.333  1.00  0.00     0.114 C 
HETATM   13  C   UNL     1      41.483 -12.955   0.956  1.00  0.00     0.037 C 
BRANCH  12  14
HETATM   14  C   UNL     1      41.955 -14.759   2.666  1.00  0.00    -0.035 A 
HETATM   15  C   UNL     1      42.109 -15.195   3.995  1.00  0.00     0.021 A 
HETATM   16  C   UNL     1      42.767 -16.396   4.302  1.00  0.00    -0.025 A 
HETATM   17  C   UNL     1      43.305 -17.174   3.256  1.00  0.00    -0.023 A 
HETATM   18  C   UNL     1      42.886 -16.849   5.625  1.00  0.00     0.015 A 
HETATM   19  C   UNL     1      43.175 -16.726   1.933  1.00  0.00     0.013 A 
HETATM   20  C   UNL     1      43.945 -18.386   3.566  1.00  0.00     0.049 A 
HETATM   21  C   UNL     1      42.502 -15.537   1.640  1.00  0.00     0.010 A 
HETATM   22  C   UNL     1      44.048 -18.837   4.885  1.00  0.00     0.069 A 
HETATM   23  C   UNL     1      43.520 -18.062   5.915  1.00  0.00     0.037 A 
BRANCH  22  24
HETATM   24  O   UNL     1      44.682 -20.041   5.029  1.00  0.00    -0.356 OA
HETATM   25  C   UNL     1      43.865 -21.205   5.004  1.00  0.00     0.210 C 
ENDBRANCH  22  24
ENDBRANCH  12  14
ENDBRANCH   9  12
ENDBRANCH   1   8
BRANCH   4  26
HETATM   26  C   UNL     1      43.534 -10.307   8.047  1.00  0.00     0.257 C 
HETATM   27  N   UNL     1      43.185 -10.380   9.373  1.00  0.00    -0.352 N 
HETATM   28  H   UNL     1      42.200 -10.258   9.608  1.00  0.00     0.163 HD
HETATM   29  O   UNL     1      44.697 -10.314   7.656  1.00  0.00    -0.267 OA
BRANCH  27  30
HETATM   30  C   UNL     1      44.150 -10.345  10.463  1.00  0.00     0.084 C 
HETATM   31  C   UNL     1      44.560  -8.902  10.788  1.00  0.00     0.025 C 
HETATM   32  C   UNL     1      43.437  -8.111  11.459  1.00  0.00     0.002 C 
HETATM   33  C   UNL     1      42.908  -8.825  12.700  1.00  0.00     0.000 C 
HETATM   34  C   UNL     1      42.471 -10.253  12.389  1.00  0.00     0.002 C 
HETATM   35  C   UNL     1      43.583 -11.050  11.704  1.00  0.00     0.025 C 
ENDBRANCH  27  30
ENDBRANCH   4  26
BRANCH   6  36
HETATM   36  C   UNL     1      39.910  -7.593   6.184  1.00  0.00     0.089 A 
HETATM   37  C   UNL     1      38.526  -7.410   5.617  1.00  0.00     0.028 A 
HETATM   38  C   UNL     1      38.754  -7.255   7.089  1.00  0.00     0.028 A 
ENDBRANCH   6  36
TORSDOF 7
ENDMDL
MODEL 3
REMARK VINA RESULT:      -9.4      1.606      2.247
REMARK  7 active torsions:
REMARK  status: ('A' for Active; 'I' for Inactive)
REMARK    1  A    between atoms: C_2  and  N_3 
REMARK    2  A    between atoms: C_2  and  C_25 
REMARK       I    between atoms: N_3  and  C_4 
REMARK    3  A    between atoms: C_4  and  C_5 
REMARK    4  A    between atoms: C_8  and  C_9 
REMARK       I    between atoms: C_9  and  N_10 
REMARK    5  A    between atoms: N_10  and  C_11 
REMARK    6  A    between atoms: N_19  and  C_20 
REMARK    7  A    between atoms: C_33  and  O_34 
ROOT
HETATM    1  C   UNL     1      41.968 -10.358   6.746  1.00  0.00     0.098 A 
HETATM    2  C   UNL     1      41.049  -9.640   7.683  1.00  0.00     0.206 A 
HETATM    3  O   UNL     1      39.851  -9.517   7.417  1.00  0.00    -0.286 OA
HETATM    4  C   UNL     1      41.604  -9.087   8.955  1.00  0.00     0.098 A 
HETATM    5  C   UNL     1      42.924  -9.244   9.155  1.00  0.00     0.112 A 
HETATM    6  N   UNL     1      43.770  -9.866   8.258  1.00  0.00    -0.360 N 
HETATM    7  C   UNL     1      43.260 -10.434   7.106  1.00  0.00     0.112 A 
ENDROOT
BRANCH   1   8
HETATM    8  C   UNL     1      41.535 -10.976   5.459  1.00  0.00     0.257 C 
HETATM    9  N   UNL     1      42.272 -12.063   5.076  1.00  0.00    -0.348 N 
HETATM   10  H   UNL     1      43.043 -12.354   5.674  1.00  0.00     0.163 HD
HETATM   11  O   UNL     1      40.588 -10.540   4.812  1.00  0.00    -0.267 OA
BRANCH   9  12
HETATM   12  C   UNL     1      42.029 -12.844   3.877  1.00  0.00     0.114 C 
HETATM   13  C   UNL     1      42.747 -12.247   2.668  1.00  0.00     0.037 C 
BRANCH  12  14
HETATM   14  C   UNL     1      42.451 -14.281   4.143  1.00  0.00    -0.035 A 
HETATM   15  C   UNL     1      42.406 -15.254   3.126  1.00  0.00     0.021 A 
HETATM   16  C   UNL     1      42.896 -16.553   3.331  1.00  0.00    -0.025 A 
HETATM   17  C   UNL     1      43.427 -16.899   4.590  1.00  0.00    -0.023 A 
HETATM   18  C   UNL     1      42.886 -17.510   2.305  1.00  0.00     0.015 A 
HETATM   19  C   UNL     1      43.448 -15.938   5.613  1.00  0.00     0.013 A 
HETATM   20  C   UNL     1      43.936 -18.194   4.785  1.00  0.00     0.049 A 
HETATM   21  C   UNL     1      42.973 -14.642   5.389  1.00  0.00     0.010 A 
HETATM   22  C   UNL     1      43.935 -19.138   3.754  1.00  0.00     0.069 A 
HETATM   23  C   UNL     1      43.404 -18.793   2.513  1.00  0.00     0.037 A 
BRANCH  22  24
HETATM   24  O   UNL     1      44.477 -20.349   4.087  1.00  0.00    -0.356 OA
HETATM   25  C   UNL     1      44.057 -20.925   5.317  1.00  0.00     0.210 C 
ENDBRANCH  22  24
ENDBRANCH  12  14
ENDBRANCH   9  12
ENDBRANCH   1   8
BRANCH   4  26
HETATM   26  C   UNL     1      40.790  -8.394   9.994  1.00  0.00     0.257 C 
HETATM   27  N   UNL     1      41.329  -8.408  11.257  1.00  0.00    -0.352 N 
HETATM   28  H   UNL     1      42.165  -8.973  11.405  1.00  0.00     0.163 HD
HETATM   29  O   UNL     1      39.721  -7.855   9.723  1.00  0.00    -0.267 OA
BRANCH  27  30
HETATM   30  C   UNL     1      40.636  -7.901  12.433  1.00  0.00     0.084 C 
HETATM   31  C   UNL     1      40.826  -8.843  13.631  1.00  0.00     0.025 C 
HETATM   32  C   UNL     1      42.252  -8.811  14.181  1.00  0.00     0.002 C 
HETATM   33  C   UNL     1      42.693  -7.390  14.522  1.00  0.00     0.000 C 
HETATM   34  C   UNL     1      42.536  -6.447  13.335  1.00  0.00     0.002 C 
HETATM   35  C   UNL     1      41.115  -6.481  12.767  1.00  0.00     0.025 C 
ENDBRANCH  27  30
ENDBRANCH   4  26
BRANCH   6  36
HETATM   36  C   UNL     1      45.169 -10.110   8.633  1.00  0.00     0.089 A 
HETATM   37  C   UNL     1      46.180 -10.643   7.651  1.00  0.00     0.028 A 
HETATM   38  C   UNL     1      46.283  -9.227   8.129  1.00  0.00     0.028 A 
ENDBRANCH   6  36
TORSDOF 7
ENDMDL
MODEL 4
REMARK VINA RESULT:      -9.2      3.256      5.456
REMARK  7 active torsions:
REMARK  status: ('A' for Active; 'I' for Inactive)
REMARK    1  A    between atoms: C_2  and  N_3 
REMARK    2  A    between atoms: C_2  and  C_25 
REMARK       I    between atoms: N_3  and  C_4 
REMARK    3  A    between atoms: C_4  and  C_5 
REMARK    4  A    between atoms: C_8  and  C_9 
REMARK       I    between atoms: C_9  and  N_10 
REMARK    5  A    between atoms: N_10  and  C_11 
REMARK    6  A    between atoms: N_19  and  C_20 
REMARK    7  A    between atoms: C_33  and  O_34 
ROOT
HETATM    1  C   UNL     1      41.402 -12.418   5.371  1.00  0.00     0.098 A 
HETATM    2  C   UNL     1      42.442 -11.558   6.016  1.00  0.00     0.206 A 
HETATM    3  O   UNL     1      42.256 -10.347   6.158  1.00  0.00    -0.286 OA
HETATM    4  C   UNL     1      43.704 -12.193   6.501  1.00  0.00     0.098 A 
HETATM    5  C   UNL     1      43.835 -13.514   6.285  1.00  0.00     0.112 A 
HETATM    6  N   UNL     1      42.887 -14.287   5.643  1.00  0.00    -0.360 N 
HETATM    7  C   UNL     1      41.691 -13.724   5.243  1.00  0.00     0.112 A 
ENDROOT
BRANCH   1   8
HETATM    8  C   UNL     1      40.091 -11.913   4.868  1.00  0.00     0.257 C 
HETATM    9  N   UNL     1      40.173 -10.775   4.114  1.00  0.00    -0.348 N 
HETATM   10  H   UNL     1      41.093 -10.364   3.965  1.00  0.00     0.163 HD
HETATM   11  O   UNL     1      39.035 -12.487   5.112  1.00  0.00    -0.267 OA
BRANCH   9  12
HETATM   12  C   UNL     1      39.040 -10.110   3.498  1.00  0.00     0.114 C 
HETATM   13  C   UNL     1      39.222  -8.592   3.490  1.00  0.00     0.037 C 
BRANCH  12  14
HETATM   14  C   UNL     1      38.853 -10.671   2.097  1.00  0.00    -0.035 A 
HETATM   15  C   UNL     1      39.951 -11.125   1.341  1.00  0.00     0.021 A 
HETATM   16  C   UNL     1      39.776 -11.745   0.093  1.00  0.00    -0.025 A 
HETATM   17  C   UNL     1      38.475 -11.898  -0.425  1.00  0.00    -0.023 A 
HETATM   18  C   UNL     1      40.869 -12.231  -0.641  1.00  0.00     0.015 A 
HETATM   19  C   UNL     1      37.382 -11.422   0.316  1.00  0.00     0.013 A 
HETATM   20  C   UNL     1      38.303 -12.537  -1.665  1.00  0.00     0.049 A 
HETATM   21  C   UNL     1      37.568 -10.823   1.565  1.00  0.00     0.010 A 
HETATM   22  C   UNL     1      39.395 -13.031  -2.385  1.00  0.00     0.069 A 
HETATM   23  C   UNL     1      40.680 -12.872  -1.870  1.00  0.00     0.037 A 
BRANCH  22  24
HETATM   24  O   UNL     1      39.072 -13.643  -3.565  1.00  0.00    -0.356 OA
HETATM   25  C   UNL     1      38.241 -14.795  -3.485  1.00  0.00     0.210 C 
ENDBRANCH  22  24
ENDBRANCH  12  14
ENDBRANCH   9  12
ENDBRANCH   1   8
BRANCH   4  26
HETATM   26  C   UNL     1      44.797 -11.460   7.201  1.00  0.00     0.257 C 
HETATM   27  N   UNL     1      44.421 -10.829   8.361  1.00  0.00    -0.352 N 
HETATM   28  H   UNL     1      43.427 -10.816   8.589  1.00  0.00     0.163 HD
HETATM   29  O   UNL     1      45.942 -11.434   6.760  1.00  0.00    -0.267 OA
BRANCH  27  30
HETATM   30  C   UNL     1      45.302  -9.956   9.125  1.00  0.00     0.084 C 
HETATM   31  C   UNL     1      45.189  -8.503   8.643  1.00  0.00     0.025 C 
HETATM   32  C   UNL     1      43.855  -7.862   9.024  1.00  0.00     0.002 C 
HETATM   33  C   UNL     1      43.586  -7.967  10.523  1.00  0.00     0.000 C 
HETATM   34  C   UNL     1      43.668  -9.408  11.014  1.00  0.00     0.002 C 
HETATM   35  C   UNL     1      44.995 -10.065  10.625  1.00  0.00     0.025 C 
ENDBRANCH  27  30
ENDBRANCH   4  26
BRANCH   6  36
HETATM   36  C   UNL     1      43.065 -15.743   5.582  1.00  0.00     0.089 A 
HETATM   37  C   UNL     1      42.124 -16.632   4.809  1.00  0.00     0.028 A 
HETATM   38  C   UNL     1      43.525 -16.427   4.319  1.00  0.00     0.028 A 
ENDBRANCH   6  36
TORSDOF 7
ENDMDL
MODEL 5
REMARK VINA RESULT:      -9.0      5.099      9.081
REMARK  7 active torsions:
REMARK  status: ('A' for Active; 'I' for Inactive)
REMARK    1  A    between atoms: C_2  and  N_3 
REMARK    2  A    between atoms: C_2  and  C_25 
REMARK       I    between atoms: N_3  and  C_4 
REMARK    3  A    between atoms: C_4  and  C_5 
REMARK    4  A    between atoms: C_8  and  C_9 
REMARK       I    between atoms: C_9  and  N_10 
REMARK    5  A    between atoms: N_10  and  C_11 
REMARK    6  A    between atoms: N_19  and  C_20 
REMARK    7  A    between atoms: C_33  and  O_34 
ROOT
HETATM    1  C   UNL     1      40.999 -11.577   0.559  1.00  0.00     0.098 A 
HETATM    2  C   UNL     1      41.331 -10.490  -0.413  1.00  0.00     0.206 A 
HETATM    3  O   UNL     1      42.093  -9.574  -0.096  1.00  0.00    -0.286 OA
HETATM    4  C   UNL     1      40.735 -10.540  -1.782  1.00  0.00     0.098 A 
HETATM    5  C   UNL     1      39.896 -11.559  -2.038  1.00  0.00     0.112 A 
HETATM    6  N   UNL     1      39.560 -12.529  -1.114  1.00  0.00    -0.360 N 
HETATM    7  C   UNL     1      40.149 -12.528   0.136  1.00  0.00     0.112 A 
ENDROOT
BRANCH   1   8
HETATM    8  C   UNL     1      41.547 -11.657   1.944  1.00  0.00     0.257 C 
HETATM    9  N   UNL     1      40.777 -12.375   2.817  1.00  0.00    -0.348 N 
HETATM   10  H   UNL     1      39.909 -12.780   2.470  1.00  0.00     0.163 HD
HETATM   11  O   UNL     1      42.607 -11.126   2.258  1.00  0.00    -0.267 OA
BRANCH   9  12
HETATM   12  C   UNL     1      41.111 -12.613   4.210  1.00  0.00     0.114 C 
HETATM   13  C   UNL     1      39.881 -12.485   5.107  1.00  0.00     0.037 C 
BRANCH  12  14
HETATM   14  C   UNL     1      41.764 -13.982   4.324  1.00  0.00    -0.035 A 
HETATM   15  C   UNL     1      41.629 -14.940   3.301  1.00  0.00     0.021 A 
HETATM   16  C   UNL     1      42.316 -16.164   3.348  1.00  0.00    -0.025 A 
HETATM   17  C   UNL     1      43.144 -16.449   4.452  1.00  0.00    -0.023 A 
HETATM   18  C   UNL     1      42.211 -17.102   2.309  1.00  0.00     0.015 A 
HETATM   19  C   UNL     1      43.258 -15.504   5.484  1.00  0.00     0.013 A 
HETATM   20  C   UNL     1      43.846 -17.665   4.485  1.00  0.00     0.049 A 
HETATM   21  C   UNL     1      42.582 -14.283   5.417  1.00  0.00     0.010 A 
HETATM   22  C   UNL     1      43.747 -18.590   3.440  1.00  0.00     0.069 A 
HETATM   23  C   UNL     1      42.923 -18.305   2.354  1.00  0.00     0.037 A 
BRANCH  22  24
HETATM   24  O   UNL     1      44.501 -19.720   3.603  1.00  0.00    -0.356 OA
HETATM   25  C   UNL     1      43.837 -20.865   4.121  1.00  0.00     0.210 C 
ENDBRANCH  22  24
ENDBRANCH  12  14
ENDBRANCH   9  12
ENDBRANCH   1   8
BRANCH   4  26
HETATM   26  C   UNL     1      41.020  -9.548  -2.858  1.00  0.00     0.257 C 
HETATM   27  N   UNL     1      41.222  -8.262  -2.422  1.00  0.00    -0.352 N 
HETATM   28  H   UNL     1      41.056  -8.069  -1.434  1.00  0.00     0.163 HD
HETATM   29  O   UNL     1      41.067  -9.873  -4.041  1.00  0.00    -0.267 OA
BRANCH  27  30
HETATM   30  C   UNL     1      41.387  -7.125  -3.317  1.00  0.00     0.084 C 
HETATM   31  C   UNL     1      40.655  -5.889  -2.775  1.00  0.00     0.025 C 
HETATM   32  C   UNL     1      41.336  -5.301  -1.539  1.00  0.00     0.002 C 
HETATM   33  C   UNL     1      42.809  -4.999  -1.796  1.00  0.00     0.000 C 
HETATM   34  C   UNL     1      43.558  -6.224  -2.311  1.00  0.00     0.002 C 
HETATM   35  C   UNL     1      42.877  -6.830  -3.540  1.00  0.00     0.025 C 
ENDBRANCH  27  30
ENDBRANCH   4  26
BRANCH   6  36
HETATM   36  C   UNL     1      38.745 -13.676  -1.535  1.00  0.00     0.089 A 
HETATM   37  C   UNL     1      38.219 -13.811  -2.940  1.00  0.00     0.028 A 
HETATM   38  C   UNL     1      39.294 -14.735  -2.455  1.00  0.00     0.028 A 
ENDBRANCH   6  36
TORSDOF 7
ENDMDL
MODEL 6
REMARK VINA RESULT:      -9.0      2.845     10.750
REMARK  7 active torsions:
REMARK  status: ('A' for Active; 'I' for Inactive)
REMARK    1  A    between atoms: C_2  and  N_3 
REMARK    2  A    between atoms: C_2  and  C_25 
REMARK       I    between atoms: N_3  and  C_4 
REMARK    3  A    between atoms: C_4  and  C_5 
REMARK    4  A    between atoms: C_8  and  C_9 
REMARK       I    between atoms: C_9  and  N_10 
REMARK    5  A    between atoms: N_10  and  C_11 
REMARK    6  A    between atoms: N_19  and  C_20 
REMARK    7  A    between atoms: C_33  and  O_34 
ROOT
HETATM    1  C   UNL     1      42.937 -10.512   6.621  1.00  0.00     0.098 A 
HETATM    2  C   UNL     1      43.048 -11.275   5.339  1.00  0.00     0.206 A 
HETATM    3  O   UNL     1      43.798 -12.250   5.252  1.00  0.00    -0.286 OA
HETATM    4  C   UNL     1      42.224 -10.845   4.171  1.00  0.00     0.098 A 
HETATM    5  C   UNL     1      41.452  -9.758   4.344  1.00  0.00     0.112 A 
HETATM    6  N   UNL     1      41.397  -9.034   5.519  1.00  0.00    -0.360 N 
HETATM    7  C   UNL     1      42.108  -9.454   6.625  1.00  0.00     0.112 A 
ENDROOT
BRANCH   1   8
HETATM    8  C   UNL     1      43.685 -10.853   7.866  1.00  0.00     0.257 C 
HETATM    9  N   UNL     1      43.342 -10.104   8.957  1.00  0.00    -0.348 N 
HETATM   10  H   UNL     1      42.630  -9.385   8.840  1.00  0.00     0.163 HD
HETATM   11  O   UNL     1      44.530 -11.742   7.896  1.00  0.00    -0.267 OA
BRANCH   9  12
HETATM   12  C   UNL     1      43.912 -10.265  10.282  1.00  0.00     0.114 C 
HETATM   13  C   UNL     1      45.319  -9.673  10.358  1.00  0.00     0.037 C 
BRANCH  12  14
HETATM   14  C   UNL     1      42.969  -9.633  11.295  1.00  0.00    -0.035 A 
HETATM   15  C   UNL     1      43.454  -8.801  12.321  1.00  0.00     0.021 A 
HETATM   16  C   UNL     1      42.583  -8.127  13.192  1.00  0.00    -0.025 A 
HETATM   17  C   UNL     1      41.192  -8.303  13.049  1.00  0.00    -0.023 A 
HETATM   18  C   UNL     1      43.066  -7.267  14.190  1.00  0.00     0.015 A 
HETATM   19  C   UNL     1      40.709  -9.154  12.043  1.00  0.00     0.013 A 
HETATM   20  C   UNL     1      40.323  -7.611  13.910  1.00  0.00     0.049 A 
HETATM   21  C   UNL     1      41.587  -9.805  11.172  1.00  0.00     0.010 A 
HETATM   22  C   UNL     1      40.811  -6.745  14.893  1.00  0.00     0.069 A 
HETATM   23  C   UNL     1      42.187  -6.579  15.033  1.00  0.00     0.037 A 
BRANCH  22  24
HETATM   24  O   UNL     1      39.847  -6.130  15.643  1.00  0.00    -0.356 OA
HETATM   25  C   UNL     1      38.653  -5.753  14.969  1.00  0.00     0.210 C 
ENDBRANCH  22  24
ENDBRANCH  12  14
ENDBRANCH   9  12
ENDBRANCH   1   8
BRANCH   4  26
HETATM   26  C   UNL     1      42.205 -11.545   2.854  1.00  0.00     0.257 C 
HETATM   27  N   UNL     1      42.030 -12.905   2.923  1.00  0.00    -0.352 N 
HETATM   28  H   UNL     1      42.037 -13.334   3.848  1.00  0.00     0.163 HD
HETATM   29  O   UNL     1      42.338 -10.936   1.797  1.00  0.00    -0.267 OA
BRANCH  27  30
HETATM   30  C   UNL     1      42.109 -13.787   1.767  1.00  0.00     0.084 C 
HETATM   31  C   UNL     1      43.338 -14.702   1.857  1.00  0.00     0.025 C 
HETATM   32  C   UNL     1      43.195 -15.769   2.942  1.00  0.00     0.002 C 
HETATM   33  C   UNL     1      41.916 -16.582   2.769  1.00  0.00     0.000 C 
HETATM   34  C   UNL     1      40.681 -15.690   2.703  1.00  0.00     0.002 C 
HETATM   35  C   UNL     1      40.819 -14.608   1.629  1.00  0.00     0.025 C 
ENDBRANCH  27  30
ENDBRANCH   4  26
BRANCH   6  36
HETATM   36  C   UNL     1      40.418  -7.946   5.651  1.00  0.00     0.089 A 
HETATM   37  C   UNL     1      39.138  -7.921   4.857  1.00  0.00     0.028 A 
HETATM   38  C   UNL     1      39.092  -8.160   6.335  1.00  0.00     0.028 A 
ENDBRANCH   6  36
TORSDOF 7
ENDMDL
MODEL 7
REMARK VINA RESULT:      -8.7      3.189      7.111
REMARK  7 active torsions:
REMARK  status: ('A' for Active; 'I' for Inactive)
REMARK    1  A    between atoms: C_2  and  N_3 
REMARK    2  A    between atoms: C_2  and  C_25 
REMARK       I    between atoms: N_3  and  C_4 
REMARK    3  A    between atoms: C_4  and  C_5 
REMARK    4  A    between atoms: C_8  and  C_9 
REMARK       I    between atoms: C_9  and  N_10 
REMARK    5  A    between atoms: N_10  and  C_11 
REMARK    6  A    between atoms: N_19  and  C_20 
REMARK    7  A    between atoms: C_33  and  O_34 
ROOT
HETATM    1  C   UNL     1      42.095 -10.380   5.833  1.00  0.00     0.098 A 
HETATM    2  C   UNL     1      41.990 -11.872   5.801  1.00  0.00     0.206 A 
HETATM    3  O   UNL     1      41.110 -12.426   5.139  1.00  0.00    -0.286 OA
HETATM    4  C   UNL     1      42.980 -12.681   6.573  1.00  0.00     0.098 A 
HETATM    5  C   UNL     1      43.892 -11.997   7.287  1.00  0.00     0.112 A 
HETATM    6  N   UNL     1      43.946 -10.618   7.347  1.00  0.00    -0.360 N 
HETATM    7  C   UNL     1      43.074  -9.858   6.591  1.00  0.00     0.112 A 
ENDROOT
BRANCH   1   8
HETATM    8  C   UNL     1      41.186  -9.461   5.088  1.00  0.00     0.257 C 
HETATM    9  N   UNL     1      41.031  -9.767   3.764  1.00  0.00    -0.348 N 
HETATM   10  H   UNL     1      41.539 -10.568   3.394  1.00  0.00     0.163 HD
HETATM   11  O   UNL     1      40.623  -8.517   5.633  1.00  0.00    -0.267 OA
BRANCH   9  12
HETATM   12  C   UNL     1      40.182  -9.035   2.842  1.00  0.00     0.114 C 
HETATM   13  C   UNL     1      40.686  -7.607   2.635  1.00  0.00     0.037 C 
BRANCH  12  14
HETATM   14  C   UNL     1      40.106  -9.811   1.536  1.00  0.00    -0.035 A 
HETATM   15  C   UNL     1      40.361 -11.195   1.494  1.00  0.00     0.021 A 
HETATM   16  C   UNL     1      40.187 -11.938   0.316  1.00  0.00    -0.025 A 
HETATM   17  C   UNL     1      39.767 -11.281  -0.859  1.00  0.00    -0.023 A 
HETATM   18  C   UNL     1      40.403 -13.324   0.286  1.00  0.00     0.015 A 
HETATM   19  C   UNL     1      39.539  -9.896  -0.825  1.00  0.00     0.013 A 
HETATM   20  C   UNL     1      39.574 -12.032  -2.030  1.00  0.00     0.049 A 
HETATM   21  C   UNL     1      39.699  -9.172   0.360  1.00  0.00     0.010 A 
HETATM   22  C   UNL     1      39.779 -13.415  -2.049  1.00  0.00     0.069 A 
HETATM   23  C   UNL     1      40.199 -14.058  -0.887  1.00  0.00     0.037 A 
BRANCH  22  24
HETATM   24  O   UNL     1      39.536 -14.012  -3.255  1.00  0.00    -0.356 OA
HETATM   25  C   UNL     1      38.256 -14.607  -3.431  1.00  0.00     0.210 C 
ENDBRANCH  22  24
ENDBRANCH  12  14
ENDBRANCH   9  12
ENDBRANCH   1   8
BRANCH   4  26
HETATM   26  C   UNL     1      43.016 -14.171   6.589  1.00  0.00     0.257 C 
HETATM   27  N   UNL     1      42.895 -14.767   5.357  1.00  0.00    -0.352 N 
HETATM   28  H   UNL     1      42.683 -14.164   4.562  1.00  0.00     0.163 HD
HETATM   29  O   UNL     1      43.146 -14.803   7.633  1.00  0.00    -0.267 OA
BRANCH  27  30
HETATM   30  C   UNL     1      42.778 -16.206   5.167  1.00  0.00     0.084 C 
HETATM   31  C   UNL     1      41.314 -16.614   4.953  1.00  0.00     0.025 C 
HETATM   32  C   UNL     1      40.773 -16.165   3.596  1.00  0.00     0.002 C 
HETATM   33  C   UNL     1      41.653 -16.652   2.448  1.00  0.00     0.000 C 
HETATM   34  C   UNL     1      43.107 -16.232   2.632  1.00  0.00     0.002 C 
HETATM   35  C   UNL     1      43.655 -16.664   3.993  1.00  0.00     0.025 C 
ENDBRANCH  27  30
ENDBRANCH   4  26
BRANCH   6  36
HETATM   36  C   UNL     1      45.064  -9.969   8.043  1.00  0.00     0.089 A 
HETATM   37  C   UNL     1      44.967  -8.562   8.575  1.00  0.00     0.028 A 
HETATM   38  C   UNL     1      45.025  -9.716   9.528  1.00  0.00     0.028 A 
ENDBRANCH   6  36
TORSDOF 7
ENDMDL
MODEL 8
REMARK VINA RESULT:      -8.6      1.501      2.476
REMARK  7 active torsions:
REMARK  status: ('A' for Active; 'I' for Inactive)
REMARK    1  A    between atoms: C_2  and  N_3 
REMARK    2  A    between atoms: C_2  and  C_25 
REMARK       I    between atoms: N_3  and  C_4 
REMARK    3  A    between atoms: C_4  and  C_5 
REMARK    4  A    between atoms: C_8  and  C_9 
REMARK       I    between atoms: C_9  and  N_10 
REMARK    5  A    between atoms: N_10  and  C_11 
REMARK    6  A    between atoms: N_19  and  C_20 
REMARK    7  A    between atoms: C_33  and  O_34 
ROOT
HETATM    1  C   UNL     1      41.905  -9.634   7.868  1.00  0.00     0.098 A 
HETATM    2  C   UNL     1      41.597  -8.478   8.765  1.00  0.00     0.206 A 
HETATM    3  O   UNL     1      40.451  -8.027   8.839  1.00  0.00    -0.286 OA
HETATM    4  C   UNL     1      42.698  -7.887   9.584  1.00  0.00     0.098 A 
HETATM    5  C   UNL     1      43.921  -8.422   9.426  1.00  0.00     0.112 A 
HETATM    6  N   UNL     1      44.201  -9.458   8.556  1.00  0.00    -0.360 N 
HETATM    7  C   UNL     1      43.182 -10.052   7.838  1.00  0.00     0.112 A 
ENDROOT
BRANCH   1   8
HETATM    8  C   UNL     1      40.893 -10.329   7.020  1.00  0.00     0.257 C 
HETATM    9  N   UNL     1      41.391 -11.363   6.277  1.00  0.00    -0.348 N 
HETATM   10  H   UNL     1      42.386 -11.570   6.347  1.00  0.00     0.163 HD
HETATM   11  O   UNL     1      39.713  -9.994   7.007  1.00  0.00    -0.267 OA
BRANCH   9  12
HETATM   12  C   UNL     1      40.599 -12.202   5.395  1.00  0.00     0.114 C 
HETATM   13  C   UNL     1      40.299 -11.494   4.075  1.00  0.00     0.037 C 
BRANCH  12  14
HETATM   14  C   UNL     1      41.337 -13.515   5.187  1.00  0.00    -0.035 A 
HETATM   15  C   UNL     1      41.044 -14.349   4.090  1.00  0.00     0.021 A 
HETATM   16  C   UNL     1      41.794 -15.508   3.830  1.00  0.00    -0.025 A 
HETATM   17  C   UNL     1      42.850 -15.856   4.696  1.00  0.00    -0.023 A 
HETATM   18  C   UNL     1      41.526 -16.317   2.714  1.00  0.00     0.015 A 
HETATM   19  C   UNL     1      43.124 -15.040   5.804  1.00  0.00     0.013 A 
HETATM   20  C   UNL     1      43.610 -17.005   4.419  1.00  0.00     0.049 A 
HETATM   21  C   UNL     1      42.382 -13.880   6.042  1.00  0.00     0.010 A 
HETATM   22  C   UNL     1      43.346 -17.799   3.299  1.00  0.00     0.069 A 
HETATM   23  C   UNL     1      42.298 -17.453   2.449  1.00  0.00     0.037 A 
BRANCH  22  24
HETATM   24  O   UNL     1      44.179 -18.874   3.151  1.00  0.00    -0.356 OA
HETATM   25  C   UNL     1      43.703 -19.951   2.355  1.00  0.00     0.210 C 
ENDBRANCH  22  24
ENDBRANCH  12  14
ENDBRANCH   9  12
ENDBRANCH   1   8
BRANCH   4  26
HETATM   26  C   UNL     1      42.516  -6.767  10.551  1.00  0.00     0.257 C 
HETATM   27  N   UNL     1      42.525  -7.134  11.874  1.00  0.00    -0.352 N 
HETATM   28  H   UNL     1      42.543  -8.132  12.084  1.00  0.00     0.163 HD
HETATM   29  O   UNL     1      42.370  -5.607  10.175  1.00  0.00    -0.267 OA
BRANCH  27  30
HETATM   30  C   UNL     1      42.237  -6.216  12.967  1.00  0.00     0.084 C 
HETATM   31  C   UNL     1      40.723  -6.060  13.169  1.00  0.00     0.025 C 
HETATM   32  C   UNL     1      40.078  -7.316  13.756  1.00  0.00     0.002 C 
HETATM   33  C   UNL     1      40.763  -7.751  15.048  1.00  0.00     0.000 C 
HETATM   34  C   UNL     1      42.265  -7.936  14.859  1.00  0.00     0.002 C 
HETATM   35  C   UNL     1      42.920  -6.690  14.258  1.00  0.00     0.025 C 
ENDBRANCH  27  30
ENDBRANCH   4  26
BRANCH   6  36
HETATM   36  C   UNL     1      45.539 -10.062   8.560  1.00  0.00     0.089 A 
HETATM   37  C   UNL     1      46.092 -10.789   7.362  1.00  0.00     0.028 A 
HETATM   38  C   UNL     1      46.673  -9.468   7.763  1.00  0.00     0.028 A 
ENDBRANCH   6  36
TORSDOF 7
ENDMDL
MODEL 9
REMARK VINA RESULT:      -8.5      4.399      9.504
REMARK  7 active torsions:
REMARK  status: ('A' for Active; 'I' for Inactive)
REMARK    1  A    between atoms: C_2  and  N_3 
REMARK    2  A    between atoms: C_2  and  C_25 
REMARK       I    between atoms: N_3  and  C_4 
REMARK    3  A    between atoms: C_4  and  C_5 
REMARK    4  A    between atoms: C_8  and  C_9 
REMARK       I    between atoms: C_9  and  N_10 
REMARK    5  A    between atoms: N_10  and  C_11 
REMARK    6  A    between atoms: N_19  and  C_20 
REMARK    7  A    between atoms: C_33  and  O_34 
ROOT
HETATM    1  C   UNL     1      40.020 -13.730   0.501  1.00  0.00     0.098 A 
HETATM    2  C   UNL     1      40.145 -12.273   0.814  1.00  0.00     0.206 A 
HETATM    3  O   UNL     1      40.560 -11.901   1.914  1.00  0.00    -0.286 OA
HETATM    4  C   UNL     1      39.772 -11.276  -0.233  1.00  0.00     0.098 A 
HETATM    5  C   UNL     1      39.307 -11.766  -1.395  1.00  0.00     0.112 A 
HETATM    6  N   UNL     1      39.150 -13.114  -1.653  1.00  0.00    -0.360 N 
HETATM    7  C   UNL     1      39.545 -14.048  -0.716  1.00  0.00     0.112 A 
ENDROOT
BRANCH   1   8
HETATM    8  C   UNL     1      40.382 -14.825   1.447  1.00  0.00     0.257 C 
HETATM    9  N   UNL     1      41.718 -14.919   1.722  1.00  0.00    -0.348 N 
HETATM   10  H   UNL     1      42.349 -14.262   1.266  1.00  0.00     0.163 HD
HETATM   11  O   UNL     1      39.537 -15.567   1.939  1.00  0.00    -0.267 OA
BRANCH   9  12
HETATM   12  C   UNL     1      42.308 -15.886   2.629  1.00  0.00     0.114 C 
HETATM   13  C   UNL     1      43.403 -16.700   1.940  1.00  0.00     0.037 C 
BRANCH  12  14
HETATM   14  C   UNL     1      42.828 -15.148   3.853  1.00  0.00    -0.035 A 
HETATM   15  C   UNL     1      42.881 -13.741   3.886  1.00  0.00     0.021 A 
HETATM   16  C   UNL     1      43.255 -13.049   5.049  1.00  0.00    -0.025 A 
HETATM   17  C   UNL     1      43.606 -13.778   6.204  1.00  0.00    -0.023 A 
HETATM   18  C   UNL     1      43.270 -11.646   5.093  1.00  0.00     0.015 A 
HETATM   19  C   UNL     1      43.579 -15.181   6.162  1.00  0.00     0.013 A 
HETATM   20  C   UNL     1      43.960 -13.081   7.371  1.00  0.00     0.049 A 
HETATM   21  C   UNL     1      43.188 -15.857   5.003  1.00  0.00     0.010 A 
HETATM   22  C   UNL     1      43.960 -11.683   7.411  1.00  0.00     0.069 A 
HETATM   23  C   UNL     1      43.618 -10.968   6.266  1.00  0.00     0.037 A 
BRANCH  22  24
HETATM   24  O   UNL     1      44.310 -11.147   8.620  1.00  0.00    -0.356 OA
HETATM   25  C   UNL     1      43.541 -10.042   9.079  1.00  0.00     0.210 C 
ENDBRANCH  22  24
ENDBRANCH  12  14
ENDBRANCH   9  12
ENDBRANCH   1   8
BRANCH   4  26
HETATM   26  C   UNL     1      39.894  -9.799  -0.066  1.00  0.00     0.257 C 
HETATM   27  N   UNL     1      40.338  -9.125  -1.176  1.00  0.00    -0.352 N 
HETATM   28  H   UNL     1      40.649  -9.682  -1.972  1.00  0.00     0.163 HD
HETATM   29  O   UNL     1      39.614  -9.244   0.992  1.00  0.00    -0.267 OA
BRANCH  27  30
HETATM   30  C   UNL     1      40.647  -7.701  -1.184  1.00  0.00     0.084 C 
HETATM   31  C   UNL     1      42.072  -7.445  -0.675  1.00  0.00     0.025 C 
HETATM   32  C   UNL     1      43.140  -7.911  -1.665  1.00  0.00     0.002 C 
HETATM   33  C   UNL     1      42.932  -7.300  -3.048  1.00  0.00     0.000 C 
HETATM   34  C   UNL     1      41.528  -7.567  -3.581  1.00  0.00     0.002 C 
HETATM   35  C   UNL     1      40.451  -7.118  -2.591  1.00  0.00     0.025 C 
ENDBRANCH  27  30
ENDBRANCH   4  26
BRANCH   6  36
HETATM   36  C   UNL     1      38.765 -13.551  -3.001  1.00  0.00     0.089 A 
HETATM   37  C   UNL     1      38.378 -14.976  -3.301  1.00  0.00     0.028 A 
HETATM   38  C   UNL     1      37.337 -13.899  -3.337  1.00  0.00     0.028 A 
ENDBRANCH   6  36
TORSDOF 7
ENDMDL
MODEL 10
REMARK VINA RESULT:      -8.5      3.179      8.892
REMARK  7 active torsions:
REMARK  status: ('A' for Active; 'I' for Inactive)
REMARK    1  A    between atoms: C_2  and  N_3 
REMARK    2  A    between atoms: C_2  and  C_25 
REMARK       I    between atoms: N_3  and  C_4 
REMARK    3  A    between atoms: C_4  and  C_5 
REMARK    4  A    between atoms: C_8  and  C_9 
REMARK       I    between atoms: C_9  and  N_10 
REMARK    5  A    between atoms: N_10  and  C_11 
REMARK    6  A    between atoms: N_19  and  C_20 
REMARK    7  A    between atoms: C_33  and  O_34 
ROOT
HETATM    1  C   UNL     1      40.916 -11.573   1.036  1.00  0.00     0.098 A 
HETATM    2  C   UNL     1      41.343 -12.745   1.861  1.00  0.00     0.206 A 
HETATM    3  O   UNL     1      41.830 -12.580   2.982  1.00  0.00    -0.286 OA
HETATM    4  C   UNL     1      41.156 -14.121   1.311  1.00  0.00     0.098 A 
HETATM    5  C   UNL     1      40.640 -14.210   0.073  1.00  0.00     0.112 A 
HETATM    6  N   UNL     1      40.296 -13.117  -0.698  1.00  0.00    -0.360 N 
HETATM    7  C   UNL     1      40.409 -11.842  -0.179  1.00  0.00     0.112 A 
ENDROOT
BRANCH   1   8
HETATM    8  C   UNL     1      41.025 -10.153   1.479  1.00  0.00     0.257 C 
HETATM    9  N   UNL     1      40.776  -9.952   2.808  1.00  0.00    -0.348 N 
HETATM   10  H   UNL     1      40.532 -10.761   3.378  1.00  0.00     0.163 HD
HETATM   11  O   UNL     1      41.324  -9.250   0.704  1.00  0.00    -0.267 OA
BRANCH   9  12
HETATM   12  C   UNL     1      40.843  -8.665   3.476  1.00  0.00     0.114 C 
HETATM   13  C   UNL     1      39.471  -7.994   3.530  1.00  0.00     0.037 C 
BRANCH  12  14
HETATM   14  C   UNL     1      41.435  -8.870   4.862  1.00  0.00    -0.035 A 
HETATM   15  C   UNL     1      42.109 -10.060   5.198  1.00  0.00     0.021 A 
HETATM   16  C   UNL     1      42.752 -10.214   6.436  1.00  0.00    -0.025 A 
HETATM   17  C   UNL     1      42.707  -9.162   7.373  1.00  0.00    -0.023 A 
HETATM   18  C   UNL     1      43.456 -11.385   6.754  1.00  0.00     0.015 A 
HETATM   19  C   UNL     1      42.013  -7.985   7.049  1.00  0.00     0.013 A 
HETATM   20  C   UNL     1      43.370  -9.312   8.603  1.00  0.00     0.049 A 
HETATM   21  C   UNL     1      41.391  -7.839   5.806  1.00  0.00     0.010 A 
HETATM   22  C   UNL     1      44.080 -10.477   8.908  1.00  0.00     0.069 A 
HETATM   23  C   UNL     1      44.118 -11.516   7.980  1.00  0.00     0.037 A 
BRANCH  22  24
HETATM   24  O   UNL     1      44.688 -10.472  10.133  1.00  0.00    -0.356 OA
HETATM   25  C   UNL     1      44.030  -9.759  11.173  1.00  0.00     0.210 C 
ENDBRANCH  22  24
ENDBRANCH  12  14
ENDBRANCH   9  12
ENDBRANCH   1   8
BRANCH   4  26
HETATM   26  C   UNL     1      41.494 -15.372   2.047  1.00  0.00     0.257 C 
HETATM   27  N   UNL     1      41.172 -15.365   3.382  1.00  0.00    -0.352 N 
HETATM   28  H   UNL     1      40.837 -14.488   3.780  1.00  0.00     0.163 HD
HETATM   29  O   UNL     1      42.022 -16.329   1.487  1.00  0.00    -0.267 OA
BRANCH  27  30
HETATM   30  C   UNL     1      41.533 -16.433   4.304  1.00  0.00     0.084 C 
HETATM   31  C   UNL     1      42.995 -16.301   4.753  1.00  0.00     0.025 C 
HETATM   32  C   UNL     1      43.214 -15.113   5.690  1.00  0.00     0.002 C 
HETATM   33  C   UNL     1      42.273 -15.160   6.890  1.00  0.00     0.000 C 
HETATM   34  C   UNL     1      40.813 -15.266   6.462  1.00  0.00     0.002 C 
HETATM   35  C   UNL     1      40.584 -16.443   5.511  1.00  0.00     0.025 C 
ENDBRANCH  27  30
ENDBRANCH   4  26
BRANCH   6  36
HETATM   36  C   UNL     1      39.613 -13.324  -1.982  1.00  0.00     0.089 A 
HETATM   37  C   UNL     1      38.992 -14.646  -2.353  1.00  0.00     0.028 A 
HETATM   38  C   UNL     1      38.114 -13.468  -2.060  1.00  0.00     0.028 A 
ENDBRANCH   6  36
TORSDOF 7
ENDMDL
