MODEL 1
REMARK VINA RESULT:      -8.2      0.000      0.000
REMARK  7 active torsions:
REMARK  status: ('A' for Active; 'I' for Inactive)
REMARK    1  A    between atoms: C_2  and  C_3 
REMARK    2  A    between atoms: C_3  and  C_4 
REMARK    3  A    between atoms: C_3  and  C_12 
REMARK    4  A    between atoms: C_7  and  O_8 
REMARK    5  A    between atoms: C_12  and  C_13 
REMARK       I    between atoms: C_13  and  N_14 
REMARK    6  A    between atoms: N_14  and  C_15 
REMARK    7  A    between atoms: C_22  and  C_23 
REMARK       I    between atoms: C_23  and  N_24 
ROOT
HETATM    1  C   UNL     1      43.424 -16.422   5.767  1.00  0.00     0.222 C 
HETATM    2  N   UNL     1      43.693 -15.172   5.247  1.00  0.00    -0.327 N 
HETATM    3  O   UNL     1      42.694 -16.664   6.725  1.00  0.00    -0.273 OA
HETATM    4  H   UNL     1      44.329 -15.126   4.466  1.00  0.00     0.169 HD
ENDROOT
BRANCH   2   5
HETATM    5  C   UNL     1      43.253 -13.921   5.734  1.00  0.00     0.035 A 
HETATM    6  C   UNL     1      44.043 -13.058   6.506  1.00  0.00     0.046 A 
HETATM    7  C   UNL     1      43.507 -11.827   6.947  1.00  0.00     0.030 A 
HETATM    8  C   UNL     1      42.205 -11.498   6.593  1.00  0.00     0.063 A 
HETATM    9  C   UNL     1      43.967 -10.723   7.727  1.00  0.00     0.156 A 
HETATM   10  N   UNL     1      41.977 -10.270   7.146  1.00  0.00    -0.277 N 
HETATM   11  C   UNL     1      41.390 -12.331   5.825  1.00  0.00     0.034 A 
HETATM   12  H   UNL     1      41.129  -9.719   7.090  1.00  0.00     0.189 HD
HETATM   13  N   UNL     1      43.013  -9.770   7.840  1.00  0.00    -0.168 NA
HETATM   14  C   UNL     1      41.941 -13.548   5.408  1.00  0.00     0.032 A 
BRANCH   9  15
HETATM   15  C   UNL     1      45.281 -10.560   8.365  1.00  0.00     0.270 C 
HETATM   16  N   UNL     1      46.264 -10.133   7.514  1.00  0.00    -0.365 N 
HETATM   17  H   UNL     1      46.026  -9.964   6.544  1.00  0.00     0.159 HD
HETATM   18  H   UNL     1      47.197  -9.986   7.865  1.00  0.00     0.159 HD
HETATM   19  O   UNL     1      45.517 -10.769   9.549  1.00  0.00    -0.266 OA
ENDBRANCH   9  15
ENDBRANCH   2   5
BRANCH   1  20
HETATM   20  C   UNL     1      44.050 -17.584   4.998  1.00  0.00     0.112 C 
BRANCH  20  21
HETATM   21  C   UNL     1      43.272 -18.099   3.771  1.00  0.00     0.027 C 
BRANCH  21  22
HETATM   22  C   UNL     1      44.109 -19.070   2.905  1.00  0.00     0.005 C 
HETATM   23  C   UNL     1      43.327 -20.079   2.074  1.00  0.00     0.006 C 
ENDBRANCH  21  22
BRANCH  21  24
HETATM   24  C   UNL     1      42.615 -17.013   2.935  1.00  0.00    -0.053 A 
HETATM   25  C   UNL     1      41.265 -16.668   3.075  1.00  0.00     0.010 A 
HETATM   26  C   UNL     1      40.693 -15.692   2.255  1.00  0.00     0.037 A 
HETATM   27  C   UNL     1      41.448 -15.051   1.273  1.00  0.00     0.068 A 
HETATM   28  C   UNL     1      42.799 -15.364   1.144  1.00  0.00     0.037 A 
HETATM   29  C   UNL     1      43.377 -16.333   1.971  1.00  0.00     0.010 A 
BRANCH  27  30
HETATM   30  O   UNL     1      40.767 -14.133   0.523  1.00  0.00    -0.356 OA
HETATM   31  C   UNL     1      39.801 -14.655  -0.383  1.00  0.00     0.210 C 
ENDBRANCH  27  30
ENDBRANCH  21  24
ENDBRANCH  20  21
ENDBRANCH   1  20
TORSDOF 7
ENDMDL
MODEL 2
REMARK VINA RESULT:      -8.0      2.231      4.376
REMARK  7 active torsions:
REMARK  status: ('A' for Active; 'I' for Inactive)
REMARK    1  A    between atoms: C_2  and  C_3 
REMARK    2  A    between atoms: C_3  and  C_4 
REMARK    3  A    between atoms: C_3  and  C_12 
REMARK    4  A    between atoms: C_7  and  O_8 
REMARK    5  A    between atoms: C_12  and  C_13 
REMARK       I    between atoms: C_13  and  N_14 
REMARK    6  A    between atoms: N_14  and  C_15 
REMARK    7  A    between atoms: C_22  and  C_23 
REMARK       I    between atoms: C_23  and  N_24 
ROOT
HETATM    1  C   UNL     1      42.678 -13.033   4.662  1.00  0.00     0.222 C 
HETATM    2  N   UNL     1      43.368 -13.258   5.836  1.00  0.00    -0.327 N 
HETATM    3  O   UNL     1      42.605 -11.965   4.060  1.00  0.00    -0.273 OA
HETATM    4  H   UNL     1      43.322 -14.187   6.225  1.00  0.00     0.169 HD
ENDROOT
BRANCH   2   5
HETATM    5  C   UNL     1      44.065 -12.313   6.622  1.00  0.00     0.035 A 
HETATM    6  C   UNL     1      43.622 -11.849   7.868  1.00  0.00     0.046 A 
HETATM    7  C   UNL     1      44.395 -10.900   8.575  1.00  0.00     0.030 A 
HETATM    8  C   UNL     1      45.586 -10.456   8.016  1.00  0.00     0.063 A 
HETATM    9  C   UNL     1      44.287 -10.202   9.816  1.00  0.00     0.156 A 
HETATM   10  N   UNL     1      46.102  -9.569   8.918  1.00  0.00    -0.277 N 
HETATM   11  C   UNL     1      46.060 -10.897   6.780  1.00  0.00     0.034 A 
HETATM   12  H   UNL     1      46.969  -9.049   8.842  1.00  0.00     0.189 HD
HETATM   13  N   UNL     1      45.348  -9.386  10.014  1.00  0.00    -0.168 NA
HETATM   14  C   UNL     1      45.272 -11.830   6.095  1.00  0.00     0.032 A 
BRANCH   9  15
HETATM   15  C   UNL     1      43.203 -10.290  10.805  1.00  0.00     0.270 C 
HETATM   16  N   UNL     1      43.412 -11.231  11.777  1.00  0.00    -0.365 N 
HETATM   17  H   UNL     1      44.266 -11.775  11.750  1.00  0.00     0.159 HD
HETATM   18  H   UNL     1      42.725 -11.358  12.503  1.00  0.00     0.159 HD
HETATM   19  O   UNL     1      42.191  -9.600  10.801  1.00  0.00    -0.266 OA
ENDBRANCH   9  15
ENDBRANCH   2   5
BRANCH   1  20
HETATM   20  C   UNL     1      42.031 -14.276   4.052  1.00  0.00     0.112 C 
BRANCH  20  21
HETATM   21  C   UNL     1      42.801 -14.964   2.908  1.00  0.00     0.027 C 
BRANCH  21  22
HETATM   22  C   UNL     1      42.080 -14.833   1.546  1.00  0.00     0.005 C 
HETATM   23  C   UNL     1      40.562 -14.952   1.571  1.00  0.00     0.006 C 
ENDBRANCH  21  22
BRANCH  21  24
HETATM   24  C   UNL     1      43.216 -16.398   3.197  1.00  0.00    -0.053 A 
HETATM   25  C   UNL     1      43.119 -17.416   2.241  1.00  0.00     0.010 A 
HETATM   26  C   UNL     1      43.473 -18.729   2.563  1.00  0.00     0.037 A 
HETATM   27  C   UNL     1      43.915 -19.056   3.845  1.00  0.00     0.068 A 
HETATM   28  C   UNL     1      44.044 -18.046   4.796  1.00  0.00     0.037 A 
HETATM   29  C   UNL     1      43.701 -16.729   4.473  1.00  0.00     0.010 A 
BRANCH  27  30
HETATM   30  O   UNL     1      44.208 -20.377   4.040  1.00  0.00    -0.356 OA
HETATM   31  C   UNL     1      44.023 -20.873   5.360  1.00  0.00     0.210 C 
ENDBRANCH  27  30
ENDBRANCH  21  24
ENDBRANCH  20  21
ENDBRANCH   1  20
TORSDOF 7
ENDMDL
MODEL 3
REMARK VINA RESULT:      -8.0      2.299      4.516
REMARK  7 active torsions:
REMARK  status: ('A' for Active; 'I' for Inactive)
REMARK    1  A    between atoms: C_2  and  C_3 
REMARK    2  A    between atoms: C_3  and  C_4 
REMARK    3  A    between atoms: C_3  and  C_12 
REMARK    4  A    between atoms: C_7  and  O_8 
REMARK    5  A    between atoms: C_12  and  C_13 
REMARK       I    between atoms: C_13  and  N_14 
REMARK    6  A    between atoms: N_14  and  C_15 
REMARK    7  A    between atoms: C_22  and  C_23 
REMARK       I    between atoms: C_23  and  N_24 
ROOT
HETATM    1  C   UNL     1      42.800 -13.018   4.392  1.00  0.00     0.222 C 
HETATM    2  N   UNL     1      42.902 -12.817   5.754  1.00  0.00    -0.327 N 
HETATM    3  O   UNL     1      43.395 -12.387   3.522  1.00  0.00    -0.273 OA
HETATM    4  H   UNL     1      42.337 -13.403   6.349  1.00  0.00     0.169 HD
ENDROOT
BRANCH   2   5
HETATM    5  C   UNL     1      43.641 -11.818   6.427  1.00  0.00     0.035 A 
HETATM    6  C   UNL     1      43.109 -10.585   6.827  1.00  0.00     0.046 A 
HETATM    7  C   UNL     1      43.935  -9.651   7.494  1.00  0.00     0.030 A 
HETATM    8  C   UNL     1      45.259  -9.987   7.743  1.00  0.00     0.063 A 
HETATM    9  C   UNL     1      43.780  -8.338   8.031  1.00  0.00     0.156 A 
HETATM   10  N   UNL     1      45.791  -8.910   8.395  1.00  0.00    -0.277 N 
HETATM   11  C   UNL     1      45.823 -11.205   7.361  1.00  0.00     0.034 A 
HETATM   12  H   UNL     1      46.740  -8.804   8.735  1.00  0.00     0.189 HD
HETATM   13  N   UNL     1      44.932  -7.895   8.585  1.00  0.00    -0.168 NA
HETATM   14  C   UNL     1      44.987 -12.109   6.695  1.00  0.00     0.032 A 
BRANCH   9  15
HETATM   15  C   UNL     1      42.571  -7.502   8.024  1.00  0.00     0.270 C 
HETATM   16  N   UNL     1      41.662  -7.830   8.993  1.00  0.00    -0.365 N 
HETATM   17  H   UNL     1      41.878  -8.593   9.623  1.00  0.00     0.159 HD
HETATM   18  H   UNL     1      40.805  -7.306   9.070  1.00  0.00     0.159 HD
HETATM   19  O   UNL     1      42.359  -6.580   7.246  1.00  0.00    -0.266 OA
ENDBRANCH   9  15
ENDBRANCH   2   5
BRANCH   1  20
HETATM   20  C   UNL     1      41.918 -14.197   3.984  1.00  0.00     0.112 C 
BRANCH  20  21
HETATM   21  C   UNL     1      42.460 -15.110   2.866  1.00  0.00     0.027 C 
BRANCH  21  22
HETATM   22  C   UNL     1      41.410 -15.379   1.762  1.00  0.00     0.005 C 
HETATM   23  C   UNL     1      39.964 -15.508   2.221  1.00  0.00     0.006 C 
ENDBRANCH  21  22
BRANCH  21  24
HETATM   24  C   UNL     1      43.112 -16.392   3.355  1.00  0.00    -0.053 A 
HETATM   25  C   UNL     1      43.286 -17.510   2.530  1.00  0.00     0.010 A 
HETATM   26  C   UNL     1      43.853 -18.683   3.035  1.00  0.00     0.037 A 
HETATM   27  C   UNL     1      44.245 -18.771   4.371  1.00  0.00     0.068 A 
HETATM   28  C   UNL     1      44.104 -17.656   5.193  1.00  0.00     0.037 A 
HETATM   29  C   UNL     1      43.546 -16.477   4.688  1.00  0.00     0.010 A 
BRANCH  27  30
HETATM   30  O   UNL     1      44.764 -19.979   4.745  1.00  0.00    -0.356 OA
HETATM   31  C   UNL     1      43.841 -20.920   5.281  1.00  0.00     0.210 C 
ENDBRANCH  27  30
ENDBRANCH  21  24
ENDBRANCH  20  21
ENDBRANCH   1  20
TORSDOF 7
ENDMDL
MODEL 4
REMARK VINA RESULT:      -7.9      4.747      8.526
REMARK  7 active torsions:
REMARK  status: ('A' for Active; 'I' for Inactive)
REMARK    1  A    between atoms: C_2  and  C_3 
REMARK    2  A    between atoms: C_3  and  C_4 
REMARK    3  A    between atoms: C_3  and  C_12 
REMARK    4  A    between atoms: C_7  and  O_8 
REMARK    5  A    between atoms: C_12  and  C_13 
REMARK       I    between atoms: C_13  and  N_14 
REMARK    6  A    between atoms: N_14  and  C_15 
REMARK    7  A    between atoms: C_22  and  C_23 
REMARK       I    between atoms: C_23  and  N_24 
ROOT
HETATM    1  C   UNL     1      40.837 -14.961   0.806  1.00  0.00     0.222 C 
HETATM    2  N   UNL     1      40.834 -14.169  -0.324  1.00  0.00    -0.327 N 
HETATM    3  O   UNL     1      39.864 -15.539   1.285  1.00  0.00    -0.273 OA
HETATM    4  H   UNL     1      41.710 -13.742  -0.588  1.00  0.00     0.169 HD
ENDROOT
BRANCH   2   5
HETATM    5  C   UNL     1      39.726 -13.802  -1.120  1.00  0.00     0.035 A 
HETATM    6  C   UNL     1      39.051 -12.579  -1.009  1.00  0.00     0.046 A 
HETATM    7  C   UNL     1      37.951 -12.309  -1.853  1.00  0.00     0.030 A 
HETATM    8  C   UNL     1      37.569 -13.268  -2.782  1.00  0.00     0.063 A 
HETATM    9  C   UNL     1      37.032 -11.231  -2.036  1.00  0.00     0.156 A 
HETATM   10  N   UNL     1      36.502 -12.728  -3.445  1.00  0.00    -0.277 N 
HETATM   11  C   UNL     1      38.217 -14.496  -2.923  1.00  0.00     0.034 A 
HETATM   12  H   UNL     1      35.968 -13.149  -4.196  1.00  0.00     0.189 HD
HETATM   13  N   UNL     1      36.147 -11.504  -3.022  1.00  0.00    -0.168 NA
HETATM   14  C   UNL     1      39.299 -14.742  -2.069  1.00  0.00     0.032 A 
BRANCH   9  15
HETATM   15  C   UNL     1      36.978  -9.962  -1.297  1.00  0.00     0.270 C 
HETATM   16  N   UNL     1      36.955  -8.852  -2.098  1.00  0.00    -0.365 N 
HETATM   17  H   UNL     1      36.973  -8.978  -3.102  1.00  0.00     0.159 HD
HETATM   18  H   UNL     1      36.910  -7.937  -1.679  1.00  0.00     0.159 HD
HETATM   19  O   UNL     1      36.947  -9.862  -0.077  1.00  0.00    -0.266 OA
ENDBRANCH   9  15
ENDBRANCH   2   5
BRANCH   1  20
HETATM   20  C   UNL     1      42.212 -15.171   1.438  1.00  0.00     0.112 C 
BRANCH  20  21
HETATM   21  C   UNL     1      42.248 -15.349   2.968  1.00  0.00     0.027 C 
BRANCH  21  22
HETATM   22  C   UNL     1      42.763 -14.085   3.698  1.00  0.00     0.005 C 
HETATM   23  C   UNL     1      43.303 -12.968   2.815  1.00  0.00     0.006 C 
ENDBRANCH  21  22
BRANCH  21  24
HETATM   24  C   UNL     1      42.955 -16.608   3.444  1.00  0.00    -0.053 A 
HETATM   25  C   UNL     1      43.220 -17.689   2.595  1.00  0.00     0.010 A 
HETATM   26  C   UNL     1      43.834 -18.844   3.086  1.00  0.00     0.037 A 
HETATM   27  C   UNL     1      44.183 -18.950   4.433  1.00  0.00     0.068 A 
HETATM   28  C   UNL     1      43.952 -17.870   5.281  1.00  0.00     0.037 A 
HETATM   29  C   UNL     1      43.347 -16.708   4.790  1.00  0.00     0.010 A 
BRANCH  27  30
HETATM   30  O   UNL     1      44.756 -20.138   4.792  1.00  0.00    -0.356 OA
HETATM   31  C   UNL     1      43.878 -21.125   5.320  1.00  0.00     0.210 C 
ENDBRANCH  27  30
ENDBRANCH  21  24
ENDBRANCH  20  21
ENDBRANCH   1  20
TORSDOF 7
ENDMDL
MODEL 5
REMARK VINA RESULT:      -7.9      4.162      7.651
REMARK  7 active torsions:
REMARK  status: ('A' for Active; 'I' for Inactive)
REMARK    1  A    between atoms: C_2  and  C_3 
REMARK    2  A    between atoms: C_3  and  C_4 
REMARK    3  A    between atoms: C_3  and  C_12 
REMARK    4  A    between atoms: C_7  and  O_8 
REMARK    5  A    between atoms: C_12  and  C_13 
REMARK       I    between atoms: C_13  and  N_14 
REMARK    6  A    between atoms: N_14  and  C_15 
REMARK    7  A    between atoms: C_22  and  C_23 
REMARK       I    between atoms: C_23  and  N_24 
ROOT
HETATM    1  C   UNL     1      41.757 -12.921   3.145  1.00  0.00     0.222 C 
HETATM    2  N   UNL     1      40.502 -13.359   2.774  1.00  0.00    -0.327 N 
HETATM    3  O   UNL     1      42.379 -11.993   2.634  1.00  0.00    -0.273 OA
HETATM    4  H   UNL     1      40.123 -14.147   3.276  1.00  0.00     0.169 HD
ENDROOT
BRANCH   2   5
HETATM    5  C   UNL     1      39.706 -12.893   1.703  1.00  0.00     0.035 A 
HETATM    6  C   UNL     1      39.768 -13.404   0.400  1.00  0.00     0.046 A 
HETATM    7  C   UNL     1      38.929 -12.866  -0.602  1.00  0.00     0.030 A 
HETATM    8  C   UNL     1      38.052 -11.843  -0.263  1.00  0.00     0.063 A 
HETATM    9  C   UNL     1      38.707 -13.096  -1.993  1.00  0.00     0.156 A 
HETATM   10  N   UNL     1      37.381 -11.543  -1.415  1.00  0.00    -0.277 N 
HETATM   11  C   UNL     1      37.962 -11.310   1.024  1.00  0.00     0.034 A 
HETATM   12  H   UNL     1      36.659 -10.844  -1.541  1.00  0.00     0.189 HD
HETATM   13  N   UNL     1      37.749 -12.274  -2.480  1.00  0.00    -0.168 NA
HETATM   14  C   UNL     1      38.810 -11.855   1.996  1.00  0.00     0.032 A 
BRANCH   9  15
HETATM   15  C   UNL     1      39.385 -14.068  -2.862  1.00  0.00     0.270 C 
HETATM   16  N   UNL     1      38.596 -15.121  -3.242  1.00  0.00    -0.365 N 
HETATM   17  H   UNL     1      37.638 -15.152  -2.913  1.00  0.00     0.159 HD
HETATM   18  H   UNL     1      38.973 -15.835  -3.844  1.00  0.00     0.159 HD
HETATM   19  O   UNL     1      40.546 -13.980  -3.242  1.00  0.00    -0.266 OA
ENDBRANCH   9  15
ENDBRANCH   2   5
BRANCH   1  20
HETATM   20  C   UNL     1      42.350 -13.633   4.360  1.00  0.00     0.112 C 
BRANCH  20  21
HETATM   21  C   UNL     1      41.729 -14.993   4.734  1.00  0.00     0.027 C 
BRANCH  21  22
HETATM   22  C   UNL     1      41.491 -15.136   6.256  1.00  0.00     0.005 C 
HETATM   23  C   UNL     1      40.154 -15.731   6.678  1.00  0.00     0.006 C 
ENDBRANCH  21  22
BRANCH  21  24
HETATM   24  C   UNL     1      42.449 -16.200   4.155  1.00  0.00    -0.053 A 
HETATM   25  C   UNL     1      42.179 -16.694   2.873  1.00  0.00     0.010 A 
HETATM   26  C   UNL     1      42.836 -17.832   2.398  1.00  0.00     0.037 A 
HETATM   27  C   UNL     1      43.761 -18.508   3.194  1.00  0.00     0.068 A 
HETATM   28  C   UNL     1      44.060 -18.009   4.459  1.00  0.00     0.037 A 
HETATM   29  C   UNL     1      43.412 -16.863   4.933  1.00  0.00     0.010 A 
BRANCH  27  30
HETATM   30  O   UNL     1      44.317 -19.619   2.622  1.00  0.00    -0.356 OA
HETATM   31  C   UNL     1      43.456 -20.400   1.802  1.00  0.00     0.210 C 
ENDBRANCH  27  30
ENDBRANCH  21  24
ENDBRANCH  20  21
ENDBRANCH   1  20
TORSDOF 7
ENDMDL
MODEL 6
REMARK VINA RESULT:      -7.9      3.781      6.921
REMARK  7 active torsions:
REMARK  status: ('A' for Active; 'I' for Inactive)
REMARK    1  A    between atoms: C_2  and  C_3 
REMARK    2  A    between atoms: C_3  and  C_4 
REMARK    3  A    between atoms: C_3  and  C_12 
REMARK    4  A    between atoms: C_7  and  O_8 
REMARK    5  A    between atoms: C_12  and  C_13 
REMARK       I    between atoms: C_13  and  N_14 
REMARK    6  A    between atoms: N_14  and  C_15 
REMARK    7  A    between atoms: C_22  and  C_23 
REMARK       I    between atoms: C_23  and  N_24 
ROOT
HETATM    1  C   UNL     1      42.853 -16.125   2.140  1.00  0.00     0.222 C 
HETATM    2  N   UNL     1      41.512 -15.830   2.277  1.00  0.00    -0.327 N 
HETATM    3  O   UNL     1      43.672 -15.480   1.489  1.00  0.00    -0.273 OA
HETATM    4  H   UNL     1      40.956 -16.464   2.831  1.00  0.00     0.169 HD
ENDROOT
BRANCH   2   5
HETATM    5  C   UNL     1      40.789 -14.787   1.656  1.00  0.00     0.035 A 
HETATM    6  C   UNL     1      40.673 -14.631   0.268  1.00  0.00     0.046 A 
HETATM    7  C   UNL     1      39.926 -13.550  -0.253  1.00  0.00     0.030 A 
HETATM    8  C   UNL     1      39.316 -12.670   0.631  1.00  0.00     0.063 A 
HETATM    9  C   UNL     1      39.592 -13.060  -1.552  1.00  0.00     0.156 A 
HETATM   10  N   UNL     1      38.674 -11.754  -0.154  1.00  0.00    -0.277 N 
HETATM   11  C   UNL     1      39.408 -12.793   2.018  1.00  0.00     0.034 A 
HETATM   12  H   UNL     1      38.120 -10.963   0.153  1.00  0.00     0.189 HD
HETATM   13  N   UNL     1      38.818 -11.953  -1.475  1.00  0.00    -0.168 NA
HETATM   14  C   UNL     1      40.160 -13.867   2.509  1.00  0.00     0.032 A 
BRANCH   9  15
HETATM   15  C   UNL     1      39.995 -13.615  -2.852  1.00  0.00     0.270 C 
HETATM   16  N   UNL     1      41.318 -13.430  -3.151  1.00  0.00    -0.365 N 
HETATM   17  H   UNL     1      41.904 -12.947  -2.481  1.00  0.00     0.159 HD
HETATM   18  H   UNL     1      41.686 -13.784  -4.019  1.00  0.00     0.159 HD
HETATM   19  O   UNL     1      39.249 -14.202  -3.625  1.00  0.00    -0.266 OA
ENDBRANCH   9  15
ENDBRANCH   2   5
BRANCH   1  20
HETATM   20  C   UNL     1      43.331 -17.325   2.956  1.00  0.00     0.112 C 
BRANCH  20  21
HETATM   21  C   UNL     1      43.562 -17.088   4.462  1.00  0.00     0.027 C 
BRANCH  21  22
HETATM   22  C   UNL     1      43.658 -18.409   5.261  1.00  0.00     0.005 C 
HETATM   23  C   UNL     1      44.309 -19.586   4.545  1.00  0.00     0.006 C 
ENDBRANCH  21  22
BRANCH  21  24
HETATM   24  C   UNL     1      42.598 -16.104   5.104  1.00  0.00    -0.053 A 
HETATM   25  C   UNL     1      41.309 -16.470   5.512  1.00  0.00     0.010 A 
HETATM   26  C   UNL     1      40.441 -15.521   6.059  1.00  0.00     0.037 A 
HETATM   27  C   UNL     1      40.834 -14.190   6.198  1.00  0.00     0.068 A 
HETATM   28  C   UNL     1      42.123 -13.820   5.824  1.00  0.00     0.037 A 
HETATM   29  C   UNL     1      42.998 -14.770   5.286  1.00  0.00     0.010 A 
BRANCH  27  30
HETATM   30  O   UNL     1      39.886 -13.358   6.726  1.00  0.00    -0.356 OA
HETATM   31  C   UNL     1      39.351 -12.378   5.845  1.00  0.00     0.210 C 
ENDBRANCH  27  30
ENDBRANCH  21  24
ENDBRANCH  20  21
ENDBRANCH   1  20
TORSDOF 7
ENDMDL
MODEL 7
REMARK VINA RESULT:      -7.8      1.757      3.953
REMARK  7 active torsions:
REMARK  status: ('A' for Active; 'I' for Inactive)
REMARK    1  A    between atoms: C_2  and  C_3 
REMARK    2  A    between atoms: C_3  and  C_4 
REMARK    3  A    between atoms: C_3  and  C_12 
REMARK    4  A    between atoms: C_7  and  O_8 
REMARK    5  A    between atoms: C_12  and  C_13 
REMARK       I    between atoms: C_13  and  N_14 
REMARK    6  A    between atoms: N_14  and  C_15 
REMARK    7  A    between atoms: C_22  and  C_23 
REMARK       I    between atoms: C_23  and  N_24 
ROOT
HETATM    1  C   UNL     1      42.859 -13.115   2.766  1.00  0.00     0.222 C 
HETATM    2  N   UNL     1      43.073 -13.137   4.129  1.00  0.00    -0.327 N 
HETATM    3  O   UNL     1      42.355 -12.194   2.129  1.00  0.00    -0.273 OA
HETATM    4  H   UNL     1      43.481 -13.973   4.517  1.00  0.00     0.169 HD
ENDROOT
BRANCH   2   5
HETATM    5  C   UNL     1      42.705 -12.156   5.077  1.00  0.00     0.035 A 
HETATM    6  C   UNL     1      43.618 -11.455   5.876  1.00  0.00     0.046 A 
HETATM    7  C   UNL     1      43.146 -10.492   6.797  1.00  0.00     0.030 A 
HETATM    8  C   UNL     1      41.779 -10.260   6.881  1.00  0.00     0.063 A 
HETATM    9  C   UNL     1      43.730  -9.612   7.757  1.00  0.00     0.156 A 
HETATM   10  N   UNL     1      41.633  -9.290   7.833  1.00  0.00    -0.277 N 
HETATM   11  C   UNL     1      40.841 -10.936   6.101  1.00  0.00     0.034 A 
HETATM   12  H   UNL     1      40.769  -8.870   8.154  1.00  0.00     0.189 HD
HETATM   13  N   UNL     1      42.785  -8.876   8.387  1.00  0.00    -0.168 NA
HETATM   14  C   UNL     1      41.333 -11.891   5.202  1.00  0.00     0.032 A 
BRANCH   9  15
HETATM   15  C   UNL     1      45.153  -9.461   8.089  1.00  0.00     0.270 C 
HETATM   16  N   UNL     1      45.796 -10.644   8.336  1.00  0.00    -0.365 N 
HETATM   17  H   UNL     1      45.267 -11.506   8.273  1.00  0.00     0.159 HD
HETATM   18  H   UNL     1      46.777 -10.640   8.565  1.00  0.00     0.159 HD
HETATM   19  O   UNL     1      45.752  -8.394   8.143  1.00  0.00    -0.266 OA
ENDBRANCH   9  15
ENDBRANCH   2   5
BRANCH   1  20
HETATM   20  C   UNL     1      43.385 -14.338   2.016  1.00  0.00     0.112 C 
BRANCH  20  21
HETATM   21  C   UNL     1      42.505 -15.602   2.054  1.00  0.00     0.027 C 
BRANCH  21  22
HETATM   22  C   UNL     1      41.055 -15.301   2.498  1.00  0.00     0.005 C 
HETATM   23  C   UNL     1      39.950 -15.751   1.551  1.00  0.00     0.006 C 
ENDBRANCH  21  22
BRANCH  21  24
HETATM   24  C   UNL     1      43.105 -16.769   2.822  1.00  0.00    -0.053 A 
HETATM   25  C   UNL     1      43.153 -18.068   2.302  1.00  0.00     0.010 A 
HETATM   26  C   UNL     1      43.675 -19.118   3.061  1.00  0.00     0.037 A 
HETATM   27  C   UNL     1      44.145 -18.899   4.356  1.00  0.00     0.068 A 
HETATM   28  C   UNL     1      44.131 -17.606   4.874  1.00  0.00     0.037 A 
HETATM   29  C   UNL     1      43.618 -16.550   4.111  1.00  0.00     0.010 A 
BRANCH  27  30
HETATM   30  O   UNL     1      44.610 -20.011   5.001  1.00  0.00    -0.356 OA
HETATM   31  C   UNL     1      43.809 -21.182   4.889  1.00  0.00     0.210 C 
ENDBRANCH  27  30
ENDBRANCH  21  24
ENDBRANCH  20  21
ENDBRANCH   1  20
TORSDOF 7
ENDMDL
MODEL 8
REMARK VINA RESULT:      -7.7      4.748      7.874
REMARK  7 active torsions:
REMARK  status: ('A' for Active; 'I' for Inactive)
REMARK    1  A    between atoms: C_2  and  C_3 
REMARK    2  A    between atoms: C_3  and  C_4 
REMARK    3  A    between atoms: C_3  and  C_12 
REMARK    4  A    between atoms: C_7  and  O_8 
REMARK    5  A    between atoms: C_12  and  C_13 
REMARK       I    between atoms: C_13  and  N_14 
REMARK    6  A    between atoms: N_14  and  C_15 
REMARK    7  A    between atoms: C_22  and  C_23 
REMARK       I    between atoms: C_23  and  N_24 
ROOT
HETATM    1  C   UNL     1      40.525 -14.356   0.955  1.00  0.00     0.222 C 
HETATM    2  N   UNL     1      40.824 -14.158  -0.378  1.00  0.00    -0.327 N 
HETATM    3  O   UNL     1      39.773 -13.665   1.637  1.00  0.00    -0.273 OA
HETATM    4  H   UNL     1      41.476 -14.800  -0.803  1.00  0.00     0.169 HD
ENDROOT
BRANCH   2   5
HETATM    5  C   UNL     1      40.397 -13.100  -1.211  1.00  0.00     0.035 A 
HETATM    6  C   UNL     1      41.023 -11.848  -1.273  1.00  0.00     0.046 A 
HETATM    7  C   UNL     1      40.514 -10.855  -2.140  1.00  0.00     0.030 A 
HETATM    8  C   UNL     1      39.404 -11.151  -2.920  1.00  0.00     0.063 A 
HETATM    9  C   UNL     1      40.847  -9.506  -2.471  1.00  0.00     0.156 A 
HETATM   10  N   UNL     1      39.157 -10.020  -3.646  1.00  0.00    -0.277 N 
HETATM   11  C   UNL     1      38.755 -12.387  -2.887  1.00  0.00     0.034 A 
HETATM   12  H   UNL     1      38.419  -9.875  -4.326  1.00  0.00     0.189 HD
HETATM   13  N   UNL     1      40.003  -9.006  -3.402  1.00  0.00    -0.168 NA
HETATM   14  C   UNL     1      39.273 -13.351  -2.013  1.00  0.00     0.032 A 
BRANCH   9  15
HETATM   15  C   UNL     1      41.939  -8.690  -1.921  1.00  0.00     0.270 C 
HETATM   16  N   UNL     1      41.975  -7.410  -2.405  1.00  0.00    -0.365 N 
HETATM   17  H   UNL     1      41.273  -7.125  -3.077  1.00  0.00     0.159 HD
HETATM   18  H   UNL     1      42.686  -6.775  -2.079  1.00  0.00     0.159 HD
HETATM   19  O   UNL     1      42.760  -9.078  -1.099  1.00  0.00    -0.266 OA
ENDBRANCH   9  15
ENDBRANCH   2   5
BRANCH   1  20
HETATM   20  C   UNL     1      41.147 -15.608   1.571  1.00  0.00     0.112 C 
BRANCH  20  21
HETATM   21  C   UNL     1      42.237 -15.385   2.636  1.00  0.00     0.027 C 
BRANCH  21  22
HETATM   22  C   UNL     1      43.307 -14.363   2.184  1.00  0.00     0.005 C 
HETATM   23  C   UNL     1      43.347 -13.044   2.945  1.00  0.00     0.006 C 
ENDBRANCH  21  22
BRANCH  21  24
HETATM   24  C   UNL     1      42.864 -16.659   3.180  1.00  0.00    -0.053 A 
HETATM   25  C   UNL     1      43.330 -16.767   4.495  1.00  0.00     0.010 A 
HETATM   26  C   UNL     1      43.937 -17.944   4.939  1.00  0.00     0.037 A 
HETATM   27  C   UNL     1      44.104 -19.030   4.080  1.00  0.00     0.068 A 
HETATM   28  C   UNL     1      43.617 -18.946   2.778  1.00  0.00     0.037 A 
HETATM   29  C   UNL     1      42.999 -17.772   2.334  1.00  0.00     0.010 A 
BRANCH  27  30
HETATM   30  O   UNL     1      44.732 -20.114   4.629  1.00  0.00    -0.356 OA
HETATM   31  C   UNL     1      43.963 -20.890   5.541  1.00  0.00     0.210 C 
ENDBRANCH  27  30
ENDBRANCH  21  24
ENDBRANCH  20  21
ENDBRANCH   1  20
TORSDOF 7
ENDMDL
MODEL 9
REMARK VINA RESULT:      -7.7      4.190      8.007
REMARK  7 active torsions:
REMARK  status: ('A' for Active; 'I' for Inactive)
REMARK    1  A    between atoms: C_2  and  C_3 
REMARK    2  A    between atoms: C_3  and  C_4 
REMARK    3  A    between atoms: C_3  and  C_12 
REMARK    4  A    between atoms: C_7  and  O_8 
REMARK    5  A    between atoms: C_12  and  C_13 
REMARK       I    between atoms: C_13  and  N_14 
REMARK    6  A    between atoms: N_14  and  C_15 
REMARK    7  A    between atoms: C_22  and  C_23 
REMARK       I    between atoms: C_23  and  N_24 
ROOT
HETATM    1  C   UNL     1      41.960 -15.137   1.555  1.00  0.00     0.222 C 
HETATM    2  N   UNL     1      41.869 -13.942   0.870  1.00  0.00    -0.327 N 
HETATM    3  O   UNL     1      41.077 -15.985   1.647  1.00  0.00    -0.273 OA
HETATM    4  H   UNL     1      42.674 -13.334   0.897  1.00  0.00     0.169 HD
ENDROOT
BRANCH   2   5
HETATM    5  C   UNL     1      40.743 -13.413   0.201  1.00  0.00     0.035 A 
HETATM    6  C   UNL     1      40.098 -14.045  -0.870  1.00  0.00     0.046 A 
HETATM    7  C   UNL     1      38.977 -13.430  -1.473  1.00  0.00     0.030 A 
HETATM    8  C   UNL     1      38.537 -12.209  -0.978  1.00  0.00     0.063 A 
HETATM    9  C   UNL     1      38.089 -13.734  -2.548  1.00  0.00     0.156 A 
HETATM   10  N   UNL     1      37.454 -11.877  -1.742  1.00  0.00    -0.277 N 
HETATM   11  C   UNL     1      39.152 -11.551   0.088  1.00  0.00     0.034 A 
HETATM   12  H   UNL     1      36.877 -11.048  -1.662  1.00  0.00     0.189 HD
HETATM   13  N   UNL     1      37.154 -12.768  -2.701  1.00  0.00    -0.168 NA
HETATM   14  C   UNL     1      40.265 -12.177   0.662  1.00  0.00     0.032 A 
BRANCH   9  15
HETATM   15  C   UNL     1      38.113 -14.912  -3.427  1.00  0.00     0.270 C 
HETATM   16  N   UNL     1      38.242 -16.101  -2.762  1.00  0.00    -0.365 N 
HETATM   17  H   UNL     1      38.306 -16.087  -1.751  1.00  0.00     0.159 HD
HETATM   18  H   UNL     1      38.261 -16.964  -3.282  1.00  0.00     0.159 HD
HETATM   19  O   UNL     1      38.022 -14.878  -4.648  1.00  0.00    -0.266 OA
ENDBRANCH   9  15
ENDBRANCH   2   5
BRANCH   1  20
HETATM   20  C   UNL     1      43.330 -15.420   2.168  1.00  0.00     0.112 C 
BRANCH  20  21
HETATM   21  C   UNL     1      43.375 -15.618   3.696  1.00  0.00     0.027 C 
BRANCH  21  22
HETATM   22  C   UNL     1      43.085 -17.080   4.112  1.00  0.00     0.005 C 
HETATM   23  C   UNL     1      43.640 -18.165   3.199  1.00  0.00     0.006 C 
ENDBRANCH  21  22
BRANCH  21  24
HETATM   24  C   UNL     1      42.541 -14.626   4.489  1.00  0.00    -0.053 A 
HETATM   25  C   UNL     1      41.392 -15.002   5.195  1.00  0.00     0.010 A 
HETATM   26  C   UNL     1      40.632 -14.048   5.876  1.00  0.00     0.037 A 
HETATM   27  C   UNL     1      40.992 -12.700   5.855  1.00  0.00     0.068 A 
HETATM   28  C   UNL     1      42.149 -12.317   5.181  1.00  0.00     0.037 A 
HETATM   29  C   UNL     1      42.918 -13.272   4.507  1.00  0.00     0.010 A 
BRANCH  27  30
HETATM   30  O   UNL     1      40.155 -11.865   6.540  1.00  0.00    -0.356 OA
HETATM   31  C   UNL     1      39.019 -11.390   5.826  1.00  0.00     0.210 C 
ENDBRANCH  27  30
ENDBRANCH  21  24
ENDBRANCH  20  21
ENDBRANCH   1  20
TORSDOF 7
ENDMDL
MODEL 10
REMARK VINA RESULT:      -7.6      4.546      7.801
REMARK  7 active torsions:
REMARK  status: ('A' for Active; 'I' for Inactive)
REMARK    1  A    between atoms: C_2  and  C_3 
REMARK    2  A    between atoms: C_3  and  C_4 
REMARK    3  A    between atoms: C_3  and  C_12 
REMARK    4  A    between atoms: C_7  and  O_8 
REMARK    5  A    between atoms: C_12  and  C_13 
REMARK       I    between atoms: C_13  and  N_14 
REMARK    6  A    between atoms: N_14  and  C_15 
REMARK    7  A    between atoms: C_22  and  C_23 
REMARK       I    between atoms: C_23  and  N_24 
ROOT
HETATM    1  C   UNL     1      40.859 -14.937   0.676  1.00  0.00     0.222 C 
HETATM    2  N   UNL     1      42.172 -15.101   1.070  1.00  0.00    -0.327 N 
HETATM    3  O   UNL     1      39.869 -15.360   1.268  1.00  0.00    -0.273 OA
HETATM    4  H   UNL     1      42.883 -14.712   0.471  1.00  0.00     0.169 HD
ENDROOT
BRANCH   2   5
HETATM    5  C   UNL     1      42.656 -15.835   2.176  1.00  0.00     0.035 A 
HETATM    6  C   UNL     1      42.934 -17.208   2.146  1.00  0.00     0.046 A 
HETATM    7  C   UNL     1      43.415 -17.849   3.310  1.00  0.00     0.030 A 
HETATM    8  C   UNL     1      43.608 -17.093   4.459  1.00  0.00     0.063 A 
HETATM    9  C   UNL     1      43.791 -19.177   3.674  1.00  0.00     0.156 A 
HETATM   10  N   UNL     1      44.078 -17.971   5.396  1.00  0.00    -0.277 N 
HETATM   11  C   UNL     1      43.344 -15.725   4.527  1.00  0.00     0.034 A 
HETATM   12  H   UNL     1      44.331 -17.767   6.356  1.00  0.00     0.189 HD
HETATM   13  N   UNL     1      44.199 -19.236   4.963  1.00  0.00    -0.168 NA
HETATM   14  C   UNL     1      42.860 -15.115   3.363  1.00  0.00     0.032 A 
BRANCH   9  15
HETATM   15  C   UNL     1      43.766 -20.380   2.831  1.00  0.00     0.270 C 
HETATM   16  N   UNL     1      44.118 -21.528   3.489  1.00  0.00    -0.365 N 
HETATM   17  H   UNL     1      44.357 -21.471   4.471  1.00  0.00     0.159 HD
HETATM   18  H   UNL     1      44.122 -22.406   2.993  1.00  0.00     0.159 HD
HETATM   19  O   UNL     1      43.458 -20.401   1.646  1.00  0.00    -0.266 OA
ENDBRANCH   9  15
ENDBRANCH   2   5
BRANCH   1  20
HETATM   20  C   UNL     1      40.668 -14.075  -0.571  1.00  0.00     0.112 C 
BRANCH  20  21
HETATM   21  C   UNL     1      39.263 -14.081  -1.205  1.00  0.00     0.027 C 
BRANCH  21  22
HETATM   22  C   UNL     1      39.066 -15.252  -2.196  1.00  0.00     0.005 C 
HETATM   23  C   UNL     1      38.240 -14.954  -3.440  1.00  0.00     0.006 C 
ENDBRANCH  21  22
BRANCH  21  24
HETATM   24  C   UNL     1      38.833 -12.751  -1.804  1.00  0.00    -0.053 A 
HETATM   25  C   UNL     1      37.559 -12.210  -1.595  1.00  0.00     0.010 A 
HETATM   26  C   UNL     1      37.192 -11.004  -2.200  1.00  0.00     0.037 A 
HETATM   27  C   UNL     1      38.080 -10.324  -3.034  1.00  0.00     0.068 A 
HETATM   28  C   UNL     1      39.360 -10.838  -3.225  1.00  0.00     0.037 A 
HETATM   29  C   UNL     1      39.734 -12.039  -2.612  1.00  0.00     0.010 A 
BRANCH  27  30
HETATM   30  O   UNL     1      37.593  -9.170  -3.582  1.00  0.00    -0.356 OA
HETATM   31  C   UNL     1      38.087  -8.831  -4.873  1.00  0.00     0.210 C 
ENDBRANCH  27  30
ENDBRANCH  21  24
ENDBRANCH  20  21
ENDBRANCH   1  20
TORSDOF 7
ENDMDL
