MODEL 1
REMARK VINA RESULT:      -9.4      0.000      0.000
REMARK  2 active torsions:
REMARK  status: ('A' for Active; 'I' for Inactive)
REMARK       I    between atoms: N_4  and  C_5 
REMARK       I    between atoms: C_5  and  N_6 
REMARK    1  A    between atoms: N_6  and  C_7 
REMARK    2  A    between atoms: C_20  and  C_21 
ROOT
HETATM    1  C   UNL     1      39.979  -9.742   1.758  1.00  0.00     0.011 C 
HETATM    2  C   UNL     1      38.896 -10.688   2.267  1.00  0.00     0.002 C 
HETATM    3  C   UNL     1      39.477 -11.932   2.931  1.00  0.00     0.132 C 
HETATM    4  N   UNL     1      39.522 -12.951   1.894  1.00  0.00    -0.325 N 
HETATM    5  C   UNL     1      40.077 -14.213   1.996  1.00  0.00     0.323 C 
HETATM    6  N   UNL     1      40.687 -14.469   3.203  1.00  0.00    -0.309 N 
HETATM    7  O   UNL     1      40.036 -15.014   1.066  1.00  0.00    -0.247 OA
HETATM    8  C   UNL     1      38.724 -12.575   0.723  1.00  0.00     0.125 C 
HETATM    9  C   UNL     1      38.025 -11.271   1.149  1.00  0.00     0.036 C 
HETATM   10  H   UNL     1      40.281 -14.011   4.004  1.00  0.00     0.170 HD
ENDROOT
BRANCH   6  11
HETATM   11  C   UNL     1      41.609 -15.502   3.464  1.00  0.00     0.038 A 
HETATM   12  C   UNL     1      41.634 -16.693   2.731  1.00  0.00     0.062 A 
HETATM   13  C   UNL     1      42.614 -17.654   2.991  1.00  0.00     0.070 A 
HETATM   14  C   UNL     1      43.565 -17.443   3.988  1.00  0.00     0.096 A 
HETATM   15  N   UNL     1      42.662 -18.806   2.208  1.00  0.00    -0.323 N 
HETATM   16  O   UNL     1      44.570 -18.321   4.280  1.00  0.00    -0.335 OA
HETATM   17  C   UNL     1      43.549 -16.255   4.715  1.00  0.00     0.041 A 
HETATM   18  C   UNL     1      44.443 -19.613   3.690  1.00  0.00     0.217 C 
HETATM   19  C   UNL     1      43.594 -19.781   2.420  1.00  0.00     0.251 C 
HETATM   20  C   UNL     1      43.922 -20.572   4.757  1.00  0.00     0.050 C 
HETATM   21  O   UNL     1      43.681 -20.755   1.676  1.00  0.00    -0.270 OA
HETATM   22  C   UNL     1      42.579 -15.283   4.448  1.00  0.00     0.032 A 
HETATM   23  H   UNL     1      42.035 -18.929   1.423  1.00  0.00     0.169 HD
ENDBRANCH   6  11
BRANCH   8  24
HETATM   24  C   UNL     1      39.485 -12.424  -0.580  1.00  0.00     0.003 A 
HETATM   25  C   UNL     1      38.875 -12.873  -1.760  1.00  0.00     0.124 A 
HETATM   26  F   UNL     1      37.638 -13.390  -1.712  1.00  0.00    -0.205 F 
HETATM   27  C   UNL     1      39.517 -12.799  -2.994  1.00  0.00     0.043 A 
HETATM   28  C   UNL     1      40.800 -12.266  -3.071  1.00  0.00     0.003 A 
HETATM   29  C   UNL     1      41.429 -11.810  -1.914  1.00  0.00     0.001 A 
HETATM   30  C   UNL     1      40.777 -11.887  -0.678  1.00  0.00     0.012 A 
ENDBRANCH   8  24
TORSDOF 2
ENDMDL
MODEL 2
REMARK VINA RESULT:      -9.2      3.349      8.386
REMARK  2 active torsions:
REMARK  status: ('A' for Active; 'I' for Inactive)
REMARK       I    between atoms: N_4  and  C_5 
REMARK       I    between atoms: C_5  and  N_6 
REMARK    1  A    between atoms: N_6  and  C_7 
REMARK    2  A    between atoms: C_20  and  C_21 
ROOT
HETATM    1  C   UNL     1      40.102 -16.386   5.925  1.00  0.00     0.011 C 
HETATM    2  C   UNL     1      40.907 -15.104   6.113  1.00  0.00     0.002 C 
HETATM    3  C   UNL     1      40.765 -14.151   4.931  1.00  0.00     0.132 C 
HETATM    4  N   UNL     1      41.895 -14.430   4.059  1.00  0.00    -0.325 N 
HETATM    5  C   UNL     1      42.129 -13.891   2.807  1.00  0.00     0.323 C 
HETATM    6  N   UNL     1      41.137 -13.049   2.358  1.00  0.00    -0.309 N 
HETATM    7  O   UNL     1      43.134 -14.171   2.160  1.00  0.00    -0.247 OA
HETATM    8  C   UNL     1      42.917 -15.239   4.730  1.00  0.00     0.125 C 
HETATM    9  C   UNL     1      42.419 -15.342   6.183  1.00  0.00     0.036 C 
HETATM   10  H   UNL     1      40.651 -12.525   3.070  1.00  0.00     0.170 HD
ENDROOT
BRANCH   6  11
HETATM   11  C   UNL     1      40.936 -12.642   1.024  1.00  0.00     0.038 A 
HETATM   12  C   UNL     1      41.217 -11.344   0.581  1.00  0.00     0.062 A 
HETATM   13  C   UNL     1      41.060 -11.016  -0.768  1.00  0.00     0.070 A 
HETATM   14  C   UNL     1      40.613 -11.970  -1.680  1.00  0.00     0.096 A 
HETATM   15  N   UNL     1      41.406  -9.737  -1.201  1.00  0.00    -0.323 N 
HETATM   16  O   UNL     1      40.464 -11.733  -3.018  1.00  0.00    -0.335 OA
HETATM   17  C   UNL     1      40.340 -13.265  -1.245  1.00  0.00     0.041 A 
HETATM   18  C   UNL     1      40.531 -10.363  -3.407  1.00  0.00     0.217 C 
HETATM   19  C   UNL     1      41.269  -9.360  -2.506  1.00  0.00     0.251 C 
HETATM   20  C   UNL     1      39.106  -9.863  -3.631  1.00  0.00     0.050 C 
HETATM   21  O   UNL     1      41.650  -8.259  -2.897  1.00  0.00    -0.270 OA
HETATM   22  C   UNL     1      40.509 -13.603   0.101  1.00  0.00     0.032 A 
HETATM   23  H   UNL     1      41.818  -9.066  -0.566  1.00  0.00     0.169 HD
ENDBRANCH   6  11
BRANCH   8  24
HETATM   24  C   UNL     1      43.199 -16.597   4.118  1.00  0.00     0.003 A 
HETATM   25  C   UNL     1      44.218 -17.380   4.679  1.00  0.00     0.124 A 
HETATM   26  F   UNL     1      44.889 -16.927   5.749  1.00  0.00    -0.205 F 
HETATM   27  C   UNL     1      44.561 -18.626   4.159  1.00  0.00     0.043 A 
HETATM   28  C   UNL     1      43.879 -19.119   3.050  1.00  0.00     0.003 A 
HETATM   29  C   UNL     1      42.860 -18.363   2.474  1.00  0.00     0.001 A 
HETATM   30  C   UNL     1      42.522 -17.113   3.002  1.00  0.00     0.012 A 
ENDBRANCH   8  24
TORSDOF 2
ENDMDL
MODEL 3
REMARK VINA RESULT:      -9.1      2.667      4.326
REMARK  2 active torsions:
REMARK  status: ('A' for Active; 'I' for Inactive)
REMARK       I    between atoms: N_4  and  C_5 
REMARK       I    between atoms: C_5  and  N_6 
REMARK    1  A    between atoms: N_6  and  C_7 
REMARK    2  A    between atoms: C_20  and  C_21 
ROOT
HETATM    1  C   UNL     1      37.574 -13.564  -2.896  1.00  0.00     0.011 C 
HETATM    2  C   UNL     1      39.064 -13.364  -3.153  1.00  0.00     0.002 C 
HETATM    3  C   UNL     1      39.931 -14.059  -2.109  1.00  0.00     0.132 C 
HETATM    4  N   UNL     1      40.230 -13.050  -1.104  1.00  0.00    -0.325 N 
HETATM    5  C   UNL     1      40.894 -13.243   0.092  1.00  0.00     0.323 C 
HETATM    6  N   UNL     1      41.244 -14.551   0.343  1.00  0.00    -0.309 N 
HETATM    7  O   UNL     1      41.122 -12.314   0.862  1.00  0.00    -0.247 OA
HETATM    8  C   UNL     1      39.908 -11.699  -1.575  1.00  0.00     0.125 C 
HETATM    9  C   UNL     1      39.507 -11.901  -3.047  1.00  0.00     0.036 C 
HETATM   10  H   UNL     1      41.457 -15.110  -0.468  1.00  0.00     0.170 HD
ENDROOT
BRANCH   6  11
HETATM   11  C   UNL     1      41.606 -15.087   1.595  1.00  0.00     0.038 A 
HETATM   12  C   UNL     1      40.793 -14.971   2.728  1.00  0.00     0.062 A 
HETATM   13  C   UNL     1      41.173 -15.579   3.927  1.00  0.00     0.070 A 
HETATM   14  C   UNL     1      42.367 -16.294   4.010  1.00  0.00     0.096 A 
HETATM   15  N   UNL     1      40.320 -15.507   5.027  1.00  0.00    -0.323 N 
HETATM   16  O   UNL     1      42.791 -16.940   5.137  1.00  0.00    -0.335 OA
HETATM   17  C   UNL     1      43.175 -16.419   2.882  1.00  0.00     0.041 A 
HETATM   18  C   UNL     1      42.076 -16.622   6.329  1.00  0.00     0.217 C 
HETATM   19  C   UNL     1      40.643 -16.078   6.224  1.00  0.00     0.251 C 
HETATM   20  C   UNL     1      42.916 -15.637   7.137  1.00  0.00     0.050 C 
HETATM   21  O   UNL     1      39.852 -16.080   7.165  1.00  0.00    -0.270 OA
HETATM   22  C   UNL     1      42.792 -15.824   1.675  1.00  0.00     0.032 A 
HETATM   23  H   UNL     1      39.411 -15.070   4.952  1.00  0.00     0.169 HD
ENDBRANCH   6  11
BRANCH   8  24
HETATM   24  C   UNL     1      38.851 -10.953  -0.784  1.00  0.00     0.003 A 
HETATM   25  C   UNL     1      38.903  -9.553  -0.764  1.00  0.00     0.124 A 
HETATM   26  F   UNL     1      39.856  -8.914  -1.459  1.00  0.00    -0.205 F 
HETATM   27  C   UNL     1      37.989  -8.792  -0.038  1.00  0.00     0.043 A 
HETATM   28  C   UNL     1      36.990  -9.430   0.691  1.00  0.00     0.003 A 
HETATM   29  C   UNL     1      36.913 -10.822   0.686  1.00  0.00     0.001 A 
HETATM   30  C   UNL     1      37.835 -11.578  -0.046  1.00  0.00     0.012 A 
ENDBRANCH   8  24
TORSDOF 2
ENDMDL
MODEL 4
REMARK VINA RESULT:      -8.5      7.714      9.948
REMARK  2 active torsions:
REMARK  status: ('A' for Active; 'I' for Inactive)
REMARK       I    between atoms: N_4  and  C_5 
REMARK       I    between atoms: C_5  and  N_6 
REMARK    1  A    between atoms: N_6  and  C_7 
REMARK    2  A    between atoms: C_20  and  C_21 
ROOT
HETATM    1  C   UNL     1      40.591  -6.063   9.307  1.00  0.00     0.011 C 
HETATM    2  C   UNL     1      42.089  -6.091   9.023  1.00  0.00     0.002 C 
HETATM    3  C   UNL     1      42.492  -7.272   8.147  1.00  0.00     0.132 C 
HETATM    4  N   UNL     1      42.905  -8.324   9.063  1.00  0.00    -0.325 N 
HETATM    5  C   UNL     1      43.248  -9.622   8.734  1.00  0.00     0.323 C 
HETATM    6  N   UNL     1      43.119  -9.921   7.397  1.00  0.00    -0.309 N 
HETATM    7  O   UNL     1      43.614 -10.429   9.584  1.00  0.00    -0.247 OA
HETATM    8  C   UNL     1      43.114  -7.814  10.422  1.00  0.00     0.125 C 
HETATM    9  C   UNL     1      42.942  -6.291  10.280  1.00  0.00     0.036 C 
HETATM   10  H   UNL     1      43.289  -9.159   6.759  1.00  0.00     0.170 HD
ENDROOT
BRANCH   6  11
HETATM   11  C   UNL     1      43.062 -11.214   6.838  1.00  0.00     0.038 A 
HETATM   12  C   UNL     1      42.017 -11.631   6.006  1.00  0.00     0.062 A 
HETATM   13  C   UNL     1      42.047 -12.902   5.429  1.00  0.00     0.070 A 
HETATM   14  C   UNL     1      43.108 -13.770   5.685  1.00  0.00     0.096 A 
HETATM   15  N   UNL     1      41.031 -13.276   4.552  1.00  0.00    -0.323 N 
HETATM   16  O   UNL     1      43.223 -15.016   5.134  1.00  0.00    -0.335 OA
HETATM   17  C   UNL     1      44.154 -13.357   6.506  1.00  0.00     0.041 A 
HETATM   18  C   UNL     1      42.052 -15.506   4.483  1.00  0.00     0.217 C 
HETATM   19  C   UNL     1      41.007 -14.508   3.963  1.00  0.00     0.251 C 
HETATM   20  C   UNL     1      41.363 -16.491   5.423  1.00  0.00     0.050 C 
HETATM   21  O   UNL     1      40.152 -14.801   3.130  1.00  0.00    -0.270 OA
HETATM   22  C   UNL     1      44.136 -12.079   7.075  1.00  0.00     0.032 A 
HETATM   23  H   UNL     1      40.305 -12.622   4.287  1.00  0.00     0.169 HD
ENDBRANCH   6  11
BRANCH   8  24
HETATM   24  C   UNL     1      42.219  -8.400  11.497  1.00  0.00     0.003 A 
HETATM   25  C   UNL     1      42.702  -8.439  12.813  1.00  0.00     0.124 A 
HETATM   26  F   UNL     1      43.914  -7.937  13.090  1.00  0.00    -0.205 F 
HETATM   27  C   UNL     1      41.956  -8.988  13.854  1.00  0.00     0.043 A 
HETATM   28  C   UNL     1      40.695  -9.514  13.593  1.00  0.00     0.003 A 
HETATM   29  C   UNL     1      40.190  -9.486  12.295  1.00  0.00     0.001 A 
HETATM   30  C   UNL     1      40.944  -8.933  11.255  1.00  0.00     0.012 A 
ENDBRANCH   8  24
TORSDOF 2
ENDMDL
MODEL 5
REMARK VINA RESULT:      -8.5     15.015     16.550
REMARK  2 active torsions:
REMARK  status: ('A' for Active; 'I' for Inactive)
REMARK       I    between atoms: N_4  and  C_5 
REMARK       I    between atoms: C_5  and  N_6 
REMARK    1  A    between atoms: N_6  and  C_7 
REMARK    2  A    between atoms: C_20  and  C_21 
ROOT
HETATM    1  C   UNL     1      48.539 -29.811  -0.402  1.00  0.00     0.011 C 
HETATM    2  C   UNL     1      47.817 -28.573   0.121  1.00  0.00     0.002 C 
HETATM    3  C   UNL     1      46.607 -28.925   0.980  1.00  0.00     0.132 C 
HETATM    4  N   UNL     1      45.462 -28.899   0.082  1.00  0.00    -0.325 N 
HETATM    5  C   UNL     1      44.164 -29.264   0.385  1.00  0.00     0.323 C 
HETATM    6  N   UNL     1      43.993 -29.745   1.663  1.00  0.00    -0.309 N 
HETATM    7  O   UNL     1      43.259 -29.177  -0.441  1.00  0.00    -0.247 OA
HETATM    8  C   UNL     1      45.781 -28.247  -1.192  1.00  0.00     0.125 C 
HETATM    9  C   UNL     1      47.210 -27.710  -0.990  1.00  0.00     0.036 C 
HETATM   10  H   UNL     1      44.602 -29.352   2.364  1.00  0.00     0.170 HD
ENDROOT
BRANCH   6  11
HETATM   11  C   UNL     1      42.892 -30.493   2.127  1.00  0.00     0.038 A 
HETATM   12  C   UNL     1      42.514 -30.523   3.474  1.00  0.00     0.062 A 
HETATM   13  C   UNL     1      41.375 -31.230   3.866  1.00  0.00     0.070 A 
HETATM   14  C   UNL     1      40.614 -31.921   2.925  1.00  0.00     0.096 A 
HETATM   15  N   UNL     1      40.978 -31.194   5.201  1.00  0.00    -0.323 N 
HETATM   16  O   UNL     1      39.472 -32.609   3.226  1.00  0.00    -0.335 OA
HETATM   17  C   UNL     1      40.982 -31.888   1.582  1.00  0.00     0.041 A 
HETATM   18  C   UNL     1      39.234 -32.818   4.616  1.00  0.00     0.217 C 
HETATM   19  C   UNL     1      39.876 -31.871   5.641  1.00  0.00     0.251 C 
HETATM   20  C   UNL     1      39.636 -34.251   4.956  1.00  0.00     0.050 C 
HETATM   21  O   UNL     1      39.486 -31.771   6.802  1.00  0.00    -0.270 OA
HETATM   22  C   UNL     1      42.114 -31.170   1.182  1.00  0.00     0.032 A 
HETATM   23  H   UNL     1      41.469 -30.622   5.876  1.00  0.00     0.169 HD
ENDBRANCH   6  11
BRANCH   8  24
HETATM   24  C   UNL     1      45.658 -29.112  -2.431  1.00  0.00     0.003 A 
HETATM   25  C   UNL     1      45.177 -28.520  -3.607  1.00  0.00     0.124 A 
HETATM   26  F   UNL     1      44.870 -27.214  -3.616  1.00  0.00    -0.205 F 
HETATM   27  C   UNL     1      45.004 -29.250  -4.782  1.00  0.00     0.043 A 
HETATM   28  C   UNL     1      45.316 -30.606  -4.800  1.00  0.00     0.003 A 
HETATM   29  C   UNL     1      45.800 -31.219  -3.645  1.00  0.00     0.001 A 
HETATM   30  C   UNL     1      45.970 -30.479  -2.471  1.00  0.00     0.012 A 
ENDBRANCH   8  24
TORSDOF 2
ENDMDL
MODEL 6
REMARK VINA RESULT:      -8.4      5.179      7.434
REMARK  2 active torsions:
REMARK  status: ('A' for Active; 'I' for Inactive)
REMARK       I    between atoms: N_4  and  C_5 
REMARK       I    between atoms: C_5  and  N_6 
REMARK    1  A    between atoms: N_6  and  C_7 
REMARK    2  A    between atoms: C_20  and  C_21 
ROOT
HETATM    1  C   UNL     1      40.273 -16.080   2.954  1.00  0.00     0.011 C 
HETATM    2  C   UNL     1      41.710 -15.892   2.480  1.00  0.00     0.002 C 
HETATM    3  C   UNL     1      42.547 -15.086   3.466  1.00  0.00     0.132 C 
HETATM    4  N   UNL     1      42.485 -13.707   3.005  1.00  0.00    -0.325 N 
HETATM    5  C   UNL     1      42.999 -12.595   3.645  1.00  0.00     0.323 C 
HETATM    6  N   UNL     1      43.574 -12.860   4.868  1.00  0.00    -0.309 N 
HETATM    7  O   UNL     1      42.920 -11.472   3.154  1.00  0.00    -0.247 OA
HETATM    8  C   UNL     1      41.960 -13.611   1.639  1.00  0.00     0.125 C 
HETATM    9  C   UNL     1      41.821 -15.076   1.188  1.00  0.00     0.036 C 
HETATM   10  H   UNL     1      44.010 -13.763   4.960  1.00  0.00     0.170 HD
ENDROOT
BRANCH   6  11
HETATM   11  C   UNL     1      43.859 -11.913   5.872  1.00  0.00     0.038 A 
HETATM   12  C   UNL     1      42.867 -11.352   6.683  1.00  0.00     0.062 A 
HETATM   13  C   UNL     1      43.216 -10.467   7.706  1.00  0.00     0.070 A 
HETATM   14  C   UNL     1      44.550 -10.124   7.919  1.00  0.00     0.096 A 
HETATM   15  N   UNL     1      42.221  -9.969   8.545  1.00  0.00    -0.323 N 
HETATM   16  O   UNL     1      44.973  -9.291   8.916  1.00  0.00    -0.335 OA
HETATM   17  C   UNL     1      45.543 -10.686   7.119  1.00  0.00     0.041 A 
HETATM   18  C   UNL     1      43.943  -8.558   9.577  1.00  0.00     0.217 C 
HETATM   19  C   UNL     1      42.504  -9.097   9.557  1.00  0.00     0.251 C 
HETATM   20  C   UNL     1      43.941  -7.137   9.021  1.00  0.00     0.050 C 
HETATM   21  O   UNL     1      41.635  -8.725  10.342  1.00  0.00    -0.270 OA
HETATM   22  C   UNL     1      45.199 -11.584   6.103  1.00  0.00     0.032 A 
HETATM   23  H   UNL     1      41.262 -10.281   8.458  1.00  0.00     0.169 HD
ENDBRANCH   6  11
BRANCH   8  24
HETATM   24  C   UNL     1      40.670 -12.830   1.476  1.00  0.00     0.003 A 
HETATM   25  C   UNL     1      40.432 -12.193   0.250  1.00  0.00     0.124 A 
HETATM   26  F   UNL     1      41.324 -12.313  -0.745  1.00  0.00    -0.205 F 
HETATM   27  C   UNL     1      39.287 -11.431   0.027  1.00  0.00     0.043 A 
HETATM   28  C   UNL     1      38.346 -11.291   1.042  1.00  0.00     0.003 A 
HETATM   29  C   UNL     1      38.556 -11.917   2.270  1.00  0.00     0.001 A 
HETATM   30  C   UNL     1      39.708 -12.680   2.485  1.00  0.00     0.012 A 
ENDBRANCH   8  24
TORSDOF 2
ENDMDL
MODEL 7
REMARK VINA RESULT:      -8.4     15.072     16.951
REMARK  2 active torsions:
REMARK  status: ('A' for Active; 'I' for Inactive)
REMARK       I    between atoms: N_4  and  C_5 
REMARK       I    between atoms: C_5  and  N_6 
REMARK    1  A    between atoms: N_6  and  C_7 
REMARK    2  A    between atoms: C_20  and  C_21 
ROOT
HETATM    1  C   UNL     1      47.663 -30.684   0.581  1.00  0.00     0.011 C 
HETATM    2  C   UNL     1      47.134 -29.412   1.234  1.00  0.00     0.002 C 
HETATM    3  C   UNL     1      45.933 -29.677   2.135  1.00  0.00     0.132 C 
HETATM    4  N   UNL     1      44.757 -29.438   1.311  1.00  0.00    -0.325 N 
HETATM    5  C   UNL     1      43.440 -29.661   1.664  1.00  0.00     0.323 C 
HETATM    6  N   UNL     1      43.272 -30.217   2.912  1.00  0.00    -0.309 N 
HETATM    7  O   UNL     1      42.513 -29.397   0.902  1.00  0.00    -0.247 OA
HETATM    8  C   UNL     1      45.094 -28.732   0.072  1.00  0.00     0.125 C 
HETATM    9  C   UNL     1      46.588 -28.394   0.226  1.00  0.00     0.036 C 
HETATM   10  H   UNL     1      43.961 -29.959   3.602  1.00  0.00     0.170 HD
ENDROOT
BRANCH   6  11
HETATM   11  C   UNL     1      42.109 -30.857   3.386  1.00  0.00     0.038 A 
HETATM   12  C   UNL     1      41.705 -32.118   2.935  1.00  0.00     0.062 A 
HETATM   13  C   UNL     1      40.579 -32.731   3.487  1.00  0.00     0.070 A 
HETATM   14  C   UNL     1      39.841 -32.091   4.481  1.00  0.00     0.096 A 
HETATM   15  N   UNL     1      40.230 -34.015   3.071  1.00  0.00    -0.323 N 
HETATM   16  O   UNL     1      38.747 -32.638   5.090  1.00  0.00    -0.335 OA
HETATM   17  C   UNL     1      40.244 -30.838   4.939  1.00  0.00     0.041 A 
HETATM   18  C   UNL     1      38.221 -33.807   4.465  1.00  0.00     0.217 C 
HETATM   19  C   UNL     1      39.136 -34.660   3.574  1.00  0.00     0.251 C 
HETATM   20  C   UNL     1      36.992 -33.400   3.657  1.00  0.00     0.050 C 
HETATM   21  O   UNL     1      38.879 -35.821   3.262  1.00  0.00    -0.270 OA
HETATM   22  C   UNL     1      41.379 -30.226   4.399  1.00  0.00     0.032 A 
HETATM   23  H   UNL     1      40.809 -34.526   2.418  1.00  0.00     0.169 HD
ENDBRANCH   6  11
BRANCH   8  24
HETATM   24  C   UNL     1      44.799 -29.474  -1.218  1.00  0.00     0.003 A 
HETATM   25  C   UNL     1      44.675 -28.728  -2.398  1.00  0.00     0.124 A 
HETATM   26  F   UNL     1      44.850 -27.398  -2.365  1.00  0.00    -0.205 F 
HETATM   27  C   UNL     1      44.376 -29.328  -3.620  1.00  0.00     0.043 A 
HETATM   28  C   UNL     1      44.191 -30.706  -3.682  1.00  0.00     0.003 A 
HETATM   29  C   UNL     1      44.311 -31.471  -2.524  1.00  0.00     0.001 A 
HETATM   30  C   UNL     1      44.612 -30.862  -1.302  1.00  0.00     0.012 A 
ENDBRANCH   8  24
TORSDOF 2
ENDMDL
MODEL 8
REMARK VINA RESULT:      -7.9     22.247     24.588
REMARK  2 active torsions:
REMARK  status: ('A' for Active; 'I' for Inactive)
REMARK       I    between atoms: N_4  and  C_5 
REMARK       I    between atoms: C_5  and  N_6 
REMARK    1  A    between atoms: N_6  and  C_7 
REMARK    2  A    between atoms: C_20  and  C_21 
ROOT
HETATM    1  C   UNL     1      29.605 -34.848  17.306  1.00  0.00     0.011 C 
HETATM    2  C   UNL     1      28.678 -34.301  16.225  1.00  0.00     0.002 C 
HETATM    3  C   UNL     1      29.129 -34.689  14.821  1.00  0.00     0.132 C 
HETATM    4  N   UNL     1      29.931 -33.574  14.339  1.00  0.00    -0.325 N 
HETATM    5  C   UNL     1      30.646 -33.518  13.158  1.00  0.00     0.323 C 
HETATM    6  N   UNL     1      30.611 -34.678  12.418  1.00  0.00    -0.309 N 
HETATM    7  O   UNL     1      31.270 -32.513  12.827  1.00  0.00    -0.247 OA
HETATM    8  C   UNL     1      29.761 -32.380  15.172  1.00  0.00     0.125 C 
HETATM    9  C   UNL     1      28.653 -32.770  16.166  1.00  0.00     0.036 C 
HETATM   10  H   UNL     1      29.763 -35.218  12.489  1.00  0.00     0.170 HD
ENDROOT
BRANCH   6  11
HETATM   11  C   UNL     1      31.498 -35.026  11.379  1.00  0.00     0.038 A 
HETATM   12  C   UNL     1      32.888 -34.924  11.507  1.00  0.00     0.062 A 
HETATM   13  C   UNL     1      33.720 -35.344  10.467  1.00  0.00     0.070 A 
HETATM   14  C   UNL     1      33.176 -35.855   9.290  1.00  0.00     0.096 A 
HETATM   15  N   UNL     1      35.102 -35.296  10.639  1.00  0.00    -0.323 N 
HETATM   16  O   UNL     1      33.924 -36.314   8.242  1.00  0.00    -0.335 OA
HETATM   17  C   UNL     1      31.793 -35.965   9.160  1.00  0.00     0.041 A 
HETATM   18  C   UNL     1      35.312 -35.993   8.296  1.00  0.00     0.217 C 
HETATM   19  C   UNL     1      35.962 -35.689   9.654  1.00  0.00     0.251 C 
HETATM   20  C   UNL     1      35.563 -34.814   7.359  1.00  0.00     0.050 C 
HETATM   21  O   UNL     1      37.177 -35.719   9.841  1.00  0.00    -0.270 OA
HETATM   22  C   UNL     1      30.956 -35.559  10.204  1.00  0.00     0.032 A 
HETATM   23  H   UNL     1      35.507 -35.014  11.522  1.00  0.00     0.169 HD
ENDBRANCH   6  11
BRANCH   8  24
HETATM   24  C   UNL     1      31.009 -31.871  15.867  1.00  0.00     0.003 A 
HETATM   25  C   UNL     1      31.099 -30.501  16.151  1.00  0.00     0.124 A 
HETATM   26  F   UNL     1      30.080 -29.689  15.832  1.00  0.00    -0.205 F 
HETATM   27  C   UNL     1      32.223 -29.947  16.760  1.00  0.00     0.043 A 
HETATM   28  C   UNL     1      33.294 -30.768  17.102  1.00  0.00     0.003 A 
HETATM   29  C   UNL     1      33.230 -32.134  16.834  1.00  0.00     0.001 A 
HETATM   30  C   UNL     1      32.098 -32.682  16.222  1.00  0.00     0.012 A 
ENDBRANCH   8  24
TORSDOF 2
ENDMDL
MODEL 9
REMARK VINA RESULT:      -7.6     15.040     17.195
REMARK  2 active torsions:
REMARK  status: ('A' for Active; 'I' for Inactive)
REMARK       I    between atoms: N_4  and  C_5 
REMARK       I    between atoms: C_5  and  N_6 
REMARK    1  A    between atoms: N_6  and  C_7 
REMARK    2  A    between atoms: C_20  and  C_21 
ROOT
HETATM    1  C   UNL     1      47.854 -29.363   0.634  1.00  0.00     0.011 C 
HETATM    2  C   UNL     1      46.741 -28.348   0.875  1.00  0.00     0.002 C 
HETATM    3  C   UNL     1      45.741 -28.821   1.924  1.00  0.00     0.132 C 
HETATM    4  N   UNL     1      44.658 -29.451   1.184  1.00  0.00    -0.325 N 
HETATM    5  C   UNL     1      43.576 -30.129   1.715  1.00  0.00     0.323 C 
HETATM    6  N   UNL     1      43.594 -30.241   3.087  1.00  0.00    -0.309 N 
HETATM    7  O   UNL     1      42.696 -30.601   1.001  1.00  0.00    -0.247 OA
HETATM    8  C   UNL     1      44.717 -29.135  -0.246  1.00  0.00     0.125 C 
HETATM    9  C   UNL     1      45.860 -28.110  -0.356  1.00  0.00     0.036 C 
HETATM   10  H   UNL     1      44.026 -29.477   3.583  1.00  0.00     0.170 HD
ENDROOT
BRANCH   6  11
HETATM   11  C   UNL     1      42.836 -31.146   3.855  1.00  0.00     0.038 A 
HETATM   12  C   UNL     1      41.442 -31.067   3.957  1.00  0.00     0.062 A 
HETATM   13  C   UNL     1      40.737 -32.031   4.680  1.00  0.00     0.070 A 
HETATM   14  C   UNL     1      41.412 -33.072   5.316  1.00  0.00     0.096 A 
HETATM   15  N   UNL     1      39.345 -31.971   4.717  1.00  0.00    -0.323 N 
HETATM   16  O   UNL     1      40.791 -34.068   6.015  1.00  0.00    -0.335 OA
HETATM   17  C   UNL     1      42.799 -33.160   5.211  1.00  0.00     0.041 A 
HETATM   18  C   UNL     1      39.411 -33.845   6.299  1.00  0.00     0.217 C 
HETATM   19  C   UNL     1      38.605 -32.885   5.412  1.00  0.00     0.251 C 
HETATM   20  C   UNL     1      39.294 -33.387   7.750  1.00  0.00     0.050 C 
HETATM   21  O   UNL     1      37.377 -32.873   5.375  1.00  0.00    -0.270 OA
HETATM   22  C   UNL     1      43.508 -32.205   4.476  1.00  0.00     0.032 A 
HETATM   23  H   UNL     1      38.840 -31.275   4.184  1.00  0.00     0.169 HD
ENDBRANCH   6  11
BRANCH   8  24
HETATM   24  C   UNL     1      44.904 -30.314  -1.181  1.00  0.00     0.003 A 
HETATM   25  C   UNL     1      44.258 -30.283  -2.425  1.00  0.00     0.124 A 
HETATM   26  F   UNL     1      43.525 -29.212  -2.765  1.00  0.00    -0.205 F 
HETATM   27  C   UNL     1      44.353 -31.338  -3.330  1.00  0.00     0.043 A 
HETATM   28  C   UNL     1      45.108 -32.459  -3.002  1.00  0.00     0.003 A 
HETATM   29  C   UNL     1      45.763 -32.515  -1.773  1.00  0.00     0.001 A 
HETATM   30  C   UNL     1      45.663 -31.452  -0.870  1.00  0.00     0.012 A 
ENDBRANCH   8  24
TORSDOF 2
ENDMDL
MODEL 10
REMARK VINA RESULT:      -7.6      1.920      2.594
REMARK  2 active torsions:
REMARK  status: ('A' for Active; 'I' for Inactive)
REMARK       I    between atoms: N_4  and  C_5 
REMARK       I    between atoms: C_5  and  N_6 
REMARK    1  A    between atoms: N_6  and  C_7 
REMARK    2  A    between atoms: C_20  and  C_21 
ROOT
HETATM    1  C   UNL     1      41.661  -8.953  -0.921  1.00  0.00     0.011 C 
HETATM    2  C   UNL     1      40.703  -8.776   0.253  1.00  0.00     0.002 C 
HETATM    3  C   UNL     1      41.124  -9.587   1.474  1.00  0.00     0.132 C 
HETATM    4  N   UNL     1      40.387 -10.839   1.392  1.00  0.00    -0.325 N 
HETATM    5  C   UNL     1      40.526 -11.937   2.220  1.00  0.00     0.323 C 
HETATM    6  N   UNL     1      41.512 -11.809   3.172  1.00  0.00    -0.309 N 
HETATM    7  O   UNL     1      39.831 -12.940   2.085  1.00  0.00    -0.247 OA
HETATM    8  C   UNL     1      39.296 -10.767   0.416  1.00  0.00     0.125 C 
HETATM    9  C   UNL     1      39.290  -9.295  -0.032  1.00  0.00     0.036 C 
HETATM   10  H   UNL     1      41.672 -10.875   3.514  1.00  0.00     0.170 HD
ENDROOT
BRANCH   6  11
HETATM   11  C   UNL     1      42.099 -12.861   3.904  1.00  0.00     0.038 A 
HETATM   12  C   UNL     1      42.349 -14.120   3.347  1.00  0.00     0.062 A 
HETATM   13  C   UNL     1      42.992 -15.104   4.100  1.00  0.00     0.070 A 
HETATM   14  C   UNL     1      43.380 -14.847   5.415  1.00  0.00     0.096 A 
HETATM   15  N   UNL     1      43.290 -16.330   3.508  1.00  0.00    -0.323 N 
HETATM   16  O   UNL     1      44.040 -15.747   6.204  1.00  0.00    -0.335 OA
HETATM   17  C   UNL     1      43.140 -13.593   5.971  1.00  0.00     0.041 A 
HETATM   18  C   UNL     1      44.078 -17.083   5.706  1.00  0.00     0.217 C 
HETATM   19  C   UNL     1      43.913 -17.329   4.199  1.00  0.00     0.251 C 
HETATM   20  C   UNL     1      43.027 -17.898   6.453  1.00  0.00     0.050 C 
HETATM   21  O   UNL     1      44.244 -18.377   3.648  1.00  0.00    -0.270 OA
HETATM   22  C   UNL     1      42.509 -12.600   5.216  1.00  0.00     0.032 A 
HETATM   23  H   UNL     1      43.097 -16.495   2.528  1.00  0.00     0.169 HD
ENDBRANCH   6  11
BRANCH   8  24
HETATM   24  C   UNL     1      39.386 -11.728  -0.754  1.00  0.00     0.003 A 
HETATM   25  C   UNL     1      38.196 -12.273  -1.258  1.00  0.00     0.124 A 
HETATM   26  F   UNL     1      37.021 -11.912  -0.720  1.00  0.00    -0.205 F 
HETATM   27  C   UNL     1      38.192 -13.186  -2.310  1.00  0.00     0.043 A 
HETATM   28  C   UNL     1      39.398 -13.576  -2.886  1.00  0.00     0.003 A 
HETATM   29  C   UNL     1      40.595 -13.048  -2.406  1.00  0.00     0.001 A 
HETATM   30  C   UNL     1      40.590 -12.132  -1.349  1.00  0.00     0.012 A 
ENDBRANCH   8  24
TORSDOF 2
ENDMDL
