MODEL 1
REMARK VINA RESULT:      -8.5      0.000      0.000
REMARK  4 active torsions:
REMARK  status: ('A' for Active; 'I' for Inactive)
REMARK    1  A    between atoms: O_2  and  C_3 
REMARK    2  A    between atoms: C_6  and  C_7 
REMARK    3  A    between atoms: C_12  and  N_13 
REMARK    4  A    between atoms: C_15  and  C_16 
ROOT
HETATM    1  C   UNL     1      42.784 -14.553   5.269  1.00  0.00     0.135 C 
HETATM    2  N   UNL     1      41.355 -14.466   5.555  1.00  0.00    -0.214 N 
HETATM    3  C   UNL     1      40.777 -13.265   5.754  1.00  0.00     0.736 A 
HETATM    4  N   UNL     1      41.432 -12.102   5.459  1.00  0.00    -0.074 N 
HETATM    5  N   UNL     1      40.663 -11.026   5.696  1.00  0.00     0.037 NA
HETATM    6  C   UNL     1      39.554 -11.613   6.141  1.00  0.00     0.753 A 
HETATM    7  N   UNL     1      39.591 -12.974   6.220  1.00  0.00     0.131 NA
HETATM    8  C   UNL     1      42.800 -12.030   4.967  1.00  0.00     0.164 C 
HETATM    9  C   UNL     1      43.213 -13.382   4.362  1.00  0.00     0.063 C 
HETATM   10  H   UNL     1      40.933 -15.272   6.009  1.00  0.00     0.178 HD
ENDROOT
BRANCH   1  11
HETATM   11  C   UNL     1      43.120 -15.875   4.600  1.00  0.00    -0.035 A 
HETATM   12  C   UNL     1      42.761 -16.150   3.272  1.00  0.00     0.012 A 
HETATM   13  C   UNL     1      43.129 -17.355   2.669  1.00  0.00     0.037 A 
HETATM   14  C   UNL     1      43.883 -18.299   3.366  1.00  0.00     0.068 A 
HETATM   15  C   UNL     1      44.243 -18.041   4.688  1.00  0.00     0.037 A 
HETATM   16  C   UNL     1      43.865 -16.838   5.298  1.00  0.00     0.012 A 
BRANCH  14  17
HETATM   17  O   UNL     1      44.194 -19.424   2.654  1.00  0.00    -0.356 OA
HETATM   18  C   UNL     1      43.108 -20.123   2.059  1.00  0.00     0.210 C 
ENDBRANCH  14  17
ENDBRANCH   1  11
BRANCH   8  19
HETATM   19  C   UNL     1      43.792 -11.556   6.025  1.00  0.00    -0.031 A 
HETATM   20  C   UNL     1      43.413 -11.217   7.337  1.00  0.00     0.028 A 
HETATM   21  C   UNL     1      44.370 -10.812   8.268  1.00  0.00     0.011 A 
HETATM   22 BR   UNL     1      43.834 -10.358  10.024  1.00  0.00    -0.051 Br
HETATM   23  C   UNL     1      45.716 -10.740   7.919  1.00  0.00     0.019 A 
HETATM   24  C   UNL     1      46.109 -11.077   6.627  1.00  0.00     0.002 A 
HETATM   25  C   UNL     1      45.157 -11.483   5.689  1.00  0.00     0.009 A 
ENDBRANCH   8  19
BRANCH   6  26
HETATM   26  N   UNL     1      38.454 -10.980   6.539  1.00  0.00    -0.229 N 
HETATM   27  H   UNL     1      37.625 -11.543   6.669  1.00  0.00     0.174 HD
HETATM   28  H   UNL     1      38.293 -10.061   6.152  1.00  0.00     0.174 HD
ENDBRANCH   6  26
TORSDOF 4
ENDMDL
MODEL 2
REMARK VINA RESULT:      -8.5      4.481      7.012
REMARK  4 active torsions:
REMARK  status: ('A' for Active; 'I' for Inactive)
REMARK    1  A    between atoms: O_2  and  C_3 
REMARK    2  A    between atoms: C_6  and  C_7 
REMARK    3  A    between atoms: C_12  and  N_13 
REMARK    4  A    between atoms: C_15  and  C_16 
ROOT
HETATM    1  C   UNL     1      41.251 -15.338   3.258  1.00  0.00     0.135 C 
HETATM    2  N   UNL     1      41.005 -14.953   4.644  1.00  0.00    -0.214 N 
HETATM    3  C   UNL     1      41.868 -15.319   5.612  1.00  0.00     0.736 A 
HETATM    4  N   UNL     1      43.099 -15.834   5.311  1.00  0.00    -0.074 N 
HETATM    5  N   UNL     1      43.812 -16.095   6.420  1.00  0.00     0.037 NA
HETATM    6  C   UNL     1      42.946 -15.719   7.360  1.00  0.00     0.753 A 
HETATM    7  N   UNL     1      41.740 -15.267   6.912  1.00  0.00     0.131 NA
HETATM    8  C   UNL     1      43.576 -16.089   3.960  1.00  0.00     0.164 C 
HETATM    9  C   UNL     1      42.760 -15.263   2.950  1.00  0.00     0.063 C 
HETATM   10  H   UNL     1      40.033 -14.811   4.910  1.00  0.00     0.178 HD
ENDROOT
BRANCH   1  11
HETATM   11  C   UNL     1      40.484 -14.439   2.304  1.00  0.00    -0.035 A 
HETATM   12  C   UNL     1      39.774 -13.314   2.750  1.00  0.00     0.012 A 
HETATM   13  C   UNL     1      39.120 -12.478   1.842  1.00  0.00     0.037 A 
HETATM   14  C   UNL     1      39.180 -12.730   0.472  1.00  0.00     0.068 A 
HETATM   15  C   UNL     1      39.878 -13.846   0.015  1.00  0.00     0.037 A 
HETATM   16  C   UNL     1      40.525 -14.693   0.924  1.00  0.00     0.012 A 
BRANCH  14  17
HETATM   17  O   UNL     1      38.516 -11.824  -0.307  1.00  0.00    -0.356 OA
HETATM   18  C   UNL     1      37.914 -12.324  -1.495  1.00  0.00     0.210 C 
ENDBRANCH  14  17
ENDBRANCH   1  11
BRANCH   8  19
HETATM   19  C   UNL     1      43.590 -17.572   3.601  1.00  0.00    -0.031 A 
HETATM   20  C   UNL     1      43.943 -18.581   4.515  1.00  0.00     0.028 A 
HETATM   21  C   UNL     1      43.915 -19.923   4.134  1.00  0.00     0.011 A 
HETATM   22 BR   UNL     1      44.398 -21.260   5.381  1.00  0.00    -0.051 Br
HETATM   23  C   UNL     1      43.532 -20.289   2.846  1.00  0.00     0.019 A 
HETATM   24  C   UNL     1      43.174 -19.303   1.931  1.00  0.00     0.002 A 
HETATM   25  C   UNL     1      43.201 -17.957   2.304  1.00  0.00     0.009 A 
ENDBRANCH   8  19
BRANCH   6  26
HETATM   26  N   UNL     1      43.156 -15.786   8.671  1.00  0.00    -0.229 N 
HETATM   27  H   UNL     1      43.646 -15.012   9.096  1.00  0.00     0.174 HD
HETATM   28  H   UNL     1      43.381 -16.696   9.049  1.00  0.00     0.174 HD
ENDBRANCH   6  26
TORSDOF 4
ENDMDL
MODEL 3
REMARK VINA RESULT:      -8.4      3.857      5.561
REMARK  4 active torsions:
REMARK  status: ('A' for Active; 'I' for Inactive)
REMARK    1  A    between atoms: O_2  and  C_3 
REMARK    2  A    between atoms: C_6  and  C_7 
REMARK    3  A    between atoms: C_12  and  N_13 
REMARK    4  A    between atoms: C_15  and  C_16 
ROOT
HETATM    1  C   UNL     1      41.988 -15.263   2.905  1.00  0.00     0.135 C 
HETATM    2  N   UNL     1      41.938 -14.321   4.018  1.00  0.00    -0.214 N 
HETATM    3  C   UNL     1      40.991 -13.363   4.053  1.00  0.00     0.736 A 
HETATM    4  N   UNL     1      39.920 -13.390   3.203  1.00  0.00    -0.074 N 
HETATM    5  N   UNL     1      39.079 -12.368   3.432  1.00  0.00     0.037 NA
HETATM    6  C   UNL     1      39.708 -11.755   4.433  1.00  0.00     0.753 A 
HETATM    7  N   UNL     1      40.891 -12.312   4.823  1.00  0.00     0.131 NA
HETATM    8  C   UNL     1      39.719 -14.390   2.164  1.00  0.00     0.164 C 
HETATM    9  C   UNL     1      40.558 -15.642   2.470  1.00  0.00     0.063 C 
HETATM   10  H   UNL     1      42.819 -14.128   4.490  1.00  0.00     0.178 HD
ENDROOT
BRANCH   1  11
HETATM   11  C   UNL     1      42.760 -16.513   3.291  1.00  0.00    -0.035 A 
HETATM   12  C   UNL     1      43.295 -16.691   4.576  1.00  0.00     0.012 A 
HETATM   13  C   UNL     1      43.956 -17.874   4.915  1.00  0.00     0.037 A 
HETATM   14  C   UNL     1      44.075 -18.913   3.992  1.00  0.00     0.068 A 
HETATM   15  C   UNL     1      43.551 -18.748   2.711  1.00  0.00     0.037 A 
HETATM   16  C   UNL     1      42.898 -17.558   2.364  1.00  0.00     0.012 A 
BRANCH  14  17
HETATM   17  O   UNL     1      44.724 -20.022   4.458  1.00  0.00    -0.356 OA
HETATM   18  C   UNL     1      44.019 -20.829   5.393  1.00  0.00     0.210 C 
ENDBRANCH  14  17
ENDBRANCH   1  11
BRANCH   8  19
HETATM   19  C   UNL     1      39.989 -13.855   0.760  1.00  0.00    -0.031 A 
HETATM   20  C   UNL     1      40.482 -12.561   0.513  1.00  0.00     0.028 A 
HETATM   21  C   UNL     1      40.732 -12.137  -0.794  1.00  0.00     0.011 A 
HETATM   22 BR   UNL     1      41.390 -10.391  -1.100  1.00  0.00    -0.051 Br
HETATM   23  C   UNL     1      40.504 -12.986  -1.873  1.00  0.00     0.019 A 
HETATM   24  C   UNL     1      40.022 -14.272  -1.645  1.00  0.00     0.002 A 
HETATM   25  C   UNL     1      39.769 -14.704  -0.340  1.00  0.00     0.009 A 
ENDBRANCH   8  19
BRANCH   6  26
HETATM   26  N   UNL     1      39.295 -10.645   5.038  1.00  0.00    -0.229 N 
HETATM   27  H   UNL     1      39.771  -9.788   4.796  1.00  0.00     0.174 HD
HETATM   28  H   UNL     1      39.031 -10.730   6.010  1.00  0.00     0.174 HD
ENDBRANCH   6  26
TORSDOF 4
ENDMDL
MODEL 4
REMARK VINA RESULT:      -8.3      4.422      6.215
REMARK  4 active torsions:
REMARK  status: ('A' for Active; 'I' for Inactive)
REMARK    1  A    between atoms: O_2  and  C_3 
REMARK    2  A    between atoms: C_6  and  C_7 
REMARK    3  A    between atoms: C_12  and  N_13 
REMARK    4  A    between atoms: C_15  and  C_16 
ROOT
HETATM    1  C   UNL     1      42.375 -14.985   2.226  1.00  0.00     0.135 C 
HETATM    2  N   UNL     1      42.920 -13.783   2.849  1.00  0.00    -0.214 N 
HETATM    3  C   UNL     1      42.277 -12.606   2.727  1.00  0.00     0.736 A 
HETATM    4  N   UNL     1      40.999 -12.540   2.243  1.00  0.00    -0.074 N 
HETATM    5  N   UNL     1      40.534 -11.279   2.241  1.00  0.00     0.037 NA
HETATM    6  C   UNL     1      41.588 -10.630   2.732  1.00  0.00     0.753 A 
HETATM    7  N   UNL     1      42.681 -11.397   3.015  1.00  0.00     0.131 NA
HETATM    8  C   UNL     1      40.239 -13.686   1.769  1.00  0.00     0.164 C 
HETATM    9  C   UNL     1      40.837 -14.985   2.336  1.00  0.00     0.063 C 
HETATM   10  H   UNL     1      43.929 -13.756   2.978  1.00  0.00     0.178 HD
ENDROOT
BRANCH   1  11
HETATM   11  C   UNL     1      42.940 -16.235   2.879  1.00  0.00    -0.035 A 
HETATM   12  C   UNL     1      43.101 -17.436   2.172  1.00  0.00     0.012 A 
HETATM   13  C   UNL     1      43.670 -18.554   2.786  1.00  0.00     0.037 A 
HETATM   14  C   UNL     1      44.114 -18.492   4.107  1.00  0.00     0.068 A 
HETATM   15  C   UNL     1      43.957 -17.306   4.822  1.00  0.00     0.037 A 
HETATM   16  C   UNL     1      43.375 -16.187   4.212  1.00  0.00     0.012 A 
BRANCH  14  17
HETATM   17  O   UNL     1      44.671 -19.647   4.579  1.00  0.00    -0.356 OA
HETATM   18  C   UNL     1      43.932 -20.844   4.371  1.00  0.00     0.210 C 
ENDBRANCH  14  17
ENDBRANCH   1  11
BRANCH   8  19
HETATM   19  C   UNL     1      40.116 -13.735   0.248  1.00  0.00    -0.031 A 
HETATM   20  C   UNL     1      40.538 -12.688  -0.591  1.00  0.00     0.028 A 
HETATM   21  C   UNL     1      40.421 -12.800  -1.977  1.00  0.00     0.011 A 
HETATM   22 BR   UNL     1      40.991 -11.376  -3.082  1.00  0.00    -0.051 Br
HETATM   23  C   UNL     1      39.891 -13.951  -2.554  1.00  0.00     0.019 A 
HETATM   24  C   UNL     1      39.474 -14.999  -1.739  1.00  0.00     0.002 A 
HETATM   25  C   UNL     1      39.587 -14.894  -0.350  1.00  0.00     0.009 A 
ENDBRANCH   8  19
BRANCH   6  26
HETATM   26  N   UNL     1      41.663  -9.317   2.927  1.00  0.00    -0.229 N 
HETATM   27  H   UNL     1      41.070  -8.927   3.646  1.00  0.00     0.174 HD
HETATM   28  H   UNL     1      41.774  -8.741   2.104  1.00  0.00     0.174 HD
ENDBRANCH   6  26
TORSDOF 4
ENDMDL
MODEL 5
REMARK VINA RESULT:      -8.2      3.410      4.375
REMARK  4 active torsions:
REMARK  status: ('A' for Active; 'I' for Inactive)
REMARK    1  A    between atoms: O_2  and  C_3 
REMARK    2  A    between atoms: C_6  and  C_7 
REMARK    3  A    between atoms: C_12  and  N_13 
REMARK    4  A    between atoms: C_15  and  C_16 
ROOT
HETATM    1  C   UNL     1      42.189 -15.854   2.776  1.00  0.00     0.135 C 
HETATM    2  N   UNL     1      41.148 -16.064   1.775  1.00  0.00    -0.214 N 
HETATM    3  C   UNL     1      40.716 -15.035   1.021  1.00  0.00     0.736 A 
HETATM    4  N   UNL     1      41.389 -13.845   0.988  1.00  0.00    -0.074 N 
HETATM    5  N   UNL     1      40.812 -12.971   0.146  1.00  0.00     0.037 NA
HETATM    6  C   UNL     1      39.787 -13.699  -0.294  1.00  0.00     0.753 A 
HETATM    7  N   UNL     1      39.675 -14.952   0.234  1.00  0.00     0.131 NA
HETATM    8  C   UNL     1      42.573 -13.547   1.781  1.00  0.00     0.164 C 
HETATM    9  C   UNL     1      43.237 -14.854   2.246  1.00  0.00     0.063 C 
HETATM   10  H   UNL     1      40.495 -16.824   1.952  1.00  0.00     0.178 HD
ENDROOT
BRANCH   1  11
HETATM   11  C   UNL     1      42.863 -17.166   3.137  1.00  0.00    -0.035 A 
HETATM   12  C   UNL     1      43.396 -17.403   4.414  1.00  0.00     0.012 A 
HETATM   13  C   UNL     1      43.965 -18.639   4.731  1.00  0.00     0.037 A 
HETATM   14  C   UNL     1      43.992 -19.671   3.795  1.00  0.00     0.068 A 
HETATM   15  C   UNL     1      43.470 -19.449   2.521  1.00  0.00     0.037 A 
HETATM   16  C   UNL     1      42.909 -18.207   2.197  1.00  0.00     0.012 A 
BRANCH  14  17
HETATM   17  O   UNL     1      44.556 -20.834   4.239  1.00  0.00    -0.356 OA
HETATM   18  C   UNL     1      44.244 -21.227   5.570  1.00  0.00     0.210 C 
ENDBRANCH  14  17
ENDBRANCH   1  11
BRANCH   8  19
HETATM   19  C   UNL     1      42.289 -12.608   2.951  1.00  0.00    -0.031 A 
HETATM   20  C   UNL     1      41.091 -12.640   3.689  1.00  0.00     0.028 A 
HETATM   21  C   UNL     1      40.899 -11.770   4.763  1.00  0.00     0.011 A 
HETATM   22 BR   UNL     1      39.279 -11.831   5.736  1.00  0.00    -0.051 Br
HETATM   23  C   UNL     1      41.888 -10.861   5.128  1.00  0.00     0.019 A 
HETATM   24  C   UNL     1      43.082 -10.821   4.412  1.00  0.00     0.002 A 
HETATM   25  C   UNL     1      43.282 -11.687   3.335  1.00  0.00     0.009 A 
ENDBRANCH   8  19
BRANCH   6  26
HETATM   26  N   UNL     1      38.867 -13.289  -1.163  1.00  0.00    -0.229 N 
HETATM   27  H   UNL     1      37.902 -13.456  -0.919  1.00  0.00     0.174 HD
HETATM   28  H   UNL     1      39.088 -13.398  -2.143  1.00  0.00     0.174 HD
ENDBRANCH   6  26
TORSDOF 4
ENDMDL
MODEL 6
REMARK VINA RESULT:      -8.2      4.071      7.230
REMARK  4 active torsions:
REMARK  status: ('A' for Active; 'I' for Inactive)
REMARK    1  A    between atoms: O_2  and  C_3 
REMARK    2  A    between atoms: C_6  and  C_7 
REMARK    3  A    between atoms: C_12  and  N_13 
REMARK    4  A    between atoms: C_15  and  C_16 
ROOT
HETATM    1  C   UNL     1      43.105 -13.391   4.696  1.00  0.00     0.135 C 
HETATM    2  N   UNL     1      42.714 -12.800   3.420  1.00  0.00    -0.214 N 
HETATM    3  C   UNL     1      42.042 -13.534   2.512  1.00  0.00     0.736 A 
HETATM    4  N   UNL     1      41.498 -14.745   2.838  1.00  0.00    -0.074 N 
HETATM    5  N   UNL     1      40.841 -15.289   1.799  1.00  0.00     0.037 NA
HETATM    6  C   UNL     1      41.034 -14.353   0.872  1.00  0.00     0.753 A 
HETATM    7  N   UNL     1      41.785 -13.280   1.256  1.00  0.00     0.131 NA
HETATM    8  C   UNL     1      41.627 -15.382   4.140  1.00  0.00     0.164 C 
HETATM    9  C   UNL     1      41.995 -14.333   5.204  1.00  0.00     0.063 C 
HETATM   10  H   UNL     1      43.296 -12.041   3.074  1.00  0.00     0.178 HD
ENDROOT
BRANCH   1  11
HETATM   11  C   UNL     1      43.379 -12.311   5.730  1.00  0.00    -0.035 A 
HETATM   12  C   UNL     1      44.516 -12.339   6.551  1.00  0.00     0.012 A 
HETATM   13  C   UNL     1      44.766 -11.305   7.457  1.00  0.00     0.037 A 
HETATM   14  C   UNL     1      43.904 -10.212   7.545  1.00  0.00     0.068 A 
HETATM   15  C   UNL     1      42.769 -10.174   6.738  1.00  0.00     0.037 A 
HETATM   16  C   UNL     1      42.509 -11.215   5.837  1.00  0.00     0.012 A 
BRANCH  14  17
HETATM   17  O   UNL     1      44.275  -9.261   8.454  1.00  0.00    -0.356 OA
HETATM   18  C   UNL     1      45.655  -8.919   8.493  1.00  0.00     0.210 C 
ENDBRANCH  14  17
ENDBRANCH   1  11
BRANCH   8  19
HETATM   19  C   UNL     1      42.604 -16.555   4.138  1.00  0.00    -0.031 A 
HETATM   20  C   UNL     1      42.562 -17.588   3.183  1.00  0.00     0.028 A 
HETATM   21  C   UNL     1      43.498 -18.623   3.220  1.00  0.00     0.011 A 
HETATM   22 BR   UNL     1      43.418 -20.001   1.928  1.00  0.00    -0.051 Br
HETATM   23  C   UNL     1      44.490 -18.651   4.196  1.00  0.00     0.019 A 
HETATM   24  C   UNL     1      44.549 -17.633   5.144  1.00  0.00     0.002 A 
HETATM   25  C   UNL     1      43.616 -16.594   5.115  1.00  0.00     0.009 A 
ENDBRANCH   8  19
BRANCH   6  26
HETATM   26  N   UNL     1      40.590 -14.406  -0.380  1.00  0.00    -0.229 N 
HETATM   27  H   UNL     1      40.867 -15.207  -0.930  1.00  0.00     0.174 HD
HETATM   28  H   UNL     1      40.551 -13.531  -0.885  1.00  0.00     0.174 HD
ENDBRANCH   6  26
TORSDOF 4
ENDMDL
MODEL 7
REMARK VINA RESULT:      -8.0      4.687      6.336
REMARK  4 active torsions:
REMARK  status: ('A' for Active; 'I' for Inactive)
REMARK    1  A    between atoms: O_2  and  C_3 
REMARK    2  A    between atoms: C_6  and  C_7 
REMARK    3  A    between atoms: C_12  and  N_13 
REMARK    4  A    between atoms: C_15  and  C_16 
ROOT
HETATM    1  C   UNL     1      41.113 -14.318   1.861  1.00  0.00     0.135 C 
HETATM    2  N   UNL     1      40.630 -13.273   2.758  1.00  0.00    -0.214 N 
HETATM    3  C   UNL     1      41.314 -12.974   3.880  1.00  0.00     0.736 A 
HETATM    4  N   UNL     1      42.579 -13.449   4.090  1.00  0.00    -0.074 N 
HETATM    5  N   UNL     1      43.091 -13.002   5.249  1.00  0.00     0.037 NA
HETATM    6  C   UNL     1      42.076 -12.263   5.694  1.00  0.00     0.753 A 
HETATM    7  N   UNL     1      40.963 -12.242   4.904  1.00  0.00     0.131 NA
HETATM    8  C   UNL     1      43.283 -14.345   3.184  1.00  0.00     0.164 C 
HETATM    9  C   UNL     1      42.652 -14.277   1.783  1.00  0.00     0.063 C 
HETATM   10  H   UNL     1      39.627 -13.103   2.760  1.00  0.00     0.178 HD
ENDROOT
BRANCH   1  11
HETATM   11  C   UNL     1      40.520 -14.154   0.472  1.00  0.00    -0.035 A 
HETATM   12  C   UNL     1      40.777 -13.023  -0.318  1.00  0.00     0.012 A 
HETATM   13  C   UNL     1      40.258 -12.924  -1.611  1.00  0.00     0.037 A 
HETATM   14  C   UNL     1      39.495 -13.959  -2.153  1.00  0.00     0.068 A 
HETATM   15  C   UNL     1      39.229 -15.086  -1.378  1.00  0.00     0.037 A 
HETATM   16  C   UNL     1      39.738 -15.182  -0.076  1.00  0.00     0.012 A 
BRANCH  14  17
HETATM   17  O   UNL     1      39.067 -13.746  -3.434  1.00  0.00    -0.356 OA
HETATM   18  C   UNL     1      38.099 -14.655  -3.943  1.00  0.00     0.210 C 
ENDBRANCH  14  17
ENDBRANCH   1  11
BRANCH   8  19
HETATM   19  C   UNL     1      43.361 -15.779   3.702  1.00  0.00    -0.031 A 
HETATM   20  C   UNL     1      43.368 -16.902   2.854  1.00  0.00     0.028 A 
HETATM   21  C   UNL     1      43.465 -18.189   3.386  1.00  0.00     0.011 A 
HETATM   22 BR   UNL     1      43.468 -19.682   2.226  1.00  0.00    -0.051 Br
HETATM   23  C   UNL     1      43.562 -18.384   4.761  1.00  0.00     0.019 A 
HETATM   24  C   UNL     1      43.563 -17.283   5.613  1.00  0.00     0.002 A 
HETATM   25  C   UNL     1      43.465 -15.992   5.089  1.00  0.00     0.009 A 
ENDBRANCH   8  19
BRANCH   6  26
HETATM   26  N   UNL     1      42.056 -11.592   6.842  1.00  0.00    -0.229 N 
HETATM   27  H   UNL     1      41.913 -10.594   6.785  1.00  0.00     0.174 HD
HETATM   28  H   UNL     1      42.706 -11.893   7.555  1.00  0.00     0.174 HD
ENDBRANCH   6  26
TORSDOF 4
ENDMDL
MODEL 8
REMARK VINA RESULT:      -8.0      3.808      6.996
REMARK  4 active torsions:
REMARK  status: ('A' for Active; 'I' for Inactive)
REMARK    1  A    between atoms: O_2  and  C_3 
REMARK    2  A    between atoms: C_6  and  C_7 
REMARK    3  A    between atoms: C_12  and  N_13 
REMARK    4  A    between atoms: C_15  and  C_16 
ROOT
HETATM    1  C   UNL     1      43.564 -12.103   4.698  1.00  0.00     0.135 C 
HETATM    2  N   UNL     1      43.263 -11.093   3.688  1.00  0.00    -0.214 N 
HETATM    3  C   UNL     1      42.408 -11.373   2.685  1.00  0.00     0.736 A 
HETATM    4  N   UNL     1      41.621 -12.491   2.711  1.00  0.00    -0.074 N 
HETATM    5  N   UNL     1      40.818 -12.558   1.636  1.00  0.00     0.037 NA
HETATM    6  C   UNL     1      41.177 -11.447   0.995  1.00  0.00     0.753 A 
HETATM    7  N   UNL     1      42.162 -10.711   1.585  1.00  0.00     0.131 NA
HETATM    8  C   UNL     1      41.658 -13.499   3.761  1.00  0.00     0.164 C 
HETATM    9  C   UNL     1      42.294 -12.911   5.032  1.00  0.00     0.063 C 
HETATM   10  H   UNL     1      43.985 -10.399   3.510  1.00  0.00     0.178 HD
ENDROOT
BRANCH   1  11
HETATM   11  C   UNL     1      44.113 -11.458   5.959  1.00  0.00    -0.035 A 
HETATM   12  C   UNL     1      45.487 -11.431   6.243  1.00  0.00     0.012 A 
HETATM   13  C   UNL     1      45.966 -10.785   7.386  1.00  0.00     0.037 A 
HETATM   14  C   UNL     1      45.091 -10.134   8.255  1.00  0.00     0.068 A 
HETATM   15  C   UNL     1      43.723 -10.157   7.986  1.00  0.00     0.037 A 
HETATM   16  C   UNL     1      43.240 -10.813   6.847  1.00  0.00     0.012 A 
BRANCH  14  17
HETATM   17  O   UNL     1      45.690  -9.524   9.321  1.00  0.00    -0.356 OA
HETATM   18  C   UNL     1      45.041  -9.658  10.580  1.00  0.00     0.210 C 
ENDBRANCH  14  17
ENDBRANCH   1  11
BRANCH   8  19
HETATM   19  C   UNL     1      42.348 -14.789   3.327  1.00  0.00    -0.031 A 
HETATM   20  C   UNL     1      42.764 -15.781   4.234  1.00  0.00     0.028 A 
HETATM   21  C   UNL     1      43.370 -16.951   3.775  1.00  0.00     0.011 A 
HETATM   22 BR   UNL     1      43.924 -18.266   5.016  1.00  0.00    -0.051 Br
HETATM   23  C   UNL     1      43.568 -17.162   2.413  1.00  0.00     0.019 A 
HETATM   24  C   UNL     1      43.156 -16.194   1.501  1.00  0.00     0.002 A 
HETATM   25  C   UNL     1      42.550 -15.019   1.953  1.00  0.00     0.009 A 
ENDBRANCH   8  19
BRANCH   6  26
HETATM   26  N   UNL     1      40.681 -11.034  -0.168  1.00  0.00    -0.229 N 
HETATM   27  H   UNL     1      41.192 -10.308  -0.650  1.00  0.00     0.174 HD
HETATM   28  H   UNL     1      39.675 -10.969  -0.235  1.00  0.00     0.174 HD
ENDBRANCH   6  26
TORSDOF 4
ENDMDL
MODEL 9
REMARK VINA RESULT:      -7.5      3.595      4.846
REMARK  4 active torsions:
REMARK  status: ('A' for Active; 'I' for Inactive)
REMARK    1  A    between atoms: O_2  and  C_3 
REMARK    2  A    between atoms: C_6  and  C_7 
REMARK    3  A    between atoms: C_12  and  N_13 
REMARK    4  A    between atoms: C_15  and  C_16 
ROOT
HETATM    1  C   UNL     1      42.484 -14.854   3.700  1.00  0.00     0.135 C 
HETATM    2  N   UNL     1      42.908 -14.166   4.916  1.00  0.00    -0.214 N 
HETATM    3  C   UNL     1      42.253 -13.066   5.335  1.00  0.00     0.736 A 
HETATM    4  N   UNL     1      41.049 -12.706   4.796  1.00  0.00    -0.074 N 
HETATM    5  N   UNL     1      40.552 -11.604   5.382  1.00  0.00     0.037 NA
HETATM    6  C   UNL     1      41.514 -11.345   6.267  1.00  0.00     0.753 A 
HETATM    7  N   UNL     1      42.581 -12.195   6.252  1.00  0.00     0.131 NA
HETATM    8  C   UNL     1      40.390 -13.413   3.707  1.00  0.00     0.164 C 
HETATM    9  C   UNL     1      40.945 -14.843   3.598  1.00  0.00     0.063 C 
HETATM   10  H   UNL     1      43.890 -14.253   5.168  1.00  0.00     0.178 HD
ENDROOT
BRANCH   1  11
HETATM   11  C   UNL     1      42.993 -16.285   3.684  1.00  0.00    -0.035 A 
HETATM   12  C   UNL     1      43.542 -16.892   4.824  1.00  0.00     0.012 A 
HETATM   13  C   UNL     1      43.956 -18.227   4.791  1.00  0.00     0.037 A 
HETATM   14  C   UNL     1      43.808 -18.990   3.633  1.00  0.00     0.068 A 
HETATM   15  C   UNL     1      43.268 -18.397   2.493  1.00  0.00     0.037 A 
HETATM   16  C   UNL     1      42.863 -17.057   2.519  1.00  0.00     0.012 A 
BRANCH  14  17
HETATM   17  O   UNL     1      44.231 -20.285   3.742  1.00  0.00    -0.356 OA
HETATM   18  C   UNL     1      44.353 -20.808   5.058  1.00  0.00     0.210 C 
ENDBRANCH  14  17
ENDBRANCH   1  11
BRANCH   8  19
HETATM   19  C   UNL     1      40.471 -12.670   2.376  1.00  0.00    -0.031 A 
HETATM   20  C   UNL     1      39.606 -12.931   1.297  1.00  0.00     0.028 A 
HETATM   21  C   UNL     1      39.714 -12.202   0.112  1.00  0.00     0.011 A 
HETATM   22 BR   UNL     1      38.542 -12.575  -1.325  1.00  0.00    -0.051 Br
HETATM   23  C   UNL     1      40.672 -11.202  -0.023  1.00  0.00     0.019 A 
HETATM   24  C   UNL     1      41.532 -10.927   1.037  1.00  0.00     0.002 A 
HETATM   25  C   UNL     1      41.431 -11.652   2.227  1.00  0.00     0.009 A 
ENDBRANCH   8  19
BRANCH   6  26
HETATM   26  N   UNL     1      41.524 -10.322   7.116  1.00  0.00    -0.229 N 
HETATM   27  H   UNL     1      41.499  -9.395   6.716  1.00  0.00     0.174 HD
HETATM   28  H   UNL     1      42.105 -10.420   7.937  1.00  0.00     0.174 HD
ENDBRANCH   6  26
TORSDOF 4
ENDMDL
MODEL 10
REMARK VINA RESULT:      -7.5     10.000     12.762
REMARK  4 active torsions:
REMARK  status: ('A' for Active; 'I' for Inactive)
REMARK    1  A    between atoms: O_2  and  C_3 
REMARK    2  A    between atoms: C_6  and  C_7 
REMARK    3  A    between atoms: C_12  and  N_13 
REMARK    4  A    between atoms: C_15  and  C_16 
ROOT
HETATM    1  C   UNL     1      41.140  -7.865  15.185  1.00  0.00     0.135 C 
HETATM    2  N   UNL     1      40.099  -6.932  14.764  1.00  0.00    -0.214 N 
HETATM    3  C   UNL     1      39.644  -5.995  15.618  1.00  0.00     0.736 A 
HETATM    4  N   UNL     1      40.293  -5.726  16.791  1.00  0.00    -0.074 N 
HETATM    5  N   UNL     1      39.696  -4.734  17.473  1.00  0.00     0.037 NA
HETATM    6  C   UNL     1      38.684  -4.452  16.654  1.00  0.00     0.753 A 
HETATM    7  N   UNL     1      38.599  -5.215  15.526  1.00  0.00     0.131 NA
HETATM    8  C   UNL     1      41.474  -6.436  17.260  1.00  0.00     0.164 C 
HETATM    9  C   UNL     1      42.165  -7.142  16.081  1.00  0.00     0.063 C 
HETATM   10  H   UNL     1      39.462  -7.259  14.041  1.00  0.00     0.178 HD
ENDROOT
BRANCH   1  11
HETATM   11  C   UNL     1      41.841  -8.471  13.981  1.00  0.00    -0.035 A 
HETATM   12  C   UNL     1      41.358  -9.621  13.339  1.00  0.00     0.012 A 
HETATM   13  C   UNL     1      41.997 -10.124  12.203  1.00  0.00     0.037 A 
HETATM   14  C   UNL     1      43.112  -9.480  11.669  1.00  0.00     0.068 A 
HETATM   15  C   UNL     1      43.605  -8.338  12.299  1.00  0.00     0.037 A 
HETATM   16  C   UNL     1      42.973  -7.838  13.445  1.00  0.00     0.012 A 
BRANCH  14  17
HETATM   17  O   UNL     1      43.628 -10.062  10.545  1.00  0.00    -0.356 OA
HETATM   18  C   UNL     1      45.021  -9.886  10.317  1.00  0.00     0.210 C 
ENDBRANCH  14  17
ENDBRANCH   1  11
BRANCH   8  19
HETATM   19  C   UNL     1      41.176  -7.403  18.404  1.00  0.00    -0.031 A 
HETATM   20  C   UNL     1      42.169  -7.900  19.268  1.00  0.00     0.028 A 
HETATM   21  C   UNL     1      41.831  -8.764  20.311  1.00  0.00     0.011 A 
HETATM   22 BR   UNL     1      43.185  -9.422  21.455  1.00  0.00    -0.051 Br
HETATM   23  C   UNL     1      40.508  -9.144  20.519  1.00  0.00     0.019 A 
HETATM   24  C   UNL     1      39.513  -8.656  19.677  1.00  0.00     0.002 A 
HETATM   25  C   UNL     1      39.842  -7.792  18.630  1.00  0.00     0.009 A 
ENDBRANCH   8  19
BRANCH   6  26
HETATM   26  N   UNL     1      37.754  -3.527  16.869  1.00  0.00    -0.229 N 
HETATM   27  H   UNL     1      38.021  -2.733  17.433  1.00  0.00     0.174 HD
HETATM   28  H   UNL     1      36.810  -3.857  17.013  1.00  0.00     0.174 HD
ENDBRANCH   6  26
TORSDOF 4
ENDMDL
