MODEL 1
REMARK VINA RESULT:      -8.7      0.000      0.000
REMARK  4 active torsions:
REMARK  status: ('A' for Active; 'I' for Inactive)
REMARK    1  A    between atoms: C_5  and  N_6 
REMARK       I    between atoms: N_6  and  C_7 
REMARK    2  A    between atoms: C_7  and  C_8 
REMARK    3  A    between atoms: C_12  and  O_13 
REMARK    4  A    between atoms: C_19  and  C_20 
ROOT
HETATM    1  C   UNL     1      43.645 -12.050   3.803  1.00  0.00     0.015 C 
HETATM    2  C   UNL     1      42.409 -12.870   3.388  1.00  0.00    -0.040 C 
HETATM    3  C   UNL     1      41.192 -12.318   4.156  1.00  0.00     0.015 C 
HETATM    4  C   UNL     1      42.655 -14.357   3.719  1.00  0.00     0.039 C 
HETATM    5  C   UNL     1      41.494 -15.273   3.288  1.00  0.00     0.122 C 
HETATM    6  C   UNL     1      40.960 -14.931   1.925  1.00  0.00     0.007 A 
HETATM    7  C   UNL     1      41.252 -13.744   1.275  1.00  0.00     0.047 A 
HETATM    8  N   UNL     1      40.740 -13.434   0.063  1.00  0.00    -0.237 NA
HETATM    9  C   UNL     1      39.877 -14.303  -0.501  1.00  0.00     0.133 A 
HETATM   10  N   UNL     1      39.525 -15.470   0.066  1.00  0.00    -0.244 NA
HETATM   11  C   UNL     1      40.059 -15.746   1.269  1.00  0.00     0.130 A 
HETATM   12  C   UNL     1      42.204 -12.733   1.863  1.00  0.00     0.069 C 
ENDROOT
BRANCH   5  13
HETATM   13  N   UNL     1      41.923 -16.663   3.345  1.00  0.00    -0.347 N 
HETATM   14  C   UNL     1      42.984 -17.127   2.605  1.00  0.00     0.270 C 
HETATM   15  O   UNL     1      43.651 -16.399   1.879  1.00  0.00    -0.266 OA
HETATM   16  H   UNL     1      41.327 -17.329   3.818  1.00  0.00     0.163 HD
BRANCH  14  17
HETATM   17  C   UNL     1      43.266 -18.529   2.747  1.00  0.00     0.122 A 
HETATM   18  N   UNL     1      42.885 -19.434   1.784  1.00  0.00    -0.270 N 
HETATM   19  H   UNL     1      42.389 -19.230   0.921  1.00  0.00     0.189 HD
HETATM   20  N   UNL     1      43.238 -20.707   2.057  1.00  0.00    -0.149 NA
HETATM   21  C   UNL     1      43.856 -20.580   3.219  1.00  0.00     0.183 A 
HETATM   22  C   UNL     1      43.915 -19.279   3.713  1.00  0.00     0.096 A 
BRANCH  21  23
HETATM   23  O   UNL     1      44.332 -21.705   3.741  1.00  0.00    -0.344 OA
HETATM   24  H   UNL     1      45.289 -21.671   3.566  1.00  0.00     0.219 HD
ENDBRANCH  21  23
ENDBRANCH  14  17
ENDBRANCH   5  13
BRANCH   9  25
HETATM   25  C   UNL     1      39.336 -13.979  -1.891  1.00  0.00     0.011 C 
HETATM   26  C   UNL     1      40.478 -13.384  -2.730  1.00  0.00     0.023 C 
HETATM   27  C   UNL     1      38.800 -15.243  -2.592  1.00  0.00     0.023 C 
HETATM   28  C   UNL     1      38.183 -12.960  -1.802  1.00  0.00     0.023 C 
ENDBRANCH   9  25
TORSDOF 4
ENDMDL
MODEL 2
REMARK VINA RESULT:      -8.4      2.813      6.798
REMARK  4 active torsions:
REMARK  status: ('A' for Active; 'I' for Inactive)
REMARK    1  A    between atoms: C_5  and  N_6 
REMARK       I    between atoms: N_6  and  C_7 
REMARK    2  A    between atoms: C_7  and  C_8 
REMARK    3  A    between atoms: C_12  and  O_13 
REMARK    4  A    between atoms: C_19  and  C_20 
ROOT
HETATM    1  C   UNL     1      39.458 -12.897   5.510  1.00  0.00     0.015 C 
HETATM    2  C   UNL     1      40.513 -13.398   4.506  1.00  0.00    -0.040 C 
HETATM    3  C   UNL     1      41.733 -12.459   4.590  1.00  0.00     0.015 C 
HETATM    4  C   UNL     1      39.901 -13.398   3.089  1.00  0.00     0.039 C 
HETATM    5  C   UNL     1      40.863 -13.938   2.014  1.00  0.00     0.122 C 
HETATM    6  C   UNL     1      41.605 -15.166   2.465  1.00  0.00     0.007 A 
HETATM    7  C   UNL     1      41.663 -15.572   3.787  1.00  0.00     0.047 A 
HETATM    8  N   UNL     1      42.359 -16.660   4.183  1.00  0.00    -0.237 NA
HETATM    9  C   UNL     1      43.058 -17.339   3.251  1.00  0.00     0.133 A 
HETATM   10  N   UNL     1      43.072 -17.006   1.948  1.00  0.00    -0.244 NA
HETATM   11  C   UNL     1      42.363 -15.921   1.592  1.00  0.00     0.130 A 
HETATM   12  C   UNL     1      40.908 -14.846   4.871  1.00  0.00     0.069 C 
ENDROOT
BRANCH   5  13
HETATM   13  N   UNL     1      40.125 -14.197   0.786  1.00  0.00    -0.347 N 
HETATM   14  C   UNL     1      40.188 -13.348  -0.292  1.00  0.00     0.270 C 
HETATM   15  O   UNL     1      40.888 -12.342  -0.300  1.00  0.00    -0.266 OA
HETATM   16  H   UNL     1      39.431 -14.932   0.791  1.00  0.00     0.163 HD
BRANCH  14  17
HETATM   17  C   UNL     1      39.380 -13.725  -1.420  1.00  0.00     0.122 A 
HETATM   18  N   UNL     1      38.041 -13.413  -1.473  1.00  0.00    -0.270 N 
HETATM   19  H   UNL     1      37.504 -12.918  -0.768  1.00  0.00     0.189 HD
HETATM   20  N   UNL     1      37.428 -13.821  -2.603  1.00  0.00    -0.149 NA
HETATM   21  C   UNL     1      38.418 -14.398  -3.263  1.00  0.00     0.183 A 
HETATM   22  C   UNL     1      39.647 -14.383  -2.607  1.00  0.00     0.096 A 
BRANCH  21  23
HETATM   23  O   UNL     1      38.100 -14.898  -4.452  1.00  0.00    -0.344 OA
HETATM   24  H   UNL     1      37.144 -14.742  -4.537  1.00  0.00     0.219 HD
ENDBRANCH  21  23
ENDBRANCH  14  17
ENDBRANCH   5  13
BRANCH   9  25
HETATM   25  C   UNL     1      43.806 -18.596   3.687  1.00  0.00     0.011 C 
HETATM   26  C   UNL     1      43.404 -19.749   2.753  1.00  0.00     0.023 C 
HETATM   27  C   UNL     1      45.332 -18.394   3.612  1.00  0.00     0.023 C 
HETATM   28  C   UNL     1      43.447 -18.966   5.140  1.00  0.00     0.023 C 
ENDBRANCH   9  25
TORSDOF 4
ENDMDL
MODEL 3
REMARK VINA RESULT:      -8.1      3.278      6.848
REMARK  4 active torsions:
REMARK  status: ('A' for Active; 'I' for Inactive)
REMARK    1  A    between atoms: C_5  and  N_6 
REMARK       I    between atoms: N_6  and  C_7 
REMARK    2  A    between atoms: C_7  and  C_8 
REMARK    3  A    between atoms: C_12  and  O_13 
REMARK    4  A    between atoms: C_19  and  C_20 
ROOT
HETATM    1  C   UNL     1      39.057 -11.352   5.419  1.00  0.00     0.015 C 
HETATM    2  C   UNL     1      40.302 -11.960   4.746  1.00  0.00    -0.040 C 
HETATM    3  C   UNL     1      41.453 -10.942   4.868  1.00  0.00     0.015 C 
HETATM    4  C   UNL     1      39.977 -12.267   3.269  1.00  0.00     0.039 C 
HETATM    5  C   UNL     1      41.146 -12.933   2.518  1.00  0.00     0.122 C 
HETATM    6  C   UNL     1      41.823 -14.001   3.330  1.00  0.00     0.007 A 
HETATM    7  C   UNL     1      41.635 -14.148   4.694  1.00  0.00     0.047 A 
HETATM    8  N   UNL     1      42.273 -15.093   5.418  1.00  0.00    -0.237 NA
HETATM    9  C   UNL     1      43.160 -15.886   4.784  1.00  0.00     0.133 A 
HETATM   10  N   UNL     1      43.417 -15.803   3.467  1.00  0.00    -0.244 NA
HETATM   11  C   UNL     1      42.759 -14.854   2.778  1.00  0.00     0.130 A 
HETATM   12  C   UNL     1      40.661 -13.284   5.455  1.00  0.00     0.069 C 
ENDROOT
BRANCH   5  13
HETATM   13  N   UNL     1      40.669 -13.466   1.250  1.00  0.00    -0.347 N 
HETATM   14  C   UNL     1      40.758 -12.750   0.081  1.00  0.00     0.270 C 
HETATM   15  O   UNL     1      41.268 -11.636   0.026  1.00  0.00    -0.266 OA
HETATM   16  H   UNL     1      40.119 -14.314   1.265  1.00  0.00     0.163 HD
BRANCH  14  17
HETATM   17  C   UNL     1      40.217 -13.400  -1.081  1.00  0.00     0.122 A 
HETATM   18  N   UNL     1      40.738 -13.170  -2.334  1.00  0.00    -0.270 N 
HETATM   19  H   UNL     1      41.509 -12.552  -2.567  1.00  0.00     0.189 HD
HETATM   20  N   UNL     1      40.132 -13.867  -3.316  1.00  0.00    -0.149 NA
HETATM   21  C   UNL     1      39.215 -14.547  -2.648  1.00  0.00     0.183 A 
HETATM   22  C   UNL     1      39.199 -14.317  -1.275  1.00  0.00     0.096 A 
BRANCH  21  23
HETATM   23  O   UNL     1      38.451 -15.351  -3.380  1.00  0.00    -0.344 OA
HETATM   24  H   UNL     1      38.123 -16.017  -2.752  1.00  0.00     0.219 HD
ENDBRANCH  21  23
ENDBRANCH  14  17
ENDBRANCH   5  13
BRANCH   9  25
HETATM   25  C   UNL     1      43.846 -16.986   5.590  1.00  0.00     0.011 C 
HETATM   26  C   UNL     1      42.827 -17.569   6.582  1.00  0.00     0.023 C 
HETATM   27  C   UNL     1      44.359 -18.114   4.673  1.00  0.00     0.023 C 
HETATM   28  C   UNL     1      45.051 -16.421   6.366  1.00  0.00     0.023 C 
ENDBRANCH   9  25
TORSDOF 4
ENDMDL
MODEL 4
REMARK VINA RESULT:      -8.0      4.150      7.114
REMARK  4 active torsions:
REMARK  status: ('A' for Active; 'I' for Inactive)
REMARK    1  A    between atoms: C_5  and  N_6 
REMARK       I    between atoms: N_6  and  C_7 
REMARK    2  A    between atoms: C_7  and  C_8 
REMARK    3  A    between atoms: C_12  and  O_13 
REMARK    4  A    between atoms: C_19  and  C_20 
ROOT
HETATM    1  C   UNL     1      39.357 -11.446   4.274  1.00  0.00     0.015 C 
HETATM    2  C   UNL     1      40.883 -11.557   4.457  1.00  0.00    -0.040 C 
HETATM    3  C   UNL     1      41.557 -10.906   3.233  1.00  0.00     0.015 C 
HETATM    4  C   UNL     1      41.269 -13.045   4.587  1.00  0.00     0.039 C 
HETATM    5  C   UNL     1      42.774 -13.261   4.832  1.00  0.00     0.122 C 
HETATM    6  C   UNL     1      43.343 -12.292   5.831  1.00  0.00     0.007 A 
HETATM    7  C   UNL     1      42.681 -11.147   6.236  1.00  0.00     0.047 A 
HETATM    8  N   UNL     1      43.217 -10.268   7.112  1.00  0.00    -0.237 NA
HETATM    9  C   UNL     1      44.466 -10.504   7.563  1.00  0.00     0.133 A 
HETATM   10  N   UNL     1      45.188 -11.582   7.209  1.00  0.00    -0.244 NA
HETATM   11  C   UNL     1      44.619 -12.436   6.341  1.00  0.00     0.130 A 
HETATM   12  C   UNL     1      41.287 -10.828   5.758  1.00  0.00     0.069 C 
ENDROOT
BRANCH   5  13
HETATM   13  N   UNL     1      43.008 -14.636   5.248  1.00  0.00    -0.347 N 
HETATM   14  C   UNL     1      43.273 -15.634   4.343  1.00  0.00     0.270 C 
HETATM   15  O   UNL     1      43.360 -15.427   3.137  1.00  0.00    -0.266 OA
HETATM   16  H   UNL     1      42.812 -14.884   6.209  1.00  0.00     0.163 HD
BRANCH  14  17
HETATM   17  C   UNL     1      43.452 -16.944   4.907  1.00  0.00     0.122 A 
HETATM   18  N   UNL     1      43.069 -17.223   6.199  1.00  0.00    -0.270 N 
HETATM   19  H   UNL     1      42.649 -16.577   6.860  1.00  0.00     0.189 HD
HETATM   20  N   UNL     1      43.287 -18.500   6.572  1.00  0.00    -0.149 NA
HETATM   21  C   UNL     1      43.817 -19.022   5.479  1.00  0.00     0.183 A 
HETATM   22  C   UNL     1      43.954 -18.135   4.413  1.00  0.00     0.096 A 
BRANCH  21  23
HETATM   23  O   UNL     1      44.133 -20.310   5.553  1.00  0.00    -0.344 OA
HETATM   24  H   UNL     1      43.342 -20.777   5.233  1.00  0.00     0.219 HD
ENDBRANCH  21  23
ENDBRANCH  14  17
ENDBRANCH   5  13
BRANCH   9  25
HETATM   25  C   UNL     1      45.054  -9.539   8.589  1.00  0.00     0.011 C 
HETATM   26  C   UNL     1      46.473  -9.158   8.138  1.00  0.00     0.023 C 
HETATM   27  C   UNL     1      44.202  -8.261   8.708  1.00  0.00     0.023 C 
HETATM   28  C   UNL     1      45.119 -10.198   9.980  1.00  0.00     0.023 C 
ENDBRANCH   9  25
TORSDOF 4
ENDMDL
MODEL 5
REMARK VINA RESULT:      -8.0      3.200      6.522
REMARK  4 active torsions:
REMARK  status: ('A' for Active; 'I' for Inactive)
REMARK    1  A    between atoms: C_5  and  N_6 
REMARK       I    between atoms: N_6  and  C_7 
REMARK    2  A    between atoms: C_7  and  C_8 
REMARK    3  A    between atoms: C_12  and  O_13 
REMARK    4  A    between atoms: C_19  and  C_20 
ROOT
HETATM    1  C   UNL     1      43.185 -16.644   4.246  1.00  0.00     0.015 C 
HETATM    2  C   UNL     1      41.877 -15.833   4.193  1.00  0.00    -0.040 C 
HETATM    3  C   UNL     1      40.900 -16.439   5.220  1.00  0.00     0.015 C 
HETATM    4  C   UNL     1      41.300 -15.897   2.763  1.00  0.00     0.039 C 
HETATM    5  C   UNL     1      40.015 -15.067   2.590  1.00  0.00     0.122 C 
HETATM    6  C   UNL     1      40.099 -13.723   3.260  1.00  0.00     0.007 A 
HETATM    7  C   UNL     1      41.075 -13.399   4.186  1.00  0.00     0.047 A 
HETATM    8  N   UNL     1      41.122 -12.198   4.803  1.00  0.00    -0.237 NA
HETATM    9  C   UNL     1      40.145 -11.308   4.532  1.00  0.00     0.133 A 
HETATM   10  N   UNL     1      39.150 -11.544   3.660  1.00  0.00    -0.244 NA
HETATM   11  C   UNL     1      39.141 -12.749   3.061  1.00  0.00     0.130 A 
HETATM   12  C   UNL     1      42.186 -14.358   4.532  1.00  0.00     0.069 C 
ENDROOT
BRANCH   5  13
HETATM   13  N   UNL     1      39.713 -14.925   1.173  1.00  0.00    -0.347 N 
HETATM   14  C   UNL     1      40.547 -14.248   0.317  1.00  0.00     0.270 C 
HETATM   15  O   UNL     1      41.606 -13.750   0.683  1.00  0.00    -0.266 OA
HETATM   16  H   UNL     1      38.793 -15.194   0.851  1.00  0.00     0.163 HD
BRANCH  14  17
HETATM   17  C   UNL     1      40.097 -14.169  -1.046  1.00  0.00     0.122 A 
HETATM   18  N   UNL     1      40.864 -13.566  -2.016  1.00  0.00    -0.270 N 
HETATM   19  H   UNL     1      41.773 -13.133  -1.889  1.00  0.00     0.189 HD
HETATM   20  N   UNL     1      40.309 -13.589  -3.245  1.00  0.00    -0.149 NA
HETATM   21  C   UNL     1      39.171 -14.226  -3.025  1.00  0.00     0.183 A 
HETATM   22  C   UNL     1      38.963 -14.614  -1.703  1.00  0.00     0.096 A 
BRANCH  21  23
HETATM   23  O   UNL     1      38.400 -14.407  -4.091  1.00  0.00    -0.344 OA
HETATM   24  H   UNL     1      38.981 -14.831  -4.746  1.00  0.00     0.219 HD
ENDBRANCH  21  23
ENDBRANCH  14  17
ENDBRANCH   5  13
BRANCH   9  25
HETATM   25  C   UNL     1      40.222  -9.933   5.191  1.00  0.00     0.011 C 
HETATM   26  C   UNL     1      38.823  -9.298   5.156  1.00  0.00     0.023 C 
HETATM   27  C   UNL     1      40.691 -10.040   6.655  1.00  0.00     0.023 C 
HETATM   28  C   UNL     1      41.215  -9.025   4.440  1.00  0.00     0.023 C 
ENDBRANCH   9  25
TORSDOF 4
ENDMDL
MODEL 6
REMARK VINA RESULT:      -7.9      1.571      1.731
REMARK  4 active torsions:
REMARK  status: ('A' for Active; 'I' for Inactive)
REMARK    1  A    between atoms: C_5  and  N_6 
REMARK       I    between atoms: N_6  and  C_7 
REMARK    2  A    between atoms: C_7  and  C_8 
REMARK    3  A    between atoms: C_12  and  O_13 
REMARK    4  A    between atoms: C_19  and  C_20 
ROOT
HETATM    1  C   UNL     1      42.914 -10.799   4.120  1.00  0.00     0.015 C 
HETATM    2  C   UNL     1      41.932 -11.747   3.407  1.00  0.00    -0.040 C 
HETATM    3  C   UNL     1      40.549 -11.585   4.069  1.00  0.00     0.015 C 
HETATM    4  C   UNL     1      42.448 -13.196   3.532  1.00  0.00     0.039 C 
HETATM    5  C   UNL     1      41.561 -14.220   2.799  1.00  0.00     0.122 C 
HETATM    6  C   UNL     1      41.120 -13.739   1.444  1.00  0.00     0.007 A 
HETATM    7  C   UNL     1      41.224 -12.420   1.038  1.00  0.00     0.047 A 
HETATM    8  N   UNL     1      40.795 -11.995  -0.171  1.00  0.00    -0.237 NA
HETATM    9  C   UNL     1      40.202 -12.893  -0.984  1.00  0.00     0.133 A 
HETATM   10  N   UNL     1      40.044 -14.190  -0.665  1.00  0.00    -0.244 NA
HETATM   11  C   UNL     1      40.488 -14.576   0.545  1.00  0.00     0.130 A 
HETATM   12  C   UNL     1      41.871 -11.374   1.909  1.00  0.00     0.069 C 
ENDROOT
BRANCH   5  13
HETATM   13  N   UNL     1      42.265 -15.490   2.697  1.00  0.00    -0.347 N 
HETATM   14  C   UNL     1      41.876 -16.595   3.414  1.00  0.00     0.270 C 
HETATM   15  O   UNL     1      40.901 -16.592   4.157  1.00  0.00    -0.266 OA
HETATM   16  H   UNL     1      43.151 -15.508   2.210  1.00  0.00     0.163 HD
BRANCH  14  17
HETATM   17  C   UNL     1      42.690 -17.766   3.229  1.00  0.00     0.122 A 
HETATM   18  N   UNL     1      43.578 -18.177   4.196  1.00  0.00    -0.270 N 
HETATM   19  H   UNL     1      43.753 -17.729   5.090  1.00  0.00     0.189 HD
HETATM   20  N   UNL     1      44.253 -19.301   3.877  1.00  0.00    -0.149 NA
HETATM   21  C   UNL     1      43.765 -19.589   2.682  1.00  0.00     0.183 A 
HETATM   22  C   UNL     1      42.803 -18.697   2.212  1.00  0.00     0.096 A 
BRANCH  21  23
HETATM   23  O   UNL     1      44.254 -20.684   2.112  1.00  0.00    -0.344 OA
HETATM   24  H   UNL     1      45.218 -20.609   2.222  1.00  0.00     0.219 HD
ENDBRANCH  21  23
ENDBRANCH  14  17
ENDBRANCH   5  13
BRANCH   9  25
HETATM   25  C   UNL     1      39.760 -12.427  -2.369  1.00  0.00     0.011 C 
HETATM   26  C   UNL     1      41.014 -12.071  -3.184  1.00  0.00     0.023 C 
HETATM   27  C   UNL     1      38.975 -13.529  -3.106  1.00  0.00     0.023 C 
HETATM   28  C   UNL     1      38.851 -11.187  -2.262  1.00  0.00     0.023 C 
ENDBRANCH   9  25
TORSDOF 4
ENDMDL
MODEL 7
REMARK VINA RESULT:      -7.4     14.993     17.756
REMARK  4 active torsions:
REMARK  status: ('A' for Active; 'I' for Inactive)
REMARK    1  A    between atoms: C_5  and  N_6 
REMARK       I    between atoms: N_6  and  C_7 
REMARK    2  A    between atoms: C_7  and  C_8 
REMARK    3  A    between atoms: C_12  and  O_13 
REMARK    4  A    between atoms: C_19  and  C_20 
ROOT
HETATM    1  C   UNL     1      42.325  -9.447  13.015  1.00  0.00     0.015 C 
HETATM    2  C   UNL     1      41.974  -8.196  13.842  1.00  0.00    -0.040 C 
HETATM    3  C   UNL     1      43.168  -7.224  13.764  1.00  0.00     0.015 C 
HETATM    4  C   UNL     1      41.686  -8.617  15.298  1.00  0.00     0.039 C 
HETATM    5  C   UNL     1      41.269  -7.440  16.198  1.00  0.00     0.122 C 
HETATM    6  C   UNL     1      40.295  -6.513  15.525  1.00  0.00     0.007 A 
HETATM    7  C   UNL     1      40.054  -6.530  14.162  1.00  0.00     0.047 A 
HETATM    8  N   UNL     1      39.199  -5.670  13.564  1.00  0.00    -0.237 NA
HETATM    9  C   UNL     1      38.602  -4.734  14.330  1.00  0.00     0.133 A 
HETATM   10  N   UNL     1      38.791  -4.634  15.658  1.00  0.00    -0.244 NA
HETATM   11  C   UNL     1      39.644  -5.510  16.217  1.00  0.00     0.130 A 
HETATM   12  C   UNL     1      40.699  -7.548  13.257  1.00  0.00     0.069 C 
ENDROOT
BRANCH   5  13
HETATM   13  N   UNL     1      40.722  -7.951  17.447  1.00  0.00    -0.347 N 
HETATM   14  C   UNL     1      41.337  -7.727  18.655  1.00  0.00     0.270 C 
HETATM   15  O   UNL     1      42.362  -7.062  18.761  1.00  0.00    -0.266 OA
HETATM   16  H   UNL     1      39.962  -8.616  17.400  1.00  0.00     0.163 HD
BRANCH  14  17
HETATM   17  C   UNL     1      40.691  -8.321  19.793  1.00  0.00     0.122 A 
HETATM   18  N   UNL     1      40.639  -9.687  19.951  1.00  0.00    -0.270 N 
HETATM   19  H   UNL     1      41.021 -10.386  19.321  1.00  0.00     0.189 HD
HETATM   20  N   UNL     1      40.014 -10.085  21.078  1.00  0.00    -0.149 NA
HETATM   21  C   UNL     1      39.675  -8.932  21.629  1.00  0.00     0.183 A 
HETATM   22  C   UNL     1      40.051  -7.803  20.905  1.00  0.00     0.096 A 
BRANCH  21  23
HETATM   23  O   UNL     1      39.035  -9.018  22.790  1.00  0.00    -0.344 OA
HETATM   24  H   UNL     1      38.106  -8.824  22.574  1.00  0.00     0.219 HD
ENDBRANCH  21  23
ENDBRANCH  14  17
ENDBRANCH   5  13
BRANCH   9  25
HETATM   25  C   UNL     1      37.600  -3.794  13.666  1.00  0.00     0.011 C 
HETATM   26  C   UNL     1      36.551  -3.384  14.713  1.00  0.00     0.023 C 
HETATM   27  C   UNL     1      38.294  -2.529  13.125  1.00  0.00     0.023 C 
HETATM   28  C   UNL     1      36.898  -4.492  12.485  1.00  0.00     0.023 C 
ENDBRANCH   9  25
TORSDOF 4
ENDMDL
MODEL 8
REMARK VINA RESULT:      -7.3      4.551      7.977
REMARK  4 active torsions:
REMARK  status: ('A' for Active; 'I' for Inactive)
REMARK    1  A    between atoms: C_5  and  N_6 
REMARK       I    between atoms: N_6  and  C_7 
REMARK    2  A    between atoms: C_7  and  C_8 
REMARK    3  A    between atoms: C_12  and  O_13 
REMARK    4  A    between atoms: C_19  and  C_20 
ROOT
HETATM    1  C   UNL     1      39.056  -9.413   4.929  1.00  0.00     0.015 C 
HETATM    2  C   UNL     1      40.538  -9.697   5.235  1.00  0.00    -0.040 C 
HETATM    3  C   UNL     1      41.388  -8.660   4.474  1.00  0.00     0.015 C 
HETATM    4  C   UNL     1      40.879 -11.135   4.792  1.00  0.00     0.039 C 
HETATM    5  C   UNL     1      42.331 -11.539   5.108  1.00  0.00     0.122 C 
HETATM    6  C   UNL     1      42.771 -11.097   6.476  1.00  0.00     0.007 A 
HETATM    7  C   UNL     1      42.076 -10.167   7.230  1.00  0.00     0.047 A 
HETATM    8  N   UNL     1      42.498  -9.755   8.446  1.00  0.00    -0.237 NA
HETATM    9  C   UNL     1      43.668 -10.241   8.909  1.00  0.00     0.133 A 
HETATM   10  N   UNL     1      44.416 -11.134   8.237  1.00  0.00    -0.244 NA
HETATM   11  C   UNL     1      43.960 -11.524   7.033  1.00  0.00     0.130 A 
HETATM   12  C   UNL     1      40.768  -9.584   6.758  1.00  0.00     0.069 C 
ENDROOT
BRANCH   5  13
HETATM   13  N   UNL     1      42.482 -12.978   4.952  1.00  0.00    -0.347 N 
HETATM   14  C   UNL     1      42.951 -13.538   3.789  1.00  0.00     0.270 C 
HETATM   15  O   UNL     1      43.299 -12.864   2.825  1.00  0.00    -0.266 OA
HETATM   16  H   UNL     1      42.082 -13.580   5.659  1.00  0.00     0.163 HD
BRANCH  14  17
HETATM   17  C   UNL     1      43.015 -14.974   3.779  1.00  0.00     0.122 A 
HETATM   18  N   UNL     1      42.857 -15.702   4.936  1.00  0.00    -0.270 N 
HETATM   19  H   UNL     1      42.693 -15.334   5.868  1.00  0.00     0.189 HD
HETATM   20  N   UNL     1      42.927 -17.037   4.757  1.00  0.00    -0.149 NA
HETATM   21  C   UNL     1      43.132 -17.132   3.454  1.00  0.00     0.183 A 
HETATM   22  C   UNL     1      43.201 -15.914   2.781  1.00  0.00     0.096 A 
BRANCH  21  23
HETATM   23  O   UNL     1      43.236 -18.368   2.978  1.00  0.00    -0.344 OA
HETATM   24  H   UNL     1      42.347 -18.748   3.086  1.00  0.00     0.219 HD
ENDBRANCH  21  23
ENDBRANCH  14  17
ENDBRANCH   5  13
BRANCH   9  25
HETATM   25  C   UNL     1      44.123  -9.815  10.302  1.00  0.00     0.011 C 
HETATM   26  C   UNL     1      45.652  -9.663  10.288  1.00  0.00     0.023 C 
HETATM   27  C   UNL     1      43.486  -8.473  10.712  1.00  0.00     0.023 C 
HETATM   28  C   UNL     1      43.722 -10.870  11.351  1.00  0.00     0.023 C 
ENDBRANCH   9  25
TORSDOF 4
ENDMDL
MODEL 9
REMARK VINA RESULT:      -7.2     14.131     17.574
REMARK  4 active torsions:
REMARK  status: ('A' for Active; 'I' for Inactive)
REMARK    1  A    between atoms: C_5  and  N_6 
REMARK       I    between atoms: N_6  and  C_7 
REMARK    2  A    between atoms: C_7  and  C_8 
REMARK    3  A    between atoms: C_12  and  O_13 
REMARK    4  A    between atoms: C_19  and  C_20 
ROOT
HETATM    1  C   UNL     1      50.029 -32.559   5.607  1.00  0.00     0.015 C 
HETATM    2  C   UNL     1      50.051 -31.638   4.373  1.00  0.00    -0.040 C 
HETATM    3  C   UNL     1      50.912 -30.405   4.714  1.00  0.00     0.015 C 
HETATM    4  C   UNL     1      48.605 -31.232   4.020  1.00  0.00     0.039 C 
HETATM    5  C   UNL     1      48.513 -30.352   2.760  1.00  0.00     0.122 C 
HETATM    6  C   UNL     1      49.403 -30.836   1.649  1.00  0.00     0.007 A 
HETATM    7  C   UNL     1      50.417 -31.759   1.840  1.00  0.00     0.047 A 
HETATM    8  N   UNL     1      51.231 -32.162   0.839  1.00  0.00    -0.237 NA
HETATM    9  C   UNL     1      51.068 -31.601  -0.376  1.00  0.00     0.133 A 
HETATM   10  N   UNL     1      50.121 -30.686  -0.647  1.00  0.00    -0.244 NA
HETATM   11  C   UNL     1      49.327 -30.313   0.373  1.00  0.00     0.130 A 
HETATM   12  C   UNL     1      50.650 -32.412   3.178  1.00  0.00     0.069 C 
ENDROOT
BRANCH   5  13
HETATM   13  N   UNL     1      47.128 -30.273   2.320  1.00  0.00    -0.347 N 
HETATM   14  C   UNL     1      46.496 -29.070   2.121  1.00  0.00     0.270 C 
HETATM   15  O   UNL     1      47.063 -27.993   2.270  1.00  0.00    -0.266 OA
HETATM   16  H   UNL     1      46.578 -31.122   2.316  1.00  0.00     0.163 HD
BRANCH  14  17
HETATM   17  C   UNL     1      45.119 -29.158   1.715  1.00  0.00     0.122 A 
HETATM   18  N   UNL     1      44.742 -28.910   0.415  1.00  0.00    -0.270 N 
HETATM   19  H   UNL     1      45.350 -28.648  -0.355  1.00  0.00     0.189 HD
HETATM   20  N   UNL     1      43.419 -29.050   0.192  1.00  0.00    -0.149 NA
HETATM   21  C   UNL     1      42.971 -29.397   1.387  1.00  0.00     0.183 A 
HETATM   22  C   UNL     1      43.949 -29.484   2.377  1.00  0.00     0.096 A 
BRANCH  21  23
HETATM   23  O   UNL     1      41.664 -29.616   1.468  1.00  0.00    -0.344 OA
HETATM   24  H   UNL     1      41.431 -29.380   2.383  1.00  0.00     0.219 HD
ENDBRANCH  21  23
ENDBRANCH  14  17
ENDBRANCH   5  13
BRANCH   9  25
HETATM   25  C   UNL     1      51.953 -32.090  -1.519  1.00  0.00     0.011 C 
HETATM   26  C   UNL     1      51.203 -33.199  -2.274  1.00  0.00     0.023 C 
HETATM   27  C   UNL     1      52.284 -30.948  -2.499  1.00  0.00     0.023 C 
HETATM   28  C   UNL     1      53.282 -32.650  -0.976  1.00  0.00     0.023 C 
ENDBRANCH   9  25
TORSDOF 4
ENDMDL
MODEL 10
REMARK VINA RESULT:      -7.2      4.154      6.749
REMARK  4 active torsions:
REMARK  status: ('A' for Active; 'I' for Inactive)
REMARK    1  A    between atoms: C_5  and  N_6 
REMARK       I    between atoms: N_6  and  C_7 
REMARK    2  A    between atoms: C_7  and  C_8 
REMARK    3  A    between atoms: C_12  and  O_13 
REMARK    4  A    between atoms: C_19  and  C_20 
ROOT
HETATM    1  C   UNL     1      37.757 -13.619  -2.553  1.00  0.00     0.015 C 
HETATM    2  C   UNL     1      39.075 -13.052  -1.994  1.00  0.00    -0.040 C 
HETATM    3  C   UNL     1      40.237 -13.856  -2.611  1.00  0.00     0.015 C 
HETATM    4  C   UNL     1      39.064 -13.170  -0.456  1.00  0.00     0.039 C 
HETATM    5  C   UNL     1      40.322 -12.577   0.206  1.00  0.00     0.122 C 
HETATM    6  C   UNL     1      40.730 -11.263  -0.399  1.00  0.00     0.007 A 
HETATM    7  C   UNL     1      40.237 -10.801  -1.607  1.00  0.00     0.047 A 
HETATM    8  N   UNL     1      40.636  -9.632  -2.156  1.00  0.00    -0.237 NA
HETATM    9  C   UNL     1      41.585  -8.922  -1.514  1.00  0.00     0.133 A 
HETATM   10  N   UNL     1      42.131  -9.302  -0.346  1.00  0.00    -0.244 NA
HETATM   11  C   UNL     1      41.705 -10.468   0.172  1.00  0.00     0.130 A 
HETATM   12  C   UNL     1      39.180 -11.558  -2.372  1.00  0.00     0.069 C 
ENDROOT
BRANCH   5  13
HETATM   13  N   UNL     1      40.101 -12.444   1.639  1.00  0.00    -0.347 N 
HETATM   14  C   UNL     1      40.405 -13.455   2.518  1.00  0.00     0.270 C 
HETATM   15  O   UNL     1      40.906 -14.515   2.159  1.00  0.00    -0.266 OA
HETATM   16  H   UNL     1      39.566 -11.651   1.969  1.00  0.00     0.163 HD
BRANCH  14  17
HETATM   17  C   UNL     1      40.102 -13.183   3.897  1.00  0.00     0.122 A 
HETATM   18  N   UNL     1      40.156 -14.176   4.848  1.00  0.00    -0.270 N 
HETATM   19  H   UNL     1      40.395 -15.151   4.695  1.00  0.00     0.189 HD
HETATM   20  N   UNL     1      39.861 -13.756   6.095  1.00  0.00    -0.149 NA
HETATM   21  C   UNL     1      39.622 -12.470   5.906  1.00  0.00     0.183 A 
HETATM   22  C   UNL     1      39.746 -12.038   4.588  1.00  0.00     0.096 A 
BRANCH  21  23
HETATM   23  O   UNL     1      39.306 -11.779   6.996  1.00  0.00    -0.344 OA
HETATM   24  H   UNL     1      38.722 -11.069   6.677  1.00  0.00     0.219 HD
ENDBRANCH  21  23
ENDBRANCH  14  17
ENDBRANCH   5  13
BRANCH   9  25
HETATM   25  C   UNL     1      42.002  -7.578  -2.107  1.00  0.00     0.011 C 
HETATM   26  C   UNL     1      43.274  -7.103  -1.387  1.00  0.00     0.023 C 
HETATM   27  C   UNL     1      42.290  -7.698  -3.616  1.00  0.00     0.023 C 
HETATM   28  C   UNL     1      40.886  -6.532  -1.919  1.00  0.00     0.023 C 
ENDBRANCH   9  25
TORSDOF 4
ENDMDL
