MODEL 1
REMARK VINA RESULT:     -10.4      0.000      0.000
REMARK  4 active torsions:
REMARK  status: ('A' for Active; 'I' for Inactive)
REMARK    1  A    between atoms: C_2  and  C_3 
REMARK    2  A    between atoms: C_2  and  C_19 
REMARK       I    between atoms: C_3  and  N_4 
REMARK    3  A    between atoms: N_4  and  C_5 
REMARK    4  A    between atoms: C_12  and  C_13 
REMARK       I    between atoms: C_13  and  N_14 
ROOT
HETATM    1  C   UNL     1      41.203 -14.293   2.530  1.00  0.00     0.230 C 
HETATM    2  N   UNL     1      41.335 -13.621   1.328  1.00  0.00    -0.327 N 
HETATM    3  O   UNL     1      40.147 -14.725   2.988  1.00  0.00    -0.272 OA
HETATM    4  H   UNL     1      42.272 -13.542   0.954  1.00  0.00     0.169 HD
ENDROOT
BRANCH   2   5
HETATM    5  C   UNL     1      40.304 -13.138   0.496  1.00  0.00     0.035 A 
HETATM    6  C   UNL     1      39.840 -13.820  -0.637  1.00  0.00     0.046 A 
HETATM    7  C   UNL     1      38.756 -13.291  -1.372  1.00  0.00     0.030 A 
HETATM    8  C   UNL     1      38.189 -12.092  -0.961  1.00  0.00     0.063 A 
HETATM    9  C   UNL     1      37.998 -13.685  -2.517  1.00  0.00     0.156 A 
HETATM   10  N   UNL     1      37.187 -11.838  -1.856  1.00  0.00    -0.277 N 
HETATM   11  C   UNL     1      38.630 -11.382   0.158  1.00  0.00     0.034 A 
HETATM   12  H   UNL     1      36.561 -11.041  -1.867  1.00  0.00     0.189 HD
HETATM   13  N   UNL     1      37.036 -12.777  -2.804  1.00  0.00    -0.168 NA
HETATM   14  C   UNL     1      39.692 -11.937   0.881  1.00  0.00     0.032 A 
BRANCH   9  15
HETATM   15  C   UNL     1      38.158 -14.903  -3.324  1.00  0.00     0.270 C 
HETATM   16  N   UNL     1      38.311 -16.045  -2.584  1.00  0.00    -0.365 N 
HETATM   17  H   UNL     1      38.315 -15.971  -1.574  1.00  0.00     0.159 HD
HETATM   18  H   UNL     1      38.445 -16.927  -3.051  1.00  0.00     0.159 HD
HETATM   19  O   UNL     1      38.171 -14.935  -4.549  1.00  0.00    -0.266 OA
ENDBRANCH   9  15
ENDBRANCH   2   5
BRANCH   1  20
HETATM   20  C   UNL     1      42.489 -14.387   3.368  1.00  0.00     0.107 C 
HETATM   21  C   UNL     1      43.557 -13.512   2.706  1.00  0.00     0.025 C 
BRANCH  20  22
HETATM   22  C   UNL     1      42.949 -15.809   3.668  1.00  0.00    -0.044 A 
HETATM   23  C   UNL     1      42.869 -16.847   2.722  1.00  0.00     0.020 A 
HETATM   24  C   UNL     1      43.268 -18.158   3.035  1.00  0.00    -0.025 A 
HETATM   25  C   UNL     1      43.775 -18.440   4.321  1.00  0.00    -0.026 A 
HETATM   26  C   UNL     1      43.171 -19.196   2.093  1.00  0.00     0.012 A 
HETATM   27  C   UNL     1      43.858 -17.406   5.264  1.00  0.00     0.013 A 
HETATM   28  C   UNL     1      44.182 -19.749   4.629  1.00  0.00     0.012 A 
HETATM   29  C   UNL     1      43.442 -16.110   4.945  1.00  0.00     0.009 A 
HETATM   30  C   UNL     1      44.081 -20.768   3.681  1.00  0.00     0.001 A 
HETATM   31  C   UNL     1      43.574 -20.492   2.415  1.00  0.00     0.001 A 
ENDBRANCH  20  22
ENDBRANCH   1  20
TORSDOF 4
ENDMDL
MODEL 2
REMARK VINA RESULT:      -9.6      1.632      2.558
REMARK  4 active torsions:
REMARK  status: ('A' for Active; 'I' for Inactive)
REMARK    1  A    between atoms: C_2  and  C_3 
REMARK    2  A    between atoms: C_2  and  C_19 
REMARK       I    between atoms: C_3  and  N_4 
REMARK    3  A    between atoms: N_4  and  C_5 
REMARK    4  A    between atoms: C_12  and  C_13 
REMARK       I    between atoms: C_13  and  N_14 
ROOT
HETATM    1  C   UNL     1      40.943 -14.587   2.015  1.00  0.00     0.230 C 
HETATM    2  N   UNL     1      41.094 -14.153   0.709  1.00  0.00    -0.327 N 
HETATM    3  O   UNL     1      39.879 -14.927   2.530  1.00  0.00    -0.272 OA
HETATM    4  H   UNL     1      42.036 -14.144   0.342  1.00  0.00     0.169 HD
ENDROOT
BRANCH   2   5
HETATM    5  C   UNL     1      40.076 -13.837  -0.214  1.00  0.00     0.035 A 
HETATM    6  C   UNL     1      39.375 -12.624  -0.208  1.00  0.00     0.046 A 
HETATM    7  C   UNL     1      38.417 -12.369  -1.214  1.00  0.00     0.030 A 
HETATM    8  C   UNL     1      38.180 -13.342  -2.177  1.00  0.00     0.063 A 
HETATM    9  C   UNL     1      37.552 -11.287  -1.563  1.00  0.00     0.156 A 
HETATM   10  N   UNL     1      37.217 -12.819  -2.993  1.00  0.00    -0.277 N 
HETATM   11  C   UNL     1      38.855 -14.564  -2.209  1.00  0.00     0.034 A 
HETATM   12  H   UNL     1      36.796 -13.256  -3.805  1.00  0.00     0.189 HD
HETATM   13  N   UNL     1      36.817 -11.580  -2.661  1.00  0.00    -0.168 NA
HETATM   14  C   UNL     1      39.814 -14.785  -1.213  1.00  0.00     0.032 A 
BRANCH   9  15
HETATM   15  C   UNL     1      37.426  -9.986  -0.890  1.00  0.00     0.270 C 
HETATM   16  N   UNL     1      36.145  -9.668  -0.528  1.00  0.00    -0.365 N 
HETATM   17  H   UNL     1      35.401 -10.319  -0.753  1.00  0.00     0.159 HD
HETATM   18  H   UNL     1      35.958  -8.788  -0.077  1.00  0.00     0.159 HD
HETATM   19  O   UNL     1      38.357  -9.222  -0.663  1.00  0.00    -0.266 OA
ENDBRANCH   9  15
ENDBRANCH   2   5
BRANCH   1  20
HETATM   20  C   UNL     1      42.215 -14.519   2.875  1.00  0.00     0.107 C 
HETATM   21  C   UNL     1      43.238 -13.642   2.149  1.00  0.00     0.025 C 
BRANCH  20  22
HETATM   22  C   UNL     1      42.758 -15.875   3.313  1.00  0.00    -0.044 A 
HETATM   23  C   UNL     1      42.732 -17.007   2.479  1.00  0.00     0.020 A 
HETATM   24  C   UNL     1      43.208 -18.255   2.918  1.00  0.00    -0.025 A 
HETATM   25  C   UNL     1      43.739 -18.374   4.220  1.00  0.00    -0.026 A 
HETATM   26  C   UNL     1      43.165 -19.387   2.088  1.00  0.00     0.012 A 
HETATM   27  C   UNL     1      43.769 -17.245   5.052  1.00  0.00     0.013 A 
HETATM   28  C   UNL     1      44.223 -19.619   4.654  1.00  0.00     0.012 A 
HETATM   29  C   UNL     1      43.277 -16.015   4.608  1.00  0.00     0.009 A 
HETATM   30  C   UNL     1      44.175 -20.734   3.817  1.00  0.00     0.001 A 
HETATM   31  C   UNL     1      43.644 -20.619   2.536  1.00  0.00     0.001 A 
ENDBRANCH  20  22
ENDBRANCH   1  20
TORSDOF 4
ENDMDL
MODEL 3
REMARK VINA RESULT:      -9.6      5.302      8.512
REMARK  4 active torsions:
REMARK  status: ('A' for Active; 'I' for Inactive)
REMARK    1  A    between atoms: C_2  and  C_3 
REMARK    2  A    between atoms: C_2  and  C_19 
REMARK       I    between atoms: C_3  and  N_4 
REMARK    3  A    between atoms: N_4  and  C_5 
REMARK    4  A    between atoms: C_12  and  C_13 
REMARK       I    between atoms: C_13  and  N_14 
ROOT
HETATM    1  C   UNL     1      42.807 -13.412   5.217  1.00  0.00     0.230 C 
HETATM    2  N   UNL     1      43.655 -12.318   5.193  1.00  0.00    -0.327 N 
HETATM    3  O   UNL     1      42.198 -13.814   6.207  1.00  0.00    -0.272 OA
HETATM    4  H   UNL     1      43.892 -11.951   4.281  1.00  0.00     0.169 HD
ENDROOT
BRANCH   2   5
HETATM    5  C   UNL     1      44.131 -11.576   6.293  1.00  0.00     0.035 A 
HETATM    6  C   UNL     1      43.294 -10.955   7.229  1.00  0.00     0.046 A 
HETATM    7  C   UNL     1      43.862 -10.288   8.337  1.00  0.00     0.030 A 
HETATM    8  C   UNL     1      45.245 -10.250   8.460  1.00  0.00     0.063 A 
HETATM    9  C   UNL     1      43.371  -9.590   9.482  1.00  0.00     0.156 A 
HETATM   10  N   UNL     1      45.489  -9.544   9.604  1.00  0.00    -0.277 N 
HETATM   11  C   UNL     1      46.109 -10.852   7.543  1.00  0.00     0.034 A 
HETATM   12  H   UNL     1      46.392  -9.316  10.004  1.00  0.00     0.189 HD
HETATM   13  N   UNL     1      44.386  -9.135  10.252  1.00  0.00    -0.168 NA
HETATM   14  C   UNL     1      45.522 -11.523   6.464  1.00  0.00     0.032 A 
BRANCH   9  15
HETATM   15  C   UNL     1      41.969  -9.365   9.862  1.00  0.00     0.270 C 
HETATM   16  N   UNL     1      41.579 -10.048  10.983  1.00  0.00    -0.365 N 
HETATM   17  H   UNL     1      42.253 -10.647  11.445  1.00  0.00     0.159 HD
HETATM   18  H   UNL     1      40.630  -9.969  11.309  1.00  0.00     0.159 HD
HETATM   19  O   UNL     1      41.185  -8.647   9.253  1.00  0.00    -0.266 OA
ENDBRANCH   9  15
ENDBRANCH   2   5
BRANCH   1  20
HETATM   20  C   UNL     1      42.741 -14.214   3.907  1.00  0.00     0.107 C 
HETATM   21  C   UNL     1      41.361 -13.994   3.281  1.00  0.00     0.025 C 
BRANCH  20  22
HETATM   22  C   UNL     1      43.136 -15.680   4.040  1.00  0.00    -0.044 A 
HETATM   23  C   UNL     1      42.935 -16.616   3.009  1.00  0.00     0.020 A 
HETATM   24  C   UNL     1      43.277 -17.970   3.168  1.00  0.00    -0.025 A 
HETATM   25  C   UNL     1      43.849 -18.402   4.384  1.00  0.00    -0.026 A 
HETATM   26  C   UNL     1      43.060 -18.904   2.142  1.00  0.00     0.012 A 
HETATM   27  C   UNL     1      44.053 -17.470   5.412  1.00  0.00     0.013 A 
HETATM   28  C   UNL     1      44.199 -19.753   4.538  1.00  0.00     0.012 A 
HETATM   29  C   UNL     1      43.692 -16.130   5.246  1.00  0.00     0.009 A 
HETATM   30  C   UNL     1      43.978 -20.669   3.509  1.00  0.00     0.001 A 
HETATM   31  C   UNL     1      43.407 -20.246   2.312  1.00  0.00     0.001 A 
ENDBRANCH  20  22
ENDBRANCH   1  20
TORSDOF 4
ENDMDL
MODEL 4
REMARK VINA RESULT:      -9.4      1.375      1.950
REMARK  4 active torsions:
REMARK  status: ('A' for Active; 'I' for Inactive)
REMARK    1  A    between atoms: C_2  and  C_3 
REMARK    2  A    between atoms: C_2  and  C_19 
REMARK       I    between atoms: C_3  and  N_4 
REMARK    3  A    between atoms: N_4  and  C_5 
REMARK    4  A    between atoms: C_12  and  C_13 
REMARK       I    between atoms: C_13  and  N_14 
ROOT
HETATM    1  C   UNL     1      41.810 -13.377   3.565  1.00  0.00     0.230 C 
HETATM    2  N   UNL     1      40.459 -13.473   3.283  1.00  0.00    -0.327 N 
HETATM    3  O   UNL     1      42.605 -12.641   2.983  1.00  0.00    -0.272 OA
HETATM    4  H   UNL     1      39.882 -13.918   3.984  1.00  0.00     0.169 HD
ENDROOT
BRANCH   2   5
HETATM    5  C   UNL     1      39.768 -12.913   2.189  1.00  0.00     0.035 A 
HETATM    6  C   UNL     1      39.823 -13.435   0.890  1.00  0.00     0.046 A 
HETATM    7  C   UNL     1      39.044 -12.847  -0.131  1.00  0.00     0.030 A 
HETATM    8  C   UNL     1      38.253 -11.747   0.179  1.00  0.00     0.063 A 
HETATM    9  C   UNL     1      38.804 -13.094  -1.517  1.00  0.00     0.156 A 
HETATM   10  N   UNL     1      37.635 -11.403  -0.990  1.00  0.00    -0.277 N 
HETATM   11  C   UNL     1      38.179 -11.197   1.460  1.00  0.00     0.034 A 
HETATM   12  H   UNL     1      36.984 -10.640  -1.139  1.00  0.00     0.189 HD
HETATM   13  N   UNL     1      37.935 -12.194  -2.033  1.00  0.00    -0.168 NA
HETATM   14  C   UNL     1      38.946 -11.810   2.458  1.00  0.00     0.032 A 
BRANCH   9  15
HETATM   15  C   UNL     1      39.367 -14.169  -2.346  1.00  0.00     0.270 C 
HETATM   16  N   UNL     1      38.643 -15.330  -2.319  1.00  0.00    -0.365 N 
HETATM   17  H   UNL     1      37.811 -15.370  -1.742  1.00  0.00     0.159 HD
HETATM   18  H   UNL     1      38.961 -16.129  -2.843  1.00  0.00     0.159 HD
HETATM   19  O   UNL     1      40.394 -14.078  -3.009  1.00  0.00    -0.266 OA
ENDBRANCH   9  15
ENDBRANCH   2   5
BRANCH   1  20
HETATM   20  C   UNL     1      42.327 -14.366   4.623  1.00  0.00     0.107 C 
HETATM   21  C   UNL     1      43.470 -13.693   5.388  1.00  0.00     0.025 C 
BRANCH  20  22
HETATM   22  C   UNL     1      42.670 -15.750   4.084  1.00  0.00    -0.044 A 
HETATM   23  C   UNL     1      43.078 -16.808   4.918  1.00  0.00     0.020 A 
HETATM   24  C   UNL     1      43.422 -18.065   4.393  1.00  0.00    -0.025 A 
HETATM   25  C   UNL     1      43.343 -18.280   3.000  1.00  0.00    -0.026 A 
HETATM   26  C   UNL     1      43.844 -19.114   5.226  1.00  0.00     0.012 A 
HETATM   27  C   UNL     1      42.934 -17.228   2.169  1.00  0.00     0.013 A 
HETATM   28  C   UNL     1      43.678 -19.541   2.479  1.00  0.00     0.012 A 
HETATM   29  C   UNL     1      42.611 -15.977   2.703  1.00  0.00     0.009 A 
HETATM   30  C   UNL     1      44.095 -20.573   3.320  1.00  0.00     0.001 A 
HETATM   31  C   UNL     1      44.180 -20.360   4.693  1.00  0.00     0.001 A 
ENDBRANCH  20  22
ENDBRANCH   1  20
TORSDOF 4
ENDMDL
MODEL 5
REMARK VINA RESULT:      -9.2      1.703      2.099
REMARK  4 active torsions:
REMARK  status: ('A' for Active; 'I' for Inactive)
REMARK    1  A    between atoms: C_2  and  C_3 
REMARK    2  A    between atoms: C_2  and  C_19 
REMARK       I    between atoms: C_3  and  N_4 
REMARK    3  A    between atoms: N_4  and  C_5 
REMARK    4  A    between atoms: C_12  and  C_13 
REMARK       I    between atoms: C_13  and  N_14 
ROOT
HETATM    1  C   UNL     1      41.555 -14.232   3.938  1.00  0.00     0.230 C 
HETATM    2  N   UNL     1      42.319 -13.608   2.968  1.00  0.00    -0.327 N 
HETATM    3  O   UNL     1      40.326 -14.269   3.957  1.00  0.00    -0.272 OA
HETATM    4  H   UNL     1      43.298 -13.859   2.933  1.00  0.00     0.169 HD
ENDROOT
BRANCH   2   5
HETATM    5  C   UNL     1      41.871 -12.753   1.940  1.00  0.00     0.035 A 
HETATM    6  C   UNL     1      41.246 -13.210   0.772  1.00  0.00     0.046 A 
HETATM    7  C   UNL     1      40.771 -12.274  -0.174  1.00  0.00     0.030 A 
HETATM    8  C   UNL     1      40.953 -10.919   0.073  1.00  0.00     0.063 A 
HETATM    9  C   UNL     1      40.077 -12.332  -1.421  1.00  0.00     0.156 A 
HETATM   10  N   UNL     1      40.405 -10.278  -1.002  1.00  0.00    -0.277 N 
HETATM   11  C   UNL     1      41.577 -10.430   1.222  1.00  0.00     0.034 A 
HETATM   12  H   UNL     1      40.362  -9.278  -1.163  1.00  0.00     0.189 HD
HETATM   13  N   UNL     1      39.861 -11.093  -1.920  1.00  0.00    -0.168 NA
HETATM   14  C   UNL     1      42.022 -11.376   2.153  1.00  0.00     0.032 A 
BRANCH   9  15
HETATM   15  C   UNL     1      39.605 -13.530  -2.131  1.00  0.00     0.270 C 
HETATM   16  N   UNL     1      38.386 -13.984  -1.708  1.00  0.00    -0.365 N 
HETATM   17  H   UNL     1      37.918 -13.490  -0.956  1.00  0.00     0.159 HD
HETATM   18  H   UNL     1      37.989 -14.811  -2.124  1.00  0.00     0.159 HD
HETATM   19  O   UNL     1      40.223 -14.106  -3.019  1.00  0.00    -0.266 OA
ENDBRANCH   9  15
ENDBRANCH   2   5
BRANCH   1  20
HETATM   20  C   UNL     1      42.349 -14.817   5.118  1.00  0.00     0.107 C 
HETATM   21  C   UNL     1      43.464 -13.831   5.480  1.00  0.00     0.025 C 
BRANCH  20  22
HETATM   22  C   UNL     1      42.829 -16.249   4.912  1.00  0.00    -0.044 A 
HETATM   23  C   UNL     1      42.777 -16.894   3.663  1.00  0.00     0.020 A 
HETATM   24  C   UNL     1      43.194 -18.227   3.507  1.00  0.00    -0.025 A 
HETATM   25  C   UNL     1      43.691 -18.933   4.623  1.00  0.00    -0.026 A 
HETATM   26  C   UNL     1      43.126 -18.873   2.261  1.00  0.00     0.012 A 
HETATM   27  C   UNL     1      43.746 -18.291   5.868  1.00  0.00     0.013 A 
HETATM   28  C   UNL     1      44.116 -20.262   4.463  1.00  0.00     0.012 A 
HETATM   29  C   UNL     1      43.312 -16.970   6.013  1.00  0.00     0.009 A 
HETATM   30  C   UNL     1      44.043 -20.890   3.219  1.00  0.00     0.001 A 
HETATM   31  C   UNL     1      43.546 -20.196   2.119  1.00  0.00     0.001 A 
ENDBRANCH  20  22
ENDBRANCH   1  20
TORSDOF 4
ENDMDL
MODEL 6
REMARK VINA RESULT:      -8.9      4.376      7.199
REMARK  4 active torsions:
REMARK  status: ('A' for Active; 'I' for Inactive)
REMARK    1  A    between atoms: C_2  and  C_3 
REMARK    2  A    between atoms: C_2  and  C_19 
REMARK       I    between atoms: C_3  and  N_4 
REMARK    3  A    between atoms: N_4  and  C_5 
REMARK    4  A    between atoms: C_12  and  C_13 
REMARK       I    between atoms: C_13  and  N_14 
ROOT
HETATM    1  C   UNL     1      41.922 -13.485   3.288  1.00  0.00     0.230 C 
HETATM    2  N   UNL     1      42.531 -12.247   3.397  1.00  0.00    -0.327 N 
HETATM    3  O   UNL     1      40.956 -13.860   3.949  1.00  0.00    -0.272 OA
HETATM    4  H   UNL     1      43.143 -11.976   2.639  1.00  0.00     0.169 HD
ENDROOT
BRANCH   2   5
HETATM    5  C   UNL     1      42.304 -11.263   4.381  1.00  0.00     0.035 A 
HETATM    6  C   UNL     1      43.038 -11.176   5.572  1.00  0.00     0.046 A 
HETATM    7  C   UNL     1      42.785 -10.114   6.469  1.00  0.00     0.030 A 
HETATM    8  C   UNL     1      41.796  -9.191   6.154  1.00  0.00     0.063 A 
HETATM    9  C   UNL     1      43.318  -9.672   7.718  1.00  0.00     0.156 A 
HETATM   10  N   UNL     1      41.780  -8.306   7.195  1.00  0.00    -0.277 N 
HETATM   11  C   UNL     1      41.042  -9.252   4.980  1.00  0.00     0.034 A 
HETATM   12  H   UNL     1      41.177  -7.498   7.305  1.00  0.00     0.189 HD
HETATM   13  N   UNL     1      42.686  -8.557   8.154  1.00  0.00    -0.168 NA
HETATM   14  C   UNL     1      41.325 -10.301   4.098  1.00  0.00     0.032 A 
BRANCH   9  15
HETATM   15  C   UNL     1      44.416 -10.273   8.488  1.00  0.00     0.270 C 
HETATM   16  N   UNL     1      45.431  -9.403   8.783  1.00  0.00    -0.365 N 
HETATM   17  H   UNL     1      45.363  -8.448   8.452  1.00  0.00     0.159 HD
HETATM   18  H   UNL     1      46.236  -9.730   9.293  1.00  0.00     0.159 HD
HETATM   19  O   UNL     1      44.462 -11.445   8.844  1.00  0.00    -0.266 OA
ENDBRANCH   9  15
ENDBRANCH   2   5
BRANCH   1  20
HETATM   20  C   UNL     1      42.613 -14.468   2.328  1.00  0.00     0.107 C 
HETATM   21  C   UNL     1      41.735 -14.616   1.082  1.00  0.00     0.025 C 
BRANCH  20  22
HETATM   22  C   UNL     1      43.020 -15.793   2.961  1.00  0.00    -0.044 A 
HETATM   23  C   UNL     1      43.003 -17.009   2.253  1.00  0.00     0.020 A 
HETATM   24  C   UNL     1      43.352 -18.223   2.870  1.00  0.00    -0.025 A 
HETATM   25  C   UNL     1      43.742 -18.225   4.226  1.00  0.00    -0.026 A 
HETATM   26  C   UNL     1      43.318 -19.437   2.164  1.00  0.00     0.012 A 
HETATM   27  C   UNL     1      43.763 -17.013   4.932  1.00  0.00     0.013 A 
HETATM   28  C   UNL     1      44.099 -19.438   4.838  1.00  0.00     0.012 A 
HETATM   29  C   UNL     1      43.397 -15.816   4.311  1.00  0.00     0.009 A 
HETATM   30  C   UNL     1      44.061 -20.636   4.123  1.00  0.00     0.001 A 
HETATM   31  C   UNL     1      43.669 -20.636   2.787  1.00  0.00     0.001 A 
ENDBRANCH  20  22
ENDBRANCH   1  20
TORSDOF 4
ENDMDL
MODEL 7
REMARK VINA RESULT:      -8.7      8.192     10.995
REMARK  4 active torsions:
REMARK  status: ('A' for Active; 'I' for Inactive)
REMARK    1  A    between atoms: C_2  and  C_3 
REMARK    2  A    between atoms: C_2  and  C_19 
REMARK       I    between atoms: C_3  and  N_4 
REMARK    3  A    between atoms: N_4  and  C_5 
REMARK    4  A    between atoms: C_12  and  C_13 
REMARK       I    between atoms: C_13  and  N_14 
ROOT
HETATM    1  C   UNL     1      43.430 -10.011   8.771  1.00  0.00     0.230 C 
HETATM    2  N   UNL     1      44.021 -11.161   8.277  1.00  0.00    -0.327 N 
HETATM    3  O   UNL     1      42.418  -9.482   8.315  1.00  0.00    -0.272 OA
HETATM    4  H   UNL     1      44.687 -11.623   8.882  1.00  0.00     0.169 HD
ENDROOT
BRANCH   2   5
HETATM    5  C   UNL     1      43.715 -11.835   7.077  1.00  0.00     0.035 A 
HETATM    6  C   UNL     1      43.046 -13.066   7.030  1.00  0.00     0.046 A 
HETATM    7  C   UNL     1      42.723 -13.636   5.779  1.00  0.00     0.030 A 
HETATM    8  C   UNL     1      43.097 -12.965   4.620  1.00  0.00     0.063 A 
HETATM    9  C   UNL     1      42.045 -14.807   5.324  1.00  0.00     0.156 A 
HETATM   10  N   UNL     1      42.662 -13.750   3.590  1.00  0.00    -0.277 N 
HETATM   11  C   UNL     1      43.770 -11.742   4.630  1.00  0.00     0.034 A 
HETATM   12  H   UNL     1      42.766 -13.573   2.597  1.00  0.00     0.189 HD
HETATM   13  N   UNL     1      42.018 -14.865   3.972  1.00  0.00    -0.168 NA
HETATM   14  C   UNL     1      44.061 -11.189   5.883  1.00  0.00     0.032 A 
BRANCH   9  15
HETATM   15  C   UNL     1      41.414 -15.853   6.142  1.00  0.00     0.270 C 
HETATM   16  N   UNL     1      40.059 -15.712   6.278  1.00  0.00    -0.365 N 
HETATM   17  H   UNL     1      39.607 -14.921   5.835  1.00  0.00     0.159 HD
HETATM   18  H   UNL     1      39.543 -16.371   6.837  1.00  0.00     0.159 HD
HETATM   19  O   UNL     1      42.012 -16.778   6.679  1.00  0.00    -0.266 OA
ENDBRANCH   9  15
ENDBRANCH   2   5
BRANCH   1  20
HETATM   20  C   UNL     1      44.196  -9.324   9.913  1.00  0.00     0.107 C 
HETATM   21  C   UNL     1      45.537 -10.043  10.090  1.00  0.00     0.025 C 
BRANCH  20  22
HETATM   22  C   UNL     1      43.402  -9.163  11.205  1.00  0.00    -0.044 A 
HETATM   23  C   UNL     1      43.641  -8.119  12.116  1.00  0.00     0.020 A 
HETATM   24  C   UNL     1      42.917  -8.012  13.317  1.00  0.00    -0.025 A 
HETATM   25  C   UNL     1      41.919  -8.965  13.611  1.00  0.00    -0.026 A 
HETATM   26  C   UNL     1      43.169  -6.977  14.232  1.00  0.00     0.012 A 
HETATM   27  C   UNL     1      41.678 -10.005  12.702  1.00  0.00     0.013 A 
HETATM   28  C   UNL     1      41.191  -8.851  14.807  1.00  0.00     0.012 A 
HETATM   29  C   UNL     1      42.416 -10.108  11.520  1.00  0.00     0.009 A 
HETATM   30  C   UNL     1      41.452  -7.816  15.705  1.00  0.00     0.001 A 
HETATM   31  C   UNL     1      42.442  -6.881  15.419  1.00  0.00     0.001 A 
ENDBRANCH  20  22
ENDBRANCH   1  20
TORSDOF 4
ENDMDL
MODEL 8
REMARK VINA RESULT:      -8.4      5.400      9.414
REMARK  4 active torsions:
REMARK  status: ('A' for Active; 'I' for Inactive)
REMARK    1  A    between atoms: C_2  and  C_3 
REMARK    2  A    between atoms: C_2  and  C_19 
REMARK       I    between atoms: C_3  and  N_4 
REMARK    3  A    between atoms: N_4  and  C_5 
REMARK    4  A    between atoms: C_12  and  C_13 
REMARK       I    between atoms: C_13  and  N_14 
ROOT
HETATM    1  C   UNL     1      41.997 -14.042   6.403  1.00  0.00     0.230 C 
HETATM    2  N   UNL     1      42.041 -12.671   6.584  1.00  0.00    -0.327 N 
HETATM    3  O   UNL     1      42.950 -14.806   6.544  1.00  0.00    -0.272 OA
HETATM    4  H   UNL     1      41.151 -12.199   6.680  1.00  0.00     0.169 HD
ENDROOT
BRANCH   2   5
HETATM    5  C   UNL     1      43.182 -11.865   6.774  1.00  0.00     0.035 A 
HETATM    6  C   UNL     1      43.167 -10.656   7.483  1.00  0.00     0.046 A 
HETATM    7  C   UNL     1      44.374  -9.950   7.680  1.00  0.00     0.030 A 
HETATM    8  C   UNL     1      45.548 -10.466   7.146  1.00  0.00     0.063 A 
HETATM    9  C   UNL     1      44.769  -8.751   8.348  1.00  0.00     0.156 A 
HETATM   10  N   UNL     1      46.525  -9.575   7.489  1.00  0.00    -0.277 N 
HETATM   11  C   UNL     1      45.598 -11.663   6.429  1.00  0.00     0.034 A 
HETATM   12  H   UNL     1      47.512  -9.629   7.262  1.00  0.00     0.189 HD
HETATM   13  N   UNL     1      46.098  -8.532   8.219  1.00  0.00    -0.168 NA
HETATM   14  C   UNL     1      44.392 -12.355   6.264  1.00  0.00     0.032 A 
BRANCH   9  15
HETATM   15  C   UNL     1      43.918  -7.828   9.113  1.00  0.00     0.270 C 
HETATM   16  N   UNL     1      43.406  -8.365  10.263  1.00  0.00    -0.365 N 
HETATM   17  H   UNL     1      43.631  -9.327  10.491  1.00  0.00     0.159 HD
HETATM   18  H   UNL     1      42.797  -7.813  10.844  1.00  0.00     0.159 HD
HETATM   19  O   UNL     1      43.657  -6.677   8.780  1.00  0.00    -0.266 OA
ENDBRANCH   9  15
ENDBRANCH   2   5
BRANCH   1  20
HETATM   20  C   UNL     1      40.658 -14.588   5.881  1.00  0.00     0.107 C 
HETATM   21  C   UNL     1      40.388 -15.929   6.569  1.00  0.00     0.025 C 
BRANCH  20  22
HETATM   22  C   UNL     1      40.538 -14.633   4.362  1.00  0.00    -0.044 A 
HETATM   23  C   UNL     1      40.090 -13.536   3.604  1.00  0.00     0.020 A 
HETATM   24  C   UNL     1      39.957 -13.614   2.207  1.00  0.00    -0.025 A 
HETATM   25  C   UNL     1      40.293 -14.814   1.544  1.00  0.00    -0.026 A 
HETATM   26  C   UNL     1      39.494 -12.522   1.455  1.00  0.00     0.012 A 
HETATM   27  C   UNL     1      40.743 -15.908   2.299  1.00  0.00     0.013 A 
HETATM   28  C   UNL     1      40.168 -14.887   0.147  1.00  0.00     0.012 A 
HETATM   29  C   UNL     1      40.855 -15.821   3.689  1.00  0.00     0.009 A 
HETATM   30  C   UNL     1      39.707 -13.793  -0.586  1.00  0.00     0.001 A 
HETATM   31  C   UNL     1      39.369 -12.612   0.067  1.00  0.00     0.001 A 
ENDBRANCH  20  22
ENDBRANCH   1  20
TORSDOF 4
ENDMDL
MODEL 9
REMARK VINA RESULT:      -8.2      6.809      9.660
REMARK  4 active torsions:
REMARK  status: ('A' for Active; 'I' for Inactive)
REMARK    1  A    between atoms: C_2  and  C_3 
REMARK    2  A    between atoms: C_2  and  C_19 
REMARK       I    between atoms: C_3  and  N_4 
REMARK    3  A    between atoms: N_4  and  C_5 
REMARK    4  A    between atoms: C_12  and  C_13 
REMARK       I    between atoms: C_13  and  N_14 
ROOT
HETATM    1  C   UNL     1      43.338 -11.094   7.148  1.00  0.00     0.230 C 
HETATM    2  N   UNL     1      43.739 -12.418   7.115  1.00  0.00    -0.327 N 
HETATM    3  O   UNL     1      42.293 -10.658   6.669  1.00  0.00    -0.272 OA
HETATM    4  H   UNL     1      44.481 -12.682   7.750  1.00  0.00     0.169 HD
ENDROOT
BRANCH   2   5
HETATM    5  C   UNL     1      43.154 -13.475   6.388  1.00  0.00     0.035 A 
HETATM    6  C   UNL     1      42.230 -13.283   5.352  1.00  0.00     0.046 A 
HETATM    7  C   UNL     1      41.747 -14.399   4.634  1.00  0.00     0.030 A 
HETATM    8  C   UNL     1      42.189 -15.667   4.989  1.00  0.00     0.063 A 
HETATM    9  C   UNL     1      40.861 -14.612   3.534  1.00  0.00     0.156 A 
HETATM   10  N   UNL     1      41.554 -16.525   4.137  1.00  0.00    -0.277 N 
HETATM   11  C   UNL     1      43.104 -15.896   6.020  1.00  0.00     0.034 A 
HETATM   12  H   UNL     1      41.636 -17.536   4.109  1.00  0.00     0.189 HD
HETATM   13  N   UNL     1      40.751 -15.929   3.241  1.00  0.00    -0.168 NA
HETATM   14  C   UNL     1      43.583 -14.771   6.703  1.00  0.00     0.032 A 
BRANCH   9  15
HETATM   15  C   UNL     1      40.139 -13.597   2.754  1.00  0.00     0.270 C 
HETATM   16  N   UNL     1      38.794 -13.830   2.646  1.00  0.00    -0.365 N 
HETATM   17  H   UNL     1      38.409 -14.660   3.083  1.00  0.00     0.159 HD
HETATM   18  H   UNL     1      38.219 -13.197   2.114  1.00  0.00     0.159 HD
HETATM   19  O   UNL     1      40.658 -12.622   2.223  1.00  0.00    -0.266 OA
ENDBRANCH   9  15
ENDBRANCH   2   5
BRANCH   1  20
HETATM   20  C   UNL     1      44.362 -10.117   7.749  1.00  0.00     0.107 C 
HETATM   21  C   UNL     1      45.747 -10.765   7.664  1.00  0.00     0.025 C 
BRANCH  20  22
HETATM   22  C   UNL     1      44.005  -9.595   9.135  1.00  0.00    -0.044 A 
HETATM   23  C   UNL     1      43.458  -8.315   9.345  1.00  0.00     0.020 A 
HETATM   24  C   UNL     1      43.168  -7.843  10.637  1.00  0.00    -0.025 A 
HETATM   25  C   UNL     1      43.416  -8.675  11.750  1.00  0.00    -0.026 A 
HETATM   26  C   UNL     1      42.638  -6.559  10.844  1.00  0.00     0.012 A 
HETATM   27  C   UNL     1      43.958  -9.951  11.542  1.00  0.00     0.013 A 
HETATM   28  C   UNL     1      43.118  -8.205  13.040  1.00  0.00     0.012 A 
HETATM   29  C   UNL     1      44.257 -10.401  10.253  1.00  0.00     0.009 A 
HETATM   30  C   UNL     1      42.589  -6.927  13.229  1.00  0.00     0.001 A 
HETATM   31  C   UNL     1      42.351  -6.104  12.132  1.00  0.00     0.001 A 
ENDBRANCH  20  22
ENDBRANCH   1  20
TORSDOF 4
ENDMDL
MODEL 10
REMARK VINA RESULT:      -8.1     14.011     17.074
REMARK  4 active torsions:
REMARK  status: ('A' for Active; 'I' for Inactive)
REMARK    1  A    between atoms: C_2  and  C_3 
REMARK    2  A    between atoms: C_2  and  C_19 
REMARK       I    between atoms: C_3  and  N_4 
REMARK    3  A    between atoms: N_4  and  C_5 
REMARK    4  A    between atoms: C_12  and  C_13 
REMARK       I    between atoms: C_13  and  N_14 
ROOT
HETATM    1  C   UNL     1      40.437  -7.707  13.782  1.00  0.00     0.230 C 
HETATM    2  N   UNL     1      41.096  -8.053  14.948  1.00  0.00    -0.327 N 
HETATM    3  O   UNL     1      39.861  -6.639  13.584  1.00  0.00    -0.272 OA
HETATM    4  H   UNL     1      41.729  -8.840  14.893  1.00  0.00     0.169 HD
ENDROOT
BRANCH   2   5
HETATM    5  C   UNL     1      41.086  -7.362  16.177  1.00  0.00     0.035 A 
HETATM    6  C   UNL     1      40.592  -7.910  17.369  1.00  0.00     0.046 A 
HETATM    7  C   UNL     1      40.683  -7.168  18.567  1.00  0.00     0.030 A 
HETATM    8  C   UNL     1      41.248  -5.899  18.528  1.00  0.00     0.063 A 
HETATM    9  C   UNL     1      40.342  -7.378  19.938  1.00  0.00     0.156 A 
HETATM   10  N   UNL     1      41.192  -5.438  19.813  1.00  0.00    -0.277 N 
HETATM   11  C   UNL     1      41.744  -5.320  17.359  1.00  0.00     0.034 A 
HETATM   12  H   UNL     1      41.513  -4.539  20.157  1.00  0.00     0.189 HD
HETATM   13  N   UNL     1      40.660  -6.301  20.693  1.00  0.00    -0.168 NA
HETATM   14  C   UNL     1      41.659  -6.083  16.188  1.00  0.00     0.032 A 
BRANCH   9  15
HETATM   15  C   UNL     1      39.743  -8.578  20.539  1.00  0.00     0.270 C 
HETATM   16  N   UNL     1      40.400  -9.740  20.239  1.00  0.00    -0.365 N 
HETATM   17  H   UNL     1      41.213  -9.695  19.636  1.00  0.00     0.159 HD
HETATM   18  H   UNL     1      40.051 -10.616  20.592  1.00  0.00     0.159 HD
HETATM   19  O   UNL     1      38.739  -8.581  21.244  1.00  0.00    -0.266 OA
ENDBRANCH   9  15
ENDBRANCH   2   5
BRANCH   1  20
HETATM   20  C   UNL     1      40.357  -8.820  12.724  1.00  0.00     0.107 C 
HETATM   21  C   UNL     1      39.711 -10.049  13.369  1.00  0.00     0.025 C 
BRANCH  20  22
HETATM   22  C   UNL     1      41.672  -9.112  12.009  1.00  0.00    -0.044 A 
HETATM   23  C   UNL     1      42.149  -8.322  10.948  1.00  0.00     0.020 A 
HETATM   24  C   UNL     1      43.348  -8.632  10.283  1.00  0.00    -0.025 A 
HETATM   25  C   UNL     1      44.100  -9.753  10.696  1.00  0.00    -0.026 A 
HETATM   26  C   UNL     1      43.814  -7.851   9.212  1.00  0.00     0.012 A 
HETATM   27  C   UNL     1      43.627 -10.539  11.756  1.00  0.00     0.013 A 
HETATM   28  C   UNL     1      45.302 -10.056  10.036  1.00  0.00     0.012 A 
HETATM   29  C   UNL     1      42.424 -10.229  12.398  1.00  0.00     0.009 A 
HETATM   30  C   UNL     1      45.752  -9.269   8.976  1.00  0.00     0.001 A 
HETATM   31  C   UNL     1      45.008  -8.168   8.562  1.00  0.00     0.001 A 
ENDBRANCH  20  22
ENDBRANCH   1  20
TORSDOF 4
ENDMDL
