MODEL 1
REMARK VINA RESULT:      -9.3      0.000      0.000
REMARK  6 active torsions:
REMARK  status: ('A' for Active; 'I' for Inactive)
REMARK    1  A    between atoms: C_2  and  C_3 
REMARK    2  A    between atoms: C_3  and  C_4 
REMARK       I    between atoms: C_4  and  N_5 
REMARK    3  A    between atoms: N_5  and  C_6 
REMARK    4  A    between atoms: C_8  and  C_9 
REMARK    5  A    between atoms: C_9  and  N_10 
REMARK       I    between atoms: N_10  and  C_11 
REMARK    6  A    between atoms: C_11  and  C_12 
ROOT
HETATM    1  C   UNL     1      43.860 -12.535   5.761  1.00  0.00     0.161 C 
ENDROOT
BRANCH   1   2
HETATM    2  C   UNL     1      44.441 -11.580   6.767  1.00  0.00    -0.038 A 
HETATM    3  C   UNL     1      43.663 -11.124   7.844  1.00  0.00     0.038 A 
HETATM    4  C   UNL     1      44.223 -10.325   8.846  1.00  0.00     0.035 A 
HETATM    5  C   UNL     1      45.572  -9.965   8.754  1.00  0.00     0.029 A 
HETATM    6  C   UNL     1      46.342 -10.374   7.663  1.00  0.00     0.003 A 
HETATM    7  C   UNL     1      45.780 -11.179   6.674  1.00  0.00     0.009 A 
BRANCH   4   8
HETATM    8  N   UNL     1      43.514  -9.913   9.995  1.00  0.00    -0.327 N 
HETATM    9  C   UNL     1      43.558 -10.500  11.246  1.00  0.00     0.226 C 
HETATM   10  O   UNL     1      44.114 -11.569  11.493  1.00  0.00    -0.273 OA
HETATM   11  H   UNL     1      42.825  -9.194   9.839  1.00  0.00     0.169 HD
BRANCH   9  12
HETATM   12  C   UNL     1      42.943  -9.658  12.383  1.00  0.00     0.074 C 
HETATM   13  C   UNL     1      41.412  -9.739  12.324  1.00  0.00     0.020 C 
BRANCH  12  14
HETATM   14  C   UNL     1      43.412  -8.198  12.507  1.00  0.00     0.009 C 
HETATM   15  C   UNL     1      43.003  -7.500  13.795  1.00  0.00     0.006 C 
ENDBRANCH  12  14
ENDBRANCH   9  12
ENDBRANCH   4   8
ENDBRANCH   1   2
BRANCH   1  16
HETATM   16  N   UNL     1      43.636 -13.846   6.305  1.00  0.00    -0.351 N 
HETATM   17  C   UNL     1      43.087 -14.835   5.514  1.00  0.00     0.273 C 
HETATM   18  O   UNL     1      42.564 -14.605   4.427  1.00  0.00    -0.266 OA
HETATM   19  H   UNL     1      44.184 -14.175   7.095  1.00  0.00     0.163 HD
BRANCH  17  20
HETATM   20  C   UNL     1      43.219 -16.189   6.073  1.00  0.00     0.157 A 
HETATM   21  N   UNL     1      43.176 -16.418   7.404  1.00  0.00    -0.168 NA
HETATM   22  N   UNL     1      43.351 -17.747   7.505  1.00  0.00    -0.277 N 
HETATM   23  H   UNL     1      43.355 -18.161   8.431  1.00  0.00     0.189 HD
HETATM   24  C   UNL     1      43.517 -18.392   6.311  1.00  0.00     0.063 A 
HETATM   25  C   UNL     1      43.432 -17.397   5.345  1.00  0.00     0.029 A 
HETATM   26  C   UNL     1      43.731 -19.738   6.002  1.00  0.00     0.032 A 
HETATM   27  C   UNL     1      43.570 -17.755   3.990  1.00  0.00     0.023 A 
HETATM   28  C   UNL     1      43.791 -19.099   3.644  1.00  0.00    -0.061 A 
HETATM   29  C   UNL     1      43.868 -20.071   4.649  1.00  0.00     0.009 A 
HETATM   30  C   UNL     1      43.944 -19.469   2.197  1.00  0.00     0.048 C 
ENDBRANCH  17  20
ENDBRANCH   1  16
TORSDOF 6
ENDMDL
MODEL 2
REMARK VINA RESULT:      -8.8      1.815      2.205
REMARK  6 active torsions:
REMARK  status: ('A' for Active; 'I' for Inactive)
REMARK    1  A    between atoms: C_2  and  C_3 
REMARK    2  A    between atoms: C_3  and  C_4 
REMARK       I    between atoms: C_4  and  N_5 
REMARK    3  A    between atoms: N_5  and  C_6 
REMARK    4  A    between atoms: C_8  and  C_9 
REMARK    5  A    between atoms: C_9  and  N_10 
REMARK       I    between atoms: N_10  and  C_11 
REMARK    6  A    between atoms: C_11  and  C_12 
ROOT
HETATM    1  C   UNL     1      43.007 -12.203   6.349  1.00  0.00     0.161 C 
ENDROOT
BRANCH   1   2
HETATM    2  C   UNL     1      44.017 -11.426   7.149  1.00  0.00    -0.038 A 
HETATM    3  C   UNL     1      43.695 -10.950   8.430  1.00  0.00     0.038 A 
HETATM    4  C   UNL     1      44.658 -10.324   9.227  1.00  0.00     0.035 A 
HETATM    5  C   UNL     1      45.952 -10.158   8.723  1.00  0.00     0.029 A 
HETATM    6  C   UNL     1      46.271 -10.585   7.432  1.00  0.00     0.003 A 
HETATM    7  C   UNL     1      45.309 -11.217   6.648  1.00  0.00     0.009 A 
BRANCH   4   8
HETATM    8  N   UNL     1      44.415  -9.908  10.553  1.00  0.00    -0.327 N 
HETATM    9  C   UNL     1      43.780  -8.744  10.950  1.00  0.00     0.226 C 
HETATM   10  O   UNL     1      43.470  -7.829  10.189  1.00  0.00    -0.273 OA
HETATM   11  H   UNL     1      44.859 -10.465  11.266  1.00  0.00     0.169 HD
BRANCH   9  12
HETATM   12  C   UNL     1      43.367  -8.701  12.435  1.00  0.00     0.074 C 
HETATM   13  C   UNL     1      42.536  -9.942  12.783  1.00  0.00     0.020 C 
BRANCH  12  14
HETATM   14  C   UNL     1      42.678  -7.420  12.934  1.00  0.00     0.009 C 
HETATM   15  C   UNL     1      43.144  -6.928  14.296  1.00  0.00     0.006 C 
ENDBRANCH  12  14
ENDBRANCH   9  12
ENDBRANCH   4   8
ENDBRANCH   1   2
BRANCH   1  16
HETATM   16  N   UNL     1      43.541 -13.427   5.820  1.00  0.00    -0.351 N 
HETATM   17  C   UNL     1      43.368 -14.609   6.511  1.00  0.00     0.273 C 
HETATM   18  O   UNL     1      42.976 -14.649   7.675  1.00  0.00    -0.266 OA
HETATM   19  H   UNL     1      43.706 -13.526   4.822  1.00  0.00     0.163 HD
BRANCH  17  20
HETATM   20  C   UNL     1      43.660 -15.813   5.718  1.00  0.00     0.157 A 
HETATM   21  N   UNL     1      44.641 -16.675   6.066  1.00  0.00    -0.168 NA
HETATM   22  N   UNL     1      44.603 -17.608   5.099  1.00  0.00    -0.277 N 
HETATM   23  H   UNL     1      45.264 -18.376   5.147  1.00  0.00     0.189 HD
HETATM   24  C   UNL     1      43.657 -17.392   4.136  1.00  0.00     0.063 A 
HETATM   25  C   UNL     1      43.014 -16.220   4.513  1.00  0.00     0.029 A 
HETATM   26  C   UNL     1      43.318 -18.111   2.986  1.00  0.00     0.032 A 
HETATM   27  C   UNL     1      41.972 -15.727   3.703  1.00  0.00     0.023 A 
HETATM   28  C   UNL     1      41.609 -16.422   2.537  1.00  0.00    -0.061 A 
HETATM   29  C   UNL     1      42.282 -17.601   2.194  1.00  0.00     0.009 A 
HETATM   30  C   UNL     1      40.502 -15.885   1.677  1.00  0.00     0.048 C 
ENDBRANCH  17  20
ENDBRANCH   1  16
TORSDOF 6
ENDMDL
MODEL 3
REMARK VINA RESULT:      -8.8      2.330      9.550
REMARK  6 active torsions:
REMARK  status: ('A' for Active; 'I' for Inactive)
REMARK    1  A    between atoms: C_2  and  C_3 
REMARK    2  A    between atoms: C_3  and  C_4 
REMARK       I    between atoms: C_4  and  N_5 
REMARK    3  A    between atoms: N_5  and  C_6 
REMARK    4  A    between atoms: C_8  and  C_9 
REMARK    5  A    between atoms: C_9  and  N_10 
REMARK       I    between atoms: N_10  and  C_11 
REMARK    6  A    between atoms: C_11  and  C_12 
ROOT
HETATM    1  C   UNL     1      41.808 -13.871   5.453  1.00  0.00     0.161 C 
ENDROOT
BRANCH   1   2
HETATM    2  C   UNL     1      42.358 -14.423   4.166  1.00  0.00    -0.038 A 
HETATM    3  C   UNL     1      42.679 -15.786   4.058  1.00  0.00     0.038 A 
HETATM    4  C   UNL     1      43.086 -16.333   2.837  1.00  0.00     0.035 A 
HETATM    5  C   UNL     1      43.190 -15.498   1.720  1.00  0.00     0.029 A 
HETATM    6  C   UNL     1      42.919 -14.132   1.827  1.00  0.00     0.003 A 
HETATM    7  C   UNL     1      42.504 -13.597   3.045  1.00  0.00     0.009 A 
BRANCH   4   8
HETATM    8  N   UNL     1      43.334 -17.710   2.649  1.00  0.00    -0.327 N 
HETATM    9  C   UNL     1      44.115 -18.524   3.448  1.00  0.00     0.226 C 
HETATM   10  O   UNL     1      44.833 -18.119   4.361  1.00  0.00    -0.273 OA
HETATM   11  H   UNL     1      42.998 -18.091   1.778  1.00  0.00     0.169 HD
BRANCH   9  12
HETATM   12  C   UNL     1      43.950 -20.037   3.196  1.00  0.00     0.074 C 
HETATM   13  C   UNL     1      43.147 -20.268   1.910  1.00  0.00     0.020 C 
BRANCH  12  14
HETATM   14  C   UNL     1      43.391 -20.883   4.352  1.00  0.00     0.009 C 
HETATM   15  C   UNL     1      44.337 -21.068   5.529  1.00  0.00     0.006 C 
ENDBRANCH  12  14
ENDBRANCH   9  12
ENDBRANCH   4   8
ENDBRANCH   1   2
BRANCH   1  16
HETATM   16  N   UNL     1      42.604 -12.798   5.981  1.00  0.00    -0.351 N 
HETATM   17  C   UNL     1      43.621 -13.070   6.873  1.00  0.00     0.273 C 
HETATM   18  O   UNL     1      43.749 -14.160   7.426  1.00  0.00    -0.266 OA
HETATM   19  H   UNL     1      42.698 -11.927   5.467  1.00  0.00     0.163 HD
BRANCH  17  20
HETATM   20  C   UNL     1      44.556 -11.952   7.073  1.00  0.00     0.157 A 
HETATM   21  N   UNL     1      45.556 -11.694   6.202  1.00  0.00    -0.168 NA
HETATM   22  N   UNL     1      46.182 -10.633   6.740  1.00  0.00    -0.277 N 
HETATM   23  H   UNL     1      46.984 -10.251   6.252  1.00  0.00     0.189 HD
HETATM   24  C   UNL     1      45.647 -10.193   7.919  1.00  0.00     0.063 A 
HETATM   25  C   UNL     1      44.572 -11.037   8.168  1.00  0.00     0.029 A 
HETATM   26  C   UNL     1      46.010  -9.149   8.774  1.00  0.00     0.032 A 
HETATM   27  C   UNL     1      43.809 -10.837   9.335  1.00  0.00     0.023 A 
HETATM   28  C   UNL     1      44.149  -9.799  10.219  1.00  0.00    -0.061 A 
HETATM   29  C   UNL     1      45.240  -8.970   9.930  1.00  0.00     0.009 A 
HETATM   30  C   UNL     1      43.333  -9.598  11.464  1.00  0.00     0.048 C 
ENDBRANCH  17  20
ENDBRANCH   1  16
TORSDOF 6
ENDMDL
MODEL 4
REMARK VINA RESULT:      -8.8      2.382      3.253
REMARK  6 active torsions:
REMARK  status: ('A' for Active; 'I' for Inactive)
REMARK    1  A    between atoms: C_2  and  C_3 
REMARK    2  A    between atoms: C_3  and  C_4 
REMARK       I    between atoms: C_4  and  N_5 
REMARK    3  A    between atoms: N_5  and  C_6 
REMARK    4  A    between atoms: C_8  and  C_9 
REMARK    5  A    between atoms: C_9  and  N_10 
REMARK       I    between atoms: N_10  and  C_11 
REMARK    6  A    between atoms: C_11  and  C_12 
ROOT
HETATM    1  C   UNL     1      45.035 -12.208   6.371  1.00  0.00     0.161 C 
ENDROOT
BRANCH   1   2
HETATM    2  C   UNL     1      44.996 -11.113   7.401  1.00  0.00    -0.038 A 
HETATM    3  C   UNL     1      43.932 -11.033   8.314  1.00  0.00     0.038 A 
HETATM    4  C   UNL     1      43.938 -10.089   9.345  1.00  0.00     0.035 A 
HETATM    5  C   UNL     1      45.016  -9.203   9.447  1.00  0.00     0.029 A 
HETATM    6  C   UNL     1      46.057  -9.242   8.517  1.00  0.00     0.003 A 
HETATM    7  C   UNL     1      46.048 -10.193   7.499  1.00  0.00     0.009 A 
BRANCH   4   8
HETATM    8  N   UNL     1      42.942 -10.023  10.342  1.00  0.00    -0.327 N 
HETATM    9  C   UNL     1      43.009 -10.562  11.614  1.00  0.00     0.226 C 
HETATM   10  O   UNL     1      43.902 -11.314  12.002  1.00  0.00    -0.273 OA
HETATM   11  H   UNL     1      42.057  -9.646  10.040  1.00  0.00     0.169 HD
BRANCH   9  12
HETATM   12  C   UNL     1      41.924 -10.066  12.591  1.00  0.00     0.074 C 
HETATM   13  C   UNL     1      40.751  -9.463  11.807  1.00  0.00     0.020 C 
BRANCH  12  14
HETATM   14  C   UNL     1      42.375  -9.122  13.719  1.00  0.00     0.009 C 
HETATM   15  C   UNL     1      43.108  -7.872  13.256  1.00  0.00     0.006 C 
ENDBRANCH  12  14
ENDBRANCH   9  12
ENDBRANCH   4   8
ENDBRANCH   1   2
BRANCH   1  16
HETATM   16  N   UNL     1      43.746 -12.472   5.794  1.00  0.00    -0.351 N 
HETATM   17  C   UNL     1      43.501 -12.140   4.477  1.00  0.00     0.273 C 
HETATM   18  O   UNL     1      44.249 -11.419   3.822  1.00  0.00    -0.266 OA
HETATM   19  H   UNL     1      43.152 -13.202   6.176  1.00  0.00     0.163 HD
BRANCH  17  20
HETATM   20  C   UNL     1      42.285 -12.754   3.922  1.00  0.00     0.157 A 
HETATM   21  N   UNL     1      41.106 -12.095   3.886  1.00  0.00    -0.168 NA
HETATM   22  N   UNL     1      40.260 -12.985   3.339  1.00  0.00    -0.277 N 
HETATM   23  H   UNL     1      39.293 -12.710   3.207  1.00  0.00     0.189 HD
HETATM   24  C   UNL     1      40.824 -14.191   3.028  1.00  0.00     0.063 A 
HETATM   25  C   UNL     1      42.159 -14.074   3.396  1.00  0.00     0.029 A 
HETATM   26  C   UNL     1      40.287 -15.354   2.469  1.00  0.00     0.032 A 
HETATM   27  C   UNL     1      43.015 -15.175   3.200  1.00  0.00     0.023 A 
HETATM   28  C   UNL     1      42.507 -16.361   2.644  1.00  0.00    -0.061 A 
HETATM   29  C   UNL     1      41.156 -16.437   2.285  1.00  0.00     0.009 A 
HETATM   30  C   UNL     1      43.427 -17.532   2.445  1.00  0.00     0.048 C 
ENDBRANCH  17  20
ENDBRANCH   1  16
TORSDOF 6
ENDMDL
MODEL 5
REMARK VINA RESULT:      -8.7      1.910      2.643
REMARK  6 active torsions:
REMARK  status: ('A' for Active; 'I' for Inactive)
REMARK    1  A    between atoms: C_2  and  C_3 
REMARK    2  A    between atoms: C_3  and  C_4 
REMARK       I    between atoms: C_4  and  N_5 
REMARK    3  A    between atoms: N_5  and  C_6 
REMARK    4  A    between atoms: C_8  and  C_9 
REMARK    5  A    between atoms: C_9  and  N_10 
REMARK       I    between atoms: N_10  and  C_11 
REMARK    6  A    between atoms: C_11  and  C_12 
ROOT
HETATM    1  C   UNL     1      42.946 -11.185   4.811  1.00  0.00     0.161 C 
ENDROOT
BRANCH   1   2
HETATM    2  C   UNL     1      43.711 -10.935   6.082  1.00  0.00    -0.038 A 
HETATM    3  C   UNL     1      43.050 -10.463   7.228  1.00  0.00     0.038 A 
HETATM    4  C   UNL     1      43.727 -10.332   8.444  1.00  0.00     0.035 A 
HETATM    5  C   UNL     1      45.085 -10.660   8.504  1.00  0.00     0.029 A 
HETATM    6  C   UNL     1      45.764 -11.085   7.361  1.00  0.00     0.003 A 
HETATM    7  C   UNL     1      45.081 -11.223   6.154  1.00  0.00     0.009 A 
BRANCH   4   8
HETATM    8  N   UNL     1      43.094  -9.949   9.646  1.00  0.00    -0.327 N 
HETATM    9  C   UNL     1      43.336 -10.463  10.907  1.00  0.00     0.226 C 
HETATM   10  O   UNL     1      44.041 -11.445  11.132  1.00  0.00    -0.273 OA
HETATM   11  H   UNL     1      42.309  -9.325   9.538  1.00  0.00     0.169 HD
BRANCH   9  12
HETATM   12  C   UNL     1      42.741  -9.644  12.070  1.00  0.00     0.074 C 
HETATM   13  C   UNL     1      41.209  -9.715  12.030  1.00  0.00     0.020 C 
BRANCH  12  14
HETATM   14  C   UNL     1      43.220  -8.190  12.221  1.00  0.00     0.009 C 
HETATM   15  C   UNL     1      43.281  -7.678  13.652  1.00  0.00     0.006 C 
ENDBRANCH  12  14
ENDBRANCH   9  12
ENDBRANCH   4   8
ENDBRANCH   1   2
BRANCH   1  16
HETATM   16  N   UNL     1      43.253 -12.458   4.221  1.00  0.00    -0.351 N 
HETATM   17  C   UNL     1      42.237 -13.351   3.946  1.00  0.00     0.273 C 
HETATM   18  O   UNL     1      41.097 -13.219   4.383  1.00  0.00    -0.266 OA
HETATM   19  H   UNL     1      44.100 -12.580   3.673  1.00  0.00     0.163 HD
BRANCH  17  20
HETATM   20  C   UNL     1      42.635 -14.452   3.055  1.00  0.00     0.157 A 
HETATM   21  N   UNL     1      42.673 -14.304   1.712  1.00  0.00    -0.168 NA
HETATM   22  N   UNL     1      43.053 -15.514   1.268  1.00  0.00    -0.277 N 
HETATM   23  H   UNL     1      43.154 -15.649   0.268  1.00  0.00     0.189 HD
HETATM   24  C   UNL     1      43.253 -16.444   2.250  1.00  0.00     0.063 A 
HETATM   25  C   UNL     1      42.990 -15.779   3.441  1.00  0.00     0.029 A 
HETATM   26  C   UNL     1      43.633 -17.788   2.196  1.00  0.00     0.032 A 
HETATM   27  C   UNL     1      43.108 -16.486   4.653  1.00  0.00     0.023 A 
HETATM   28  C   UNL     1      43.484 -17.840   4.635  1.00  0.00    -0.061 A 
HETATM   29  C   UNL     1      43.742 -18.472   3.413  1.00  0.00     0.009 A 
HETATM   30  C   UNL     1      43.601 -18.586   5.933  1.00  0.00     0.048 C 
ENDBRANCH  17  20
ENDBRANCH   1  16
TORSDOF 6
ENDMDL
MODEL 6
REMARK VINA RESULT:      -8.7      3.559      9.697
REMARK  6 active torsions:
REMARK  status: ('A' for Active; 'I' for Inactive)
REMARK    1  A    between atoms: C_2  and  C_3 
REMARK    2  A    between atoms: C_3  and  C_4 
REMARK       I    between atoms: C_4  and  N_5 
REMARK    3  A    between atoms: N_5  and  C_6 
REMARK    4  A    between atoms: C_8  and  C_9 
REMARK    5  A    between atoms: C_9  and  N_10 
REMARK       I    between atoms: N_10  and  C_11 
REMARK    6  A    between atoms: C_11  and  C_12 
ROOT
HETATM    1  C   UNL     1      42.990 -15.147   6.195  1.00  0.00     0.161 C 
ENDROOT
BRANCH   1   2
HETATM    2  C   UNL     1      42.976 -15.829   4.854  1.00  0.00    -0.038 A 
HETATM    3  C   UNL     1      42.396 -15.197   3.742  1.00  0.00     0.038 A 
HETATM    4  C   UNL     1      42.474 -15.769   2.469  1.00  0.00     0.035 A 
HETATM    5  C   UNL     1      43.124 -16.999   2.316  1.00  0.00     0.029 A 
HETATM    6  C   UNL     1      43.663 -17.659   3.423  1.00  0.00     0.003 A 
HETATM    7  C   UNL     1      43.591 -17.076   4.686  1.00  0.00     0.009 A 
BRANCH   4   8
HETATM    8  N   UNL     1      41.989 -15.138   1.305  1.00  0.00    -0.327 N 
HETATM    9  C   UNL     1      40.678 -15.115   0.863  1.00  0.00     0.226 C 
HETATM   10  O   UNL     1      39.768 -15.780   1.355  1.00  0.00    -0.273 OA
HETATM   11  H   UNL     1      42.697 -14.776   0.686  1.00  0.00     0.169 HD
BRANCH   9  12
HETATM   12  C   UNL     1      40.384 -14.090  -0.251  1.00  0.00     0.074 C 
HETATM   13  C   UNL     1      40.016 -12.736   0.368  1.00  0.00     0.020 C 
BRANCH  12  14
HETATM   14  C   UNL     1      39.363 -14.498  -1.327  1.00  0.00     0.009 C 
HETATM   15  C   UNL     1      39.719 -14.074  -2.744  1.00  0.00     0.006 C 
ENDBRANCH  12  14
ENDBRANCH   9  12
ENDBRANCH   4   8
ENDBRANCH   1   2
BRANCH   1  16
HETATM   16  N   UNL     1      43.924 -14.056   6.253  1.00  0.00    -0.351 N 
HETATM   17  C   UNL     1      43.461 -12.760   6.358  1.00  0.00     0.273 C 
HETATM   18  O   UNL     1      42.285 -12.455   6.178  1.00  0.00    -0.266 OA
HETATM   19  H   UNL     1      44.872 -14.208   6.585  1.00  0.00     0.163 HD
BRANCH  17  20
HETATM   20  C   UNL     1      44.495 -11.786   6.739  1.00  0.00     0.157 A 
HETATM   21  N   UNL     1      45.531 -11.489   5.923  1.00  0.00    -0.168 NA
HETATM   22  N   UNL     1      46.246 -10.595   6.627  1.00  0.00    -0.277 N 
HETATM   23  H   UNL     1      47.090 -10.219   6.209  1.00  0.00     0.189 HD
HETATM   24  C   UNL     1      45.736 -10.303   7.862  1.00  0.00     0.063 A 
HETATM   25  C   UNL     1      44.581 -11.067   7.968  1.00  0.00     0.029 A 
HETATM   26  C   UNL     1      46.183  -9.452   8.876  1.00  0.00     0.032 A 
HETATM   27  C   UNL     1      43.820 -10.986   9.151  1.00  0.00     0.023 A 
HETATM   28  C   UNL     1      44.243 -10.142  10.193  1.00  0.00    -0.061 A 
HETATM   29  C   UNL     1      45.413  -9.388  10.045  1.00  0.00     0.009 A 
HETATM   30  C   UNL     1      43.430 -10.068  11.453  1.00  0.00     0.048 C 
ENDBRANCH  17  20
ENDBRANCH   1  16
TORSDOF 6
ENDMDL
MODEL 7
REMARK VINA RESULT:      -8.5      1.866      9.876
REMARK  6 active torsions:
REMARK  status: ('A' for Active; 'I' for Inactive)
REMARK    1  A    between atoms: C_2  and  C_3 
REMARK    2  A    between atoms: C_3  and  C_4 
REMARK       I    between atoms: C_4  and  N_5 
REMARK    3  A    between atoms: N_5  and  C_6 
REMARK    4  A    between atoms: C_8  and  C_9 
REMARK    5  A    between atoms: C_9  and  N_10 
REMARK       I    between atoms: N_10  and  C_11 
REMARK    6  A    between atoms: C_11  and  C_12 
ROOT
HETATM    1  C   UNL     1      43.811 -11.878   6.661  1.00  0.00     0.161 C 
ENDROOT
BRANCH   1   2
HETATM    2  C   UNL     1      42.908 -12.931   6.079  1.00  0.00    -0.038 A 
HETATM    3  C   UNL     1      43.405 -14.212   5.788  1.00  0.00     0.038 A 
HETATM    4  C   UNL     1      42.554 -15.231   5.352  1.00  0.00     0.035 A 
HETATM    5  C   UNL     1      41.192 -14.954   5.188  1.00  0.00     0.029 A 
HETATM    6  C   UNL     1      40.695 -13.672   5.429  1.00  0.00     0.003 A 
HETATM    7  C   UNL     1      41.548 -12.665   5.874  1.00  0.00     0.009 A 
BRANCH   4   8
HETATM    8  N   UNL     1      42.982 -16.557   5.131  1.00  0.00    -0.327 N 
HETATM    9  C   UNL     1      43.453 -17.086   3.942  1.00  0.00     0.226 C 
HETATM   10  O   UNL     1      43.420 -16.500   2.861  1.00  0.00    -0.273 OA
HETATM   11  H   UNL     1      42.809 -17.197   5.891  1.00  0.00     0.169 HD
BRANCH   9  12
HETATM   12  C   UNL     1      44.148 -18.457   4.069  1.00  0.00     0.074 C 
HETATM   13  C   UNL     1      43.825 -19.321   2.844  1.00  0.00     0.020 C 
BRANCH  12  14
HETATM   14  C   UNL     1      43.918 -19.242   5.371  1.00  0.00     0.009 C 
HETATM   15  C   UNL     1      44.021 -20.754   5.237  1.00  0.00     0.006 C 
ENDBRANCH  12  14
ENDBRANCH   9  12
ENDBRANCH   4   8
ENDBRANCH   1   2
BRANCH   1  16
HETATM   16  N   UNL     1      43.636 -11.719   8.078  1.00  0.00    -0.351 N 
HETATM   17  C   UNL     1      44.463 -10.866   8.782  1.00  0.00     0.273 C 
HETATM   18  O   UNL     1      45.495 -10.397   8.309  1.00  0.00    -0.266 OA
HETATM   19  H   UNL     1      42.736 -11.906   8.509  1.00  0.00     0.163 HD
BRANCH  17  20
HETATM   20  C   UNL     1      43.976 -10.542  10.132  1.00  0.00     0.157 A 
HETATM   21  N   UNL     1      43.902 -11.476  11.105  1.00  0.00    -0.168 NA
HETATM   22  N   UNL     1      43.400 -10.802  12.155  1.00  0.00    -0.277 N 
HETATM   23  H   UNL     1      43.252 -11.306  13.023  1.00  0.00     0.189 HD
HETATM   24  C   UNL     1      43.136  -9.483  11.912  1.00  0.00     0.063 A 
HETATM   25  C   UNL     1      43.506  -9.275  10.589  1.00  0.00     0.029 A 
HETATM   26  C   UNL     1      42.611  -8.474  12.724  1.00  0.00     0.032 A 
HETATM   27  C   UNL     1      43.346  -7.991  10.034  1.00  0.00     0.023 A 
HETATM   28  C   UNL     1      42.817  -6.953  10.821  1.00  0.00    -0.061 A 
HETATM   29  C   UNL     1      42.458  -7.205  12.151  1.00  0.00     0.009 A 
HETATM   30  C   UNL     1      42.644  -5.589  10.218  1.00  0.00     0.048 C 
ENDBRANCH  17  20
ENDBRANCH   1  16
TORSDOF 6
ENDMDL
MODEL 8
REMARK VINA RESULT:      -8.4      3.697      7.012
REMARK  6 active torsions:
REMARK  status: ('A' for Active; 'I' for Inactive)
REMARK    1  A    between atoms: C_2  and  C_3 
REMARK    2  A    between atoms: C_3  and  C_4 
REMARK       I    between atoms: C_4  and  N_5 
REMARK    3  A    between atoms: N_5  and  C_6 
REMARK    4  A    between atoms: C_8  and  C_9 
REMARK    5  A    between atoms: C_9  and  N_10 
REMARK       I    between atoms: N_10  and  C_11 
REMARK    6  A    between atoms: C_11  and  C_12 
ROOT
HETATM    1  C   UNL     1      43.613 -12.984   6.783  1.00  0.00     0.161 C 
ENDROOT
BRANCH   1   2
HETATM    2  C   UNL     1      42.484 -12.343   6.023  1.00  0.00    -0.038 A 
HETATM    3  C   UNL     1      41.929 -12.983   4.903  1.00  0.00     0.038 A 
HETATM    4  C   UNL     1      40.809 -12.453   4.255  1.00  0.00     0.035 A 
HETATM    5  C   UNL     1      40.254 -11.258   4.726  1.00  0.00     0.029 A 
HETATM    6  C   UNL     1      40.826 -10.589   5.809  1.00  0.00     0.003 A 
HETATM    7  C   UNL     1      41.936 -11.129   6.457  1.00  0.00     0.009 A 
BRANCH   4   8
HETATM    8  N   UNL     1      40.157 -13.098   3.183  1.00  0.00    -0.327 N 
HETATM    9  C   UNL     1      40.585 -13.152   1.868  1.00  0.00     0.226 C 
HETATM   10  O   UNL     1      41.531 -12.507   1.419  1.00  0.00    -0.273 OA
HETATM   11  H   UNL     1      39.233 -13.445   3.388  1.00  0.00     0.169 HD
BRANCH   9  12
HETATM   12  C   UNL     1      39.854 -14.186   0.987  1.00  0.00     0.074 C 
HETATM   13  C   UNL     1      39.828 -15.548   1.691  1.00  0.00     0.020 C 
BRANCH  12  14
HETATM   14  C   UNL     1      40.332 -14.329  -0.468  1.00  0.00     0.009 C 
HETATM   15  C   UNL     1      39.242 -14.679  -1.470  1.00  0.00     0.006 C 
ENDBRANCH  12  14
ENDBRANCH   9  12
ENDBRANCH   4   8
ENDBRANCH   1   2
BRANCH   1  16
HETATM   16  N   UNL     1      43.887 -14.324   6.344  1.00  0.00    -0.351 N 
HETATM   17  C   UNL     1      43.398 -15.397   7.061  1.00  0.00     0.273 C 
HETATM   18  O   UNL     1      42.925 -15.284   8.190  1.00  0.00    -0.266 OA
HETATM   19  H   UNL     1      44.095 -14.512   5.367  1.00  0.00     0.163 HD
BRANCH  17  20
HETATM   20  C   UNL     1      43.459 -16.677   6.339  1.00  0.00     0.157 A 
HETATM   21  N   UNL     1      43.562 -17.857   6.989  1.00  0.00    -0.168 NA
HETATM   22  N   UNL     1      43.612 -18.764   5.997  1.00  0.00    -0.277 N 
HETATM   23  H   UNL     1      43.691 -19.744   6.246  1.00  0.00     0.189 HD
HETATM   24  C   UNL     1      43.557 -18.234   4.738  1.00  0.00     0.063 A 
HETATM   25  C   UNL     1      43.453 -16.861   4.924  1.00  0.00     0.029 A 
HETATM   26  C   UNL     1      43.591 -18.831   3.475  1.00  0.00     0.032 A 
HETATM   27  C   UNL     1      43.380 -16.026   3.793  1.00  0.00     0.023 A 
HETATM   28  C   UNL     1      43.416 -16.593   2.507  1.00  0.00    -0.061 A 
HETATM   29  C   UNL     1      43.520 -17.982   2.363  1.00  0.00     0.009 A 
HETATM   30  C   UNL     1      43.345 -15.694   1.306  1.00  0.00     0.048 C 
ENDBRANCH  17  20
ENDBRANCH   1  16
TORSDOF 6
ENDMDL
MODEL 9
REMARK VINA RESULT:      -8.3      6.848      9.408
REMARK  6 active torsions:
REMARK  status: ('A' for Active; 'I' for Inactive)
REMARK    1  A    between atoms: C_2  and  C_3 
REMARK    2  A    between atoms: C_3  and  C_4 
REMARK       I    between atoms: C_4  and  N_5 
REMARK    3  A    between atoms: N_5  and  C_6 
REMARK    4  A    between atoms: C_8  and  C_9 
REMARK    5  A    between atoms: C_9  and  N_10 
REMARK       I    between atoms: N_10  and  C_11 
REMARK    6  A    between atoms: C_11  and  C_12 
ROOT
HETATM    1  C   UNL     1      40.639 -14.193  -0.518  1.00  0.00     0.161 C 
ENDROOT
BRANCH   1   2
HETATM    2  C   UNL     1      40.069 -12.810  -0.675  1.00  0.00    -0.038 A 
HETATM    3  C   UNL     1      40.858 -11.771  -1.196  1.00  0.00     0.038 A 
HETATM    4  C   UNL     1      40.309 -10.511  -1.450  1.00  0.00     0.035 A 
HETATM    5  C   UNL     1      38.960 -10.286  -1.159  1.00  0.00     0.029 A 
HETATM    6  C   UNL     1      38.178 -11.298  -0.597  1.00  0.00     0.003 A 
HETATM    7  C   UNL     1      38.729 -12.554  -0.356  1.00  0.00     0.009 A 
BRANCH   4   8
HETATM    8  N   UNL     1      41.031  -9.459  -2.054  1.00  0.00    -0.327 N 
HETATM    9  C   UNL     1      42.071  -8.741  -1.492  1.00  0.00     0.226 C 
HETATM   10  O   UNL     1      42.414  -8.824  -0.314  1.00  0.00    -0.273 OA
HETATM   11  H   UNL     1      40.660  -9.135  -2.934  1.00  0.00     0.169 HD
BRANCH   9  12
HETATM   12  C   UNL     1      42.879  -7.880  -2.484  1.00  0.00     0.074 C 
HETATM   13  C   UNL     1      43.527  -6.702  -1.745  1.00  0.00     0.020 C 
BRANCH  12  14
HETATM   14  C   UNL     1      42.152  -7.401  -3.752  1.00  0.00     0.009 C 
HETATM   15  C   UNL     1      43.054  -6.816  -4.827  1.00  0.00     0.006 C 
ENDBRANCH  12  14
ENDBRANCH   9  12
ENDBRANCH   4   8
ENDBRANCH   1   2
BRANCH   1  16
HETATM   16  N   UNL     1      41.314 -14.376   0.737  1.00  0.00    -0.351 N 
HETATM   17  C   UNL     1      40.836 -15.297   1.647  1.00  0.00     0.273 C 
HETATM   18  O   UNL     1      39.728 -15.820   1.547  1.00  0.00    -0.266 OA
HETATM   19  H   UNL     1      42.298 -14.142   0.830  1.00  0.00     0.163 HD
BRANCH  17  20
HETATM   20  C   UNL     1      41.786 -15.623   2.722  1.00  0.00     0.157 A 
HETATM   21  N   UNL     1      42.085 -14.740   3.700  1.00  0.00    -0.168 NA
HETATM   22  N   UNL     1      42.985 -15.393   4.455  1.00  0.00    -0.277 N 
HETATM   23  H   UNL     1      43.364 -14.920   5.268  1.00  0.00     0.189 HD
HETATM   24  C   UNL     1      43.294 -16.650   4.014  1.00  0.00     0.063 A 
HETATM   25  C   UNL     1      42.520 -16.837   2.875  1.00  0.00     0.029 A 
HETATM   26  C   UNL     1      44.172 -17.620   4.505  1.00  0.00     0.032 A 
HETATM   27  C   UNL     1      42.621 -18.057   2.179  1.00  0.00     0.023 A 
HETATM   28  C   UNL     1      43.497 -19.052   2.643  1.00  0.00    -0.061 A 
HETATM   29  C   UNL     1      44.258 -18.825   3.796  1.00  0.00     0.009 A 
HETATM   30  C   UNL     1      43.603 -20.347   1.890  1.00  0.00     0.048 C 
ENDBRANCH  17  20
ENDBRANCH   1  16
TORSDOF 6
ENDMDL
MODEL 10
REMARK VINA RESULT:      -8.0      2.114      2.270
REMARK  6 active torsions:
REMARK  status: ('A' for Active; 'I' for Inactive)
REMARK    1  A    between atoms: C_2  and  C_3 
REMARK    2  A    between atoms: C_3  and  C_4 
REMARK       I    between atoms: C_4  and  N_5 
REMARK    3  A    between atoms: N_5  and  C_6 
REMARK    4  A    between atoms: C_8  and  C_9 
REMARK    5  A    between atoms: C_9  and  N_10 
REMARK       I    between atoms: N_10  and  C_11 
REMARK    6  A    between atoms: C_11  and  C_12 
ROOT
HETATM    1  C   UNL     1      42.799 -11.782   6.047  1.00  0.00     0.161 C 
ENDROOT
BRANCH   1   2
HETATM    2  C   UNL     1      43.840 -11.008   6.808  1.00  0.00    -0.038 A 
HETATM    3  C   UNL     1      43.466  -9.937   7.636  1.00  0.00     0.038 A 
HETATM    4  C   UNL     1      44.409  -9.281   8.433  1.00  0.00     0.035 A 
HETATM    5  C   UNL     1      45.745  -9.694   8.382  1.00  0.00     0.029 A 
HETATM    6  C   UNL     1      46.137 -10.726   7.528  1.00  0.00     0.003 A 
HETATM    7  C   UNL     1      45.189 -11.382   6.745  1.00  0.00     0.009 A 
BRANCH   4   8
HETATM    8  N   UNL     1      44.075  -8.260   9.348  1.00  0.00    -0.327 N 
HETATM    9  C   UNL     1      43.389  -7.092   9.067  1.00  0.00     0.226 C 
HETATM   10  O   UNL     1      43.105  -6.709   7.933  1.00  0.00    -0.273 OA
HETATM   11  H   UNL     1      44.487  -8.352  10.263  1.00  0.00     0.169 HD
BRANCH   9  12
HETATM   12  C   UNL     1      42.885  -6.319  10.303  1.00  0.00     0.074 C 
HETATM   13  C   UNL     1      42.056  -7.249  11.198  1.00  0.00     0.020 C 
BRANCH  12  14
HETATM   14  C   UNL     1      42.142  -4.996  10.048  1.00  0.00     0.009 C 
HETATM   15  C   UNL     1      40.629  -5.119   9.944  1.00  0.00     0.006 C 
ENDBRANCH  12  14
ENDBRANCH   9  12
ENDBRANCH   4   8
ENDBRANCH   1   2
BRANCH   1  16
HETATM   16  N   UNL     1      42.668 -13.136   6.507  1.00  0.00    -0.351 N 
HETATM   17  C   UNL     1      42.866 -14.183   5.629  1.00  0.00     0.273 C 
HETATM   18  O   UNL     1      42.926 -14.029   4.411  1.00  0.00    -0.266 OA
HETATM   19  H   UNL     1      42.803 -13.361   7.489  1.00  0.00     0.163 HD
BRANCH  17  20
HETATM   20  C   UNL     1      43.032 -15.489   6.284  1.00  0.00     0.157 A 
HETATM   21  N   UNL     1      42.965 -15.627   7.627  1.00  0.00    -0.168 NA
HETATM   22  N   UNL     1      43.185 -16.938   7.824  1.00  0.00    -0.277 N 
HETATM   23  H   UNL     1      43.182 -17.287   8.776  1.00  0.00     0.189 HD
HETATM   24  C   UNL     1      43.402 -17.658   6.682  1.00  0.00     0.063 A 
HETATM   25  C   UNL     1      43.305 -16.736   5.647  1.00  0.00     0.029 A 
HETATM   26  C   UNL     1      43.671 -19.013   6.472  1.00  0.00     0.032 A 
HETATM   27  C   UNL     1      43.487 -17.181   4.323  1.00  0.00     0.023 A 
HETATM   28  C   UNL     1      43.764 -18.537   4.077  1.00  0.00    -0.061 A 
HETATM   29  C   UNL     1      43.852 -19.433   5.149  1.00  0.00     0.009 A 
HETATM   30  C   UNL     1      43.964 -19.000   2.662  1.00  0.00     0.048 C 
ENDBRANCH  17  20
ENDBRANCH   1  16
TORSDOF 6
ENDMDL
