MODEL 1
REMARK VINA RESULT:     -10.5      0.000      0.000
REMARK  5 active torsions:
REMARK  status: ('A' for Active; 'I' for Inactive)
REMARK    1  A    between atoms: C_6  and  N_7 
REMARK       I    between atoms: N_7  and  C_8 
REMARK    2  A    between atoms: C_8  and  C_9 
REMARK    3  A    between atoms: C_10  and  N_11 
REMARK    4  A    between atoms: N_12  and  N_13 
REMARK    5  A    between atoms: C_14  and  C_15 
ROOT
HETATM    1  C   UNL     1      41.011 -13.754   3.101  1.00  0.00     0.099 C 
HETATM    2  C   UNL     1      42.125 -12.871   2.958  1.00  0.00     0.101 C 
HETATM    3  N   UNL     1      41.479 -11.688   3.053  1.00  0.00    -0.107 NA
HETATM    4  C   UNL     1      40.567 -12.084   2.098  1.00  0.00     0.162 C 
HETATM    5  C   UNL     1      39.716 -13.007   2.764  1.00  0.00     0.118 C 
HETATM    6  N   UNL     1      38.545 -12.297   2.444  1.00  0.00    -0.242 NA
HETATM    7  C   UNL     1      38.468 -11.746   1.103  1.00  0.00     0.086 C 
HETATM    8  C   UNL     1      39.407 -12.264   0.261  1.00  0.00     0.087 C 
HETATM    9  N   UNL     1      40.650 -12.228   0.738  1.00  0.00    -0.230 NA
HETATM   10  C   UNL     1      37.878 -10.608   0.446  1.00  0.00     0.034 C 
HETATM   11  C   UNL     1      37.978 -10.406  -0.960  1.00  0.00     0.002 C 
HETATM   12  C   UNL     1      38.494 -11.427  -1.744  1.00  0.00     0.002 C 
HETATM   13  C   UNL     1      39.177 -12.428  -1.092  1.00  0.00     0.034 C 
ENDROOT
BRANCH   1  14
HETATM   14  C   UNL     1      41.442 -15.175   3.248  1.00  0.00     0.261 C 
HETATM   15  N   UNL     1      42.614 -15.735   2.728  1.00  0.00    -0.323 N 
HETATM   16  H   UNL     1      42.972 -15.387   1.851  1.00  0.00     0.169 HD
HETATM   17  O   UNL     1      40.684 -15.906   3.903  1.00  0.00    -0.267 OA
BRANCH  15  18
HETATM   18  C   UNL     1      43.111 -16.997   3.248  1.00  0.00     0.035 C 
HETATM   19  C   UNL     1      42.902 -18.191   2.539  1.00  0.00     0.037 C 
HETATM   20  C   UNL     1      43.496 -19.412   2.882  1.00  0.00    -0.054 C 
HETATM   21  C   UNL     1      43.981 -19.567   4.176  1.00  0.00    -0.056 C 
HETATM   22  C   UNL     1      43.801 -20.368   1.757  1.00  0.00     0.049 C 
HETATM   23  C   UNL     1      44.130 -20.939   4.779  1.00  0.00     0.049 C 
HETATM   24  C   UNL     1      44.170 -18.400   4.943  1.00  0.00     0.009 C 
HETATM   25  C   UNL     1      43.809 -17.115   4.452  1.00  0.00     0.030 C 
ENDBRANCH  15  18
ENDBRANCH   1  14
BRANCH   2  26
HETATM   26  N   UNL     1      43.462 -12.936   2.718  1.00  0.00    -0.291 NA
HETATM   27  H   UNL     1      44.015 -12.325   3.327  1.00  0.00     0.125 HD
HETATM   28  H   UNL     1      43.840 -13.886   2.787  1.00  0.00     0.125 HD
ENDBRANCH   2  26
BRANCH   3  29
HETATM   29  N   UNL     1      41.250 -11.046   4.288  1.00  0.00    -0.198 NA
HETATM   30  C   UNL     1      42.350 -10.862   4.962  1.00  0.00     0.147 C 
BRANCH  30  31
HETATM   31  C   UNL     1      42.377 -10.423   6.350  1.00  0.00     0.010 A 
HETATM   32  C   UNL     1      43.517 -10.445   7.238  1.00  0.00     0.004 A 
HETATM   33  C   UNL     1      43.106  -9.919   8.465  1.00  0.00     0.043 A 
HETATM   34  C   UNL     1      44.867 -10.856   7.120  1.00  0.00     0.014 A 
HETATM   35  C   UNL     1      43.974  -9.746   9.554  1.00  0.00     0.030 A 
HETATM   36  N   UNL     1      41.762  -9.647   8.353  1.00  0.00    -0.364 N 
HETATM   37  C   UNL     1      45.306 -10.140   9.399  1.00  0.00     0.002 A 
HETATM   38  C   UNL     1      45.746 -10.699   8.203  1.00  0.00     0.001 A 
HETATM   39  H   UNL     1      41.193  -9.278   9.102  1.00  0.00     0.165 HD
HETATM   40  C   UNL     1      41.311  -9.960   7.097  1.00  0.00     0.102 A 
ENDBRANCH  30  31
ENDBRANCH   3  29
TORSDOF 5
ENDMDL
MODEL 2
REMARK VINA RESULT:     -10.4      2.672      7.016
REMARK  5 active torsions:
REMARK  status: ('A' for Active; 'I' for Inactive)
REMARK    1  A    between atoms: C_6  and  N_7 
REMARK       I    between atoms: N_7  and  C_8 
REMARK    2  A    between atoms: C_8  and  C_9 
REMARK    3  A    between atoms: C_10  and  N_11 
REMARK    4  A    between atoms: N_12  and  N_13 
REMARK    5  A    between atoms: C_14  and  C_15 
ROOT
HETATM    1  C   UNL     1      40.460 -12.521   4.174  1.00  0.00     0.099 C 
HETATM    2  C   UNL     1      41.861 -12.330   4.378  1.00  0.00     0.101 C 
HETATM    3  N   UNL     1      41.903 -12.448   5.724  1.00  0.00    -0.107 NA
HETATM    4  C   UNL     1      40.881 -11.531   5.857  1.00  0.00     0.162 C 
HETATM    5  C   UNL     1      39.707 -12.234   5.476  1.00  0.00     0.118 C 
HETATM    6  N   UNL     1      39.040 -11.959   6.684  1.00  0.00    -0.242 NA
HETATM    7  C   UNL     1      39.202 -10.620   7.222  1.00  0.00     0.086 C 
HETATM    8  C   UNL     1      39.723  -9.743   6.317  1.00  0.00     0.087 C 
HETATM    9  N   UNL     1      40.831 -10.169   5.714  1.00  0.00    -0.230 NA
HETATM   10  C   UNL     1      39.243  -9.984   8.514  1.00  0.00     0.034 C 
HETATM   11  C   UNL     1      39.379  -8.574   8.662  1.00  0.00     0.002 C 
HETATM   12  C   UNL     1      39.282  -7.773   7.535  1.00  0.00     0.002 C 
HETATM   13  C   UNL     1      39.392  -8.401   6.314  1.00  0.00     0.034 C 
ENDROOT
BRANCH   1  14
HETATM   14  C   UNL     1      40.123 -12.656   2.726  1.00  0.00     0.261 C 
HETATM   15  N   UNL     1      41.011 -13.017   1.706  1.00  0.00    -0.323 N 
HETATM   16  H   UNL     1      41.976 -12.733   1.780  1.00  0.00     0.169 HD
HETATM   17  O   UNL     1      38.941 -12.434   2.423  1.00  0.00    -0.267 OA
BRANCH  15  18
HETATM   18  C   UNL     1      40.501 -13.483   0.429  1.00  0.00     0.035 C 
HETATM   19  C   UNL     1      40.515 -12.640  -0.694  1.00  0.00     0.037 C 
HETATM   20  C   UNL     1      40.207 -13.069  -1.991  1.00  0.00    -0.054 C 
HETATM   21  C   UNL     1      39.479 -14.244  -2.139  1.00  0.00    -0.056 C 
HETATM   22  C   UNL     1      40.907 -12.373  -3.130  1.00  0.00     0.049 C 
HETATM   23  C   UNL     1      38.668 -14.491  -3.385  1.00  0.00     0.049 C 
HETATM   24  C   UNL     1      39.401 -15.105  -1.027  1.00  0.00     0.009 C 
HETATM   25  C   UNL     1      39.977 -14.762   0.228  1.00  0.00     0.030 C 
ENDBRANCH  15  18
ENDBRANCH   1  14
BRANCH   2  26
HETATM   26  N   UNL     1      42.974 -12.038   3.654  1.00  0.00    -0.291 NA
HETATM   27  H   UNL     1      43.825 -12.477   4.018  1.00  0.00     0.125 HD
HETATM   28  H   UNL     1      42.886 -12.279   2.662  1.00  0.00     0.125 HD
ENDBRANCH   2  26
BRANCH   3  29
HETATM   29  N   UNL     1      42.073 -13.688   6.373  1.00  0.00    -0.198 NA
HETATM   30  C   UNL     1      42.969 -14.434   5.789  1.00  0.00     0.147 C 
BRANCH  30  31
HETATM   31  C   UNL     1      43.184 -15.836   6.117  1.00  0.00     0.010 A 
HETATM   32  C   UNL     1      43.431 -16.911   5.184  1.00  0.00     0.004 A 
HETATM   33  C   UNL     1      43.599 -18.083   5.925  1.00  0.00     0.043 A 
HETATM   34  C   UNL     1      43.534 -17.006   3.775  1.00  0.00     0.014 A 
HETATM   35  C   UNL     1      43.903 -19.322   5.341  1.00  0.00     0.030 A 
HETATM   36  N   UNL     1      43.403 -17.752   7.246  1.00  0.00    -0.364 N 
HETATM   37  C   UNL     1      44.020 -19.379   3.949  1.00  0.00     0.002 A 
HETATM   38  C   UNL     1      43.827 -18.240   3.173  1.00  0.00     0.001 A 
HETATM   39  H   UNL     1      43.440 -18.413   8.009  1.00  0.00     0.165 HD
HETATM   40  C   UNL     1      43.138 -16.413   7.372  1.00  0.00     0.102 A 
ENDBRANCH  30  31
ENDBRANCH   3  29
TORSDOF 5
ENDMDL
MODEL 3
REMARK VINA RESULT:     -10.1      1.802      8.744
REMARK  5 active torsions:
REMARK  status: ('A' for Active; 'I' for Inactive)
REMARK    1  A    between atoms: C_6  and  N_7 
REMARK       I    between atoms: N_7  and  C_8 
REMARK    2  A    between atoms: C_8  and  C_9 
REMARK    3  A    between atoms: C_10  and  N_11 
REMARK    4  A    between atoms: N_12  and  N_13 
REMARK    5  A    between atoms: C_14  and  C_15 
ROOT
HETATM    1  C   UNL     1      42.401 -12.851   4.776  1.00  0.00     0.099 C 
HETATM    2  C   UNL     1      43.115 -12.314   3.661  1.00  0.00     0.101 C 
HETATM    3  N   UNL     1      42.425 -12.900   2.658  1.00  0.00    -0.107 NA
HETATM    4  C   UNL     1      42.564 -14.135   3.255  1.00  0.00     0.162 C 
HETATM    5  C   UNL     1      41.656 -14.119   4.347  1.00  0.00     0.118 C 
HETATM    6  N   UNL     1      40.987 -15.282   3.927  1.00  0.00    -0.242 NA
HETATM    7  C   UNL     1      41.818 -16.355   3.411  1.00  0.00     0.086 C 
HETATM    8  C   UNL     1      43.141 -16.190   3.700  1.00  0.00     0.087 C 
HETATM    9  N   UNL     1      43.627 -14.992   3.378  1.00  0.00    -0.230 NA
HETATM   10  C   UNL     1      41.717 -17.415   2.440  1.00  0.00     0.034 C 
HETATM   11  C   UNL     1      42.769 -18.350   2.223  1.00  0.00     0.002 C 
HETATM   12  C   UNL     1      43.844 -18.358   3.099  1.00  0.00     0.002 C 
HETATM   13  C   UNL     1      43.990 -17.259   3.915  1.00  0.00     0.034 C 
ENDROOT
BRANCH   1  14
HETATM   14  C   UNL     1      42.809 -12.207   6.060  1.00  0.00     0.261 C 
HETATM   15  N   UNL     1      43.052 -10.842   6.253  1.00  0.00    -0.323 N 
HETATM   16  H   UNL     1      43.445 -10.307   5.493  1.00  0.00     0.169 HD
HETATM   17  O   UNL     1      42.927 -12.967   7.032  1.00  0.00    -0.267 OA
BRANCH  15  18
HETATM   18  C   UNL     1      43.064 -10.288   7.595  1.00  0.00     0.035 C 
HETATM   19  C   UNL     1      44.167 -10.490   8.440  1.00  0.00     0.037 C 
HETATM   20  C   UNL     1      44.329  -9.847   9.673  1.00  0.00    -0.054 C 
HETATM   21  C   UNL     1      43.204  -9.304  10.284  1.00  0.00    -0.056 C 
HETATM   22  C   UNL     1      45.740  -9.560  10.119  1.00  0.00     0.049 C 
HETATM   23  C   UNL     1      43.171  -9.090  11.775  1.00  0.00     0.049 C 
HETATM   24  C   UNL     1      42.057  -9.119   9.487  1.00  0.00     0.009 C 
HETATM   25  C   UNL     1      42.014  -9.537   8.128  1.00  0.00     0.030 C 
ENDBRANCH  15  18
ENDBRANCH   1  14
BRANCH   2  26
HETATM   26  N   UNL     1      44.197 -11.528   3.417  1.00  0.00    -0.291 NA
HETATM   27  H   UNL     1      43.957 -10.613   3.024  1.00  0.00     0.125 HD
HETATM   28  H   UNL     1      44.784 -11.379   4.244  1.00  0.00     0.125 HD
ENDBRANCH   2  26
BRANCH   3  29
HETATM   29  N   UNL     1      41.277 -12.316   2.083  1.00  0.00    -0.198 NA
HETATM   30  C   UNL     1      40.731 -13.081   1.180  1.00  0.00     0.147 C 
BRANCH  30  31
HETATM   31  C   UNL     1      39.673 -12.636   0.284  1.00  0.00     0.010 A 
HETATM   32  C   UNL     1      39.204 -13.320  -0.901  1.00  0.00     0.004 A 
HETATM   33  C   UNL     1      38.170 -12.555  -1.446  1.00  0.00     0.043 A 
HETATM   34  C   UNL     1      39.553 -14.521  -1.564  1.00  0.00     0.014 A 
HETATM   35  C   UNL     1      37.447 -12.945  -2.584  1.00  0.00     0.030 A 
HETATM   36  N   UNL     1      38.054 -11.427  -0.669  1.00  0.00    -0.364 N 
HETATM   37  C   UNL     1      37.800 -14.148  -3.203  1.00  0.00     0.002 A 
HETATM   38  C   UNL     1      38.846 -14.921  -2.709  1.00  0.00     0.001 A 
HETATM   39  H   UNL     1      37.397 -10.679  -0.845  1.00  0.00     0.165 HD
HETATM   40  C   UNL     1      38.959 -11.456   0.360  1.00  0.00     0.102 A 
ENDBRANCH  30  31
ENDBRANCH   3  29
TORSDOF 5
ENDMDL
MODEL 4
REMARK VINA RESULT:     -10.0      2.515      6.372
REMARK  5 active torsions:
REMARK  status: ('A' for Active; 'I' for Inactive)
REMARK    1  A    between atoms: C_6  and  N_7 
REMARK       I    between atoms: N_7  and  C_8 
REMARK    2  A    between atoms: C_8  and  C_9 
REMARK    3  A    between atoms: C_10  and  N_11 
REMARK    4  A    between atoms: N_12  and  N_13 
REMARK    5  A    between atoms: C_14  and  C_15 
ROOT
HETATM    1  C   UNL     1      41.638 -13.619   2.617  1.00  0.00     0.099 C 
HETATM    2  C   UNL     1      40.328 -13.436   2.077  1.00  0.00     0.101 C 
HETATM    3  N   UNL     1      40.414 -12.132   1.735  1.00  0.00    -0.107 NA
HETATM    4  C   UNL     1      40.879 -11.810   2.993  1.00  0.00     0.162 C 
HETATM    5  C   UNL     1      42.226 -12.261   3.012  1.00  0.00     0.118 C 
HETATM    6  N   UNL     1      42.739 -11.001   3.369  1.00  0.00    -0.242 NA
HETATM    7  C   UNL     1      41.984 -10.253   4.358  1.00  0.00     0.086 C 
HETATM    8  C   UNL     1      41.064 -11.016   5.014  1.00  0.00     0.087 C 
HETATM    9  N   UNL     1      40.265 -11.721   4.215  1.00  0.00    -0.230 NA
HETATM   10  C   UNL     1      41.708  -8.875   4.676  1.00  0.00     0.034 C 
HETATM   11  C   UNL     1      40.922  -8.498   5.802  1.00  0.00     0.002 C 
HETATM   12  C   UNL     1      40.569  -9.471   6.724  1.00  0.00     0.002 C 
HETATM   13  C   UNL     1      40.713 -10.782   6.331  1.00  0.00     0.034 C 
ENDROOT
BRANCH   1  14
HETATM   14  C   UNL     1      41.927 -15.057   2.900  1.00  0.00     0.261 C 
HETATM   15  N   UNL     1      43.058 -15.765   2.478  1.00  0.00    -0.323 N 
HETATM   16  H   UNL     1      43.476 -15.528   1.590  1.00  0.00     0.169 HD
HETATM   17  O   UNL     1      41.082 -15.655   3.582  1.00  0.00    -0.267 OA
BRANCH  15  18
HETATM   18  C   UNL     1      43.415 -17.017   3.121  1.00  0.00     0.035 C 
HETATM   19  C   UNL     1      43.153 -18.243   2.487  1.00  0.00     0.037 C 
HETATM   20  C   UNL     1      43.622 -19.475   2.958  1.00  0.00    -0.054 C 
HETATM   21  C   UNL     1      44.010 -19.566   4.290  1.00  0.00    -0.056 C 
HETATM   22  C   UNL     1      43.917 -20.537   1.929  1.00  0.00     0.049 C 
HETATM   23  C   UNL     1      44.006 -20.895   5.000  1.00  0.00     0.049 C 
HETATM   24  C   UNL     1      44.245 -18.361   4.981  1.00  0.00     0.009 C 
HETATM   25  C   UNL     1      44.024 -17.094   4.375  1.00  0.00     0.030 C 
ENDBRANCH  15  18
ENDBRANCH   1  14
BRANCH   2  26
HETATM   26  N   UNL     1      39.176 -14.141   1.916  1.00  0.00    -0.291 NA
HETATM   27  H   UNL     1      38.417 -13.827   2.529  1.00  0.00     0.125 HD
HETATM   28  H   UNL     1      38.832 -14.138   0.950  1.00  0.00     0.125 HD
ENDBRANCH   2  26
BRANCH   3  29
HETATM   29  N   UNL     1      40.889 -11.707   0.477  1.00  0.00    -0.198 NA
HETATM   30  C   UNL     1      40.370 -10.568   0.111  1.00  0.00     0.147 C 
BRANCH  30  31
HETATM   31  C   UNL     1      40.517 -10.012  -1.227  1.00  0.00     0.010 A 
HETATM   32  C   UNL     1      41.447  -8.984  -1.634  1.00  0.00     0.004 A 
HETATM   33  C   UNL     1      41.263  -8.767  -3.002  1.00  0.00     0.043 A 
HETATM   34  C   UNL     1      42.436  -8.214  -0.975  1.00  0.00     0.014 A 
HETATM   35  C   UNL     1      42.036  -7.861  -3.745  1.00  0.00     0.030 A 
HETATM   36  N   UNL     1      40.227  -9.579  -3.399  1.00  0.00    -0.364 N 
HETATM   37  C   UNL     1      43.021  -7.133  -3.070  1.00  0.00     0.002 A 
HETATM   38  C   UNL     1      43.212  -7.297  -1.701  1.00  0.00     0.001 A 
HETATM   39  H   UNL     1      39.860  -9.612  -4.341  1.00  0.00     0.165 HD
HETATM   40  C   UNL     1      39.762 -10.317  -2.342  1.00  0.00     0.102 A 
ENDBRANCH  30  31
ENDBRANCH   3  29
TORSDOF 5
ENDMDL
MODEL 5
REMARK VINA RESULT:     -10.0      2.175      3.407
REMARK  5 active torsions:
REMARK  status: ('A' for Active; 'I' for Inactive)
REMARK    1  A    between atoms: C_6  and  N_7 
REMARK       I    between atoms: N_7  and  C_8 
REMARK    2  A    between atoms: C_8  and  C_9 
REMARK    3  A    between atoms: C_10  and  N_11 
REMARK    4  A    between atoms: N_12  and  N_13 
REMARK    5  A    between atoms: C_14  and  C_15 
ROOT
HETATM    1  C   UNL     1      42.285 -12.870   4.887  1.00  0.00     0.099 C 
HETATM    2  C   UNL     1      43.267 -11.834   4.855  1.00  0.00     0.101 C 
HETATM    3  N   UNL     1      42.649 -10.923   5.638  1.00  0.00    -0.107 NA
HETATM    4  C   UNL     1      41.493 -11.036   4.894  1.00  0.00     0.162 C 
HETATM    5  C   UNL     1      40.928 -12.281   5.284  1.00  0.00     0.118 C 
HETATM    6  N   UNL     1      39.694 -11.711   5.646  1.00  0.00    -0.242 NA
HETATM    7  C   UNL     1      39.176 -10.677   4.767  1.00  0.00     0.086 C 
HETATM    8  C   UNL     1      39.815 -10.634   3.562  1.00  0.00     0.087 C 
HETATM    9  N   UNL     1      41.143 -10.590   3.647  1.00  0.00    -0.230 NA
HETATM   10  C   UNL     1      38.373  -9.486   4.873  1.00  0.00     0.034 C 
HETATM   11  C   UNL     1      38.014  -8.708   3.735  1.00  0.00     0.002 C 
HETATM   12  C   UNL     1      38.285  -9.211   2.472  1.00  0.00     0.002 C 
HETATM   13  C   UNL     1      39.171 -10.262   2.397  1.00  0.00     0.034 C 
ENDROOT
BRANCH   1  14
HETATM   14  C   UNL     1      42.785 -14.132   4.264  1.00  0.00     0.261 C 
HETATM   15  N   UNL     1      42.961 -15.356   4.917  1.00  0.00    -0.323 N 
HETATM   16  H   UNL     1      43.237 -15.354   5.888  1.00  0.00     0.169 HD
HETATM   17  O   UNL     1      43.052 -14.068   3.055  1.00  0.00    -0.267 OA
BRANCH  15  18
HETATM   18  C   UNL     1      43.080 -16.582   4.147  1.00  0.00     0.035 C 
HETATM   19  C   UNL     1      43.934 -17.611   4.574  1.00  0.00     0.037 C 
HETATM   20  C   UNL     1      43.972 -18.882   3.987  1.00  0.00    -0.054 C 
HETATM   21  C   UNL     1      43.460 -19.029   2.703  1.00  0.00    -0.056 C 
HETATM   22  C   UNL     1      44.321 -20.043   4.884  1.00  0.00     0.049 C 
HETATM   23  C   UNL     1      43.922 -20.158   1.819  1.00  0.00     0.049 C 
HETATM   24  C   UNL     1      42.629 -18.002   2.214  1.00  0.00     0.009 C 
HETATM   25  C   UNL     1      42.378 -16.820   2.964  1.00  0.00     0.030 C 
ENDBRANCH  15  18
ENDBRANCH   1  14
BRANCH   2  26
HETATM   26  N   UNL     1      44.459 -11.568   4.258  1.00  0.00    -0.291 NA
HETATM   27  H   UNL     1      44.384 -11.412   3.247  1.00  0.00     0.125 HD
HETATM   28  H   UNL     1      44.950 -10.768   4.671  1.00  0.00     0.125 HD
ENDBRANCH   2  26
BRANCH   3  29
HETATM   29  N   UNL     1      42.804 -10.896   7.039  1.00  0.00    -0.198 NA
HETATM   30  C   UNL     1      43.356  -9.791   7.455  1.00  0.00     0.147 C 
BRANCH  30  31
HETATM   31  C   UNL     1      43.828  -9.592   8.818  1.00  0.00     0.010 A 
HETATM   32  C   UNL     1      43.157  -8.853   9.863  1.00  0.00     0.004 A 
HETATM   33  C   UNL     1      43.948  -8.932  11.011  1.00  0.00     0.043 A 
HETATM   34  C   UNL     1      41.946  -8.125   9.950  1.00  0.00     0.014 A 
HETATM   35  C   UNL     1      43.576  -8.364  12.239  1.00  0.00     0.030 A 
HETATM   36  N   UNL     1      45.081  -9.634  10.668  1.00  0.00    -0.364 N 
HETATM   37  C   UNL     1      42.364  -7.670  12.299  1.00  0.00     0.002 A 
HETATM   38  C   UNL     1      41.563  -7.541  11.168  1.00  0.00     0.001 A 
HETATM   39  H   UNL     1      45.845  -9.824  11.301  1.00  0.00     0.165 HD
HETATM   40  C   UNL     1      45.027 -10.020   9.354  1.00  0.00     0.102 A 
ENDBRANCH  30  31
ENDBRANCH   3  29
TORSDOF 5
ENDMDL
MODEL 6
REMARK VINA RESULT:      -9.9      2.495      8.284
REMARK  5 active torsions:
REMARK  status: ('A' for Active; 'I' for Inactive)
REMARK    1  A    between atoms: C_6  and  N_7 
REMARK       I    between atoms: N_7  and  C_8 
REMARK    2  A    between atoms: C_8  and  C_9 
REMARK    3  A    between atoms: C_10  and  N_11 
REMARK    4  A    between atoms: N_12  and  N_13 
REMARK    5  A    between atoms: C_14  and  C_15 
ROOT
HETATM    1  C   UNL     1      41.623 -11.071   5.850  1.00  0.00     0.099 C 
HETATM    2  C   UNL     1      40.665 -12.126   5.937  1.00  0.00     0.101 C 
HETATM    3  N   UNL     1      40.994 -12.812   4.821  1.00  0.00    -0.107 NA
HETATM    4  C   UNL     1      40.937 -11.659   4.068  1.00  0.00     0.162 C 
HETATM    5  C   UNL     1      42.117 -10.943   4.406  1.00  0.00     0.118 C 
HETATM    6  N   UNL     1      42.549 -10.845   3.070  1.00  0.00    -0.242 NA
HETATM    7  C   UNL     1      41.527 -10.559   2.079  1.00  0.00     0.086 C 
HETATM    8  C   UNL     1      40.358 -10.125   2.631  1.00  0.00     0.087 C 
HETATM    9  N   UNL     1      39.893 -10.899   3.610  1.00  0.00    -0.230 NA
HETATM   10  C   UNL     1      41.267 -10.857   0.694  1.00  0.00     0.034 C 
HETATM   11  C   UNL     1      40.130 -10.345   0.007  1.00  0.00     0.002 C 
HETATM   12  C   UNL     1      39.351  -9.383   0.633  1.00  0.00     0.002 C 
HETATM   13  C   UNL     1      39.527  -9.226   1.989  1.00  0.00     0.034 C 
ENDROOT
BRANCH   1  14
HETATM   14  C   UNL     1      41.647 -10.237   7.088  1.00  0.00     0.261 C 
HETATM   15  N   UNL     1      42.725 -10.112   7.972  1.00  0.00    -0.323 N 
HETATM   16  H   UNL     1      43.331 -10.906   8.115  1.00  0.00     0.169 HD
HETATM   17  O   UNL     1      40.613  -9.598   7.331  1.00  0.00    -0.267 OA
BRANCH  15  18
HETATM   18  C   UNL     1      42.774  -9.002   8.908  1.00  0.00     0.035 C 
HETATM   19  C   UNL     1      42.474  -9.202  10.265  1.00  0.00     0.037 C 
HETATM   20  C   UNL     1      42.667  -8.229  11.254  1.00  0.00    -0.054 C 
HETATM   21  C   UNL     1      42.773  -6.900  10.858  1.00  0.00    -0.056 C 
HETATM   22  C   UNL     1      43.008  -8.715  12.640  1.00  0.00     0.049 C 
HETATM   23  C   UNL     1      42.448  -5.786  11.819  1.00  0.00     0.049 C 
HETATM   24  C   UNL     1      43.033  -6.647   9.496  1.00  0.00     0.009 C 
HETATM   25  C   UNL     1      43.111  -7.698   8.541  1.00  0.00     0.030 C 
ENDBRANCH  15  18
ENDBRANCH   1  14
BRANCH   2  26
HETATM   26  N   UNL     1      39.620 -12.502   6.722  1.00  0.00    -0.291 NA
HETATM   27  H   UNL     1      38.963 -11.740   6.919  1.00  0.00     0.125 HD
HETATM   28  H   UNL     1      39.090 -13.292   6.340  1.00  0.00     0.125 HD
ENDBRANCH   2  26
BRANCH   3  29
HETATM   29  N   UNL     1      41.972 -13.829   4.816  1.00  0.00    -0.198 NA
HETATM   30  C   UNL     1      41.478 -14.993   5.134  1.00  0.00     0.147 C 
BRANCH  30  31
HETATM   31  C   UNL     1      42.298 -16.163   5.415  1.00  0.00     0.010 A 
HETATM   32  C   UNL     1      42.845 -17.085   4.446  1.00  0.00     0.004 A 
HETATM   33  C   UNL     1      43.579 -18.045   5.145  1.00  0.00     0.043 A 
HETATM   34  C   UNL     1      42.794 -17.197   3.035  1.00  0.00     0.014 A 
HETATM   35  C   UNL     1      44.291 -19.076   4.512  1.00  0.00     0.030 A 
HETATM   36  N   UNL     1      43.437 -17.761   6.483  1.00  0.00    -0.364 N 
HETATM   37  C   UNL     1      44.240 -19.146   3.117  1.00  0.00     0.002 A 
HETATM   38  C   UNL     1      43.492 -18.227   2.386  1.00  0.00     0.001 A 
HETATM   39  H   UNL     1      43.844 -18.310   7.228  1.00  0.00     0.165 HD
HETATM   40  C   UNL     1      42.658 -16.646   6.658  1.00  0.00     0.102 A 
ENDBRANCH  30  31
ENDBRANCH   3  29
TORSDOF 5
ENDMDL
MODEL 7
REMARK VINA RESULT:      -9.9      2.875      9.391
REMARK  5 active torsions:
REMARK  status: ('A' for Active; 'I' for Inactive)
REMARK    1  A    between atoms: C_6  and  N_7 
REMARK       I    between atoms: N_7  and  C_8 
REMARK    2  A    between atoms: C_8  and  C_9 
REMARK    3  A    between atoms: C_10  and  N_11 
REMARK    4  A    between atoms: N_12  and  N_13 
REMARK    5  A    between atoms: C_14  and  C_15 
ROOT
HETATM    1  C   UNL     1      43.093 -11.356   6.798  1.00  0.00     0.099 C 
HETATM    2  C   UNL     1      44.216 -11.325   5.916  1.00  0.00     0.101 C 
HETATM    3  N   UNL     1      43.705 -12.037   4.887  1.00  0.00    -0.107 NA
HETATM    4  C   UNL     1      43.314 -13.041   5.748  1.00  0.00     0.162 C 
HETATM    5  C   UNL     1      42.175 -12.522   6.421  1.00  0.00     0.118 C 
HETATM    6  N   UNL     1      41.353 -13.604   6.056  1.00  0.00    -0.242 NA
HETATM    7  C   UNL     1      41.958 -14.923   6.111  1.00  0.00     0.086 C 
HETATM    8  C   UNL     1      43.134 -14.941   6.801  1.00  0.00     0.087 C 
HETATM    9  N   UNL     1      44.009 -14.012   6.419  1.00  0.00    -0.230 NA
HETATM   10  C   UNL     1      41.843 -16.182   5.420  1.00  0.00     0.034 C 
HETATM   11  C   UNL     1      42.605 -17.326   5.794  1.00  0.00     0.002 C 
HETATM   12  C   UNL     1      43.337 -17.283   6.971  1.00  0.00     0.002 C 
HETATM   13  C   UNL     1      43.548 -16.042   7.527  1.00  0.00     0.034 C 
ENDROOT
BRANCH   1  14
HETATM   14  C   UNL     1      43.282 -10.451   7.971  1.00  0.00     0.261 C 
HETATM   15  N   UNL     1      42.293  -9.660   8.565  1.00  0.00    -0.323 N 
HETATM   16  H   UNL     1      41.566  -9.272   7.982  1.00  0.00     0.169 HD
HETATM   17  O   UNL     1      44.424 -10.422   8.453  1.00  0.00    -0.267 OA
BRANCH  15  18
HETATM   18  C   UNL     1      42.489  -9.131   9.903  1.00  0.00     0.035 C 
HETATM   19  C   UNL     1      42.669  -7.753  10.105  1.00  0.00     0.037 C 
HETATM   20  C   UNL     1      42.689  -7.150  11.369  1.00  0.00    -0.054 C 
HETATM   21  C   UNL     1      42.945  -7.952  12.476  1.00  0.00    -0.056 C 
HETATM   22  C   UNL     1      42.175  -5.736  11.464  1.00  0.00     0.049 C 
HETATM   23  C   UNL     1      43.502  -7.354  13.742  1.00  0.00     0.049 C 
HETATM   24  C   UNL     1      42.817  -9.345  12.313  1.00  0.00     0.009 C 
HETATM   25  C   UNL     1      42.514  -9.927  11.051  1.00  0.00     0.030 C 
ENDBRANCH  15  18
ENDBRANCH   1  14
BRANCH   2  26
HETATM   26  N   UNL     1      45.499 -10.876   5.902  1.00  0.00    -0.291 NA
HETATM   27  H   UNL     1      45.644 -10.074   5.280  1.00  0.00     0.125 HD
HETATM   28  H   UNL     1      45.851 -10.628   6.833  1.00  0.00     0.125 HD
ENDBRANCH   2  26
BRANCH   3  29
HETATM   29  N   UNL     1      42.982 -11.438   3.835  1.00  0.00    -0.198 NA
HETATM   30  C   UNL     1      42.385 -12.317   3.080  1.00  0.00     0.147 C 
BRANCH  30  31
HETATM   31  C   UNL     1      41.757 -11.990   1.808  1.00  0.00     0.010 A 
HETATM   32  C   UNL     1      41.058 -12.903   0.932  1.00  0.00     0.004 A 
HETATM   33  C   UNL     1      40.601 -12.169  -0.164  1.00  0.00     0.043 A 
HETATM   34  C   UNL     1      40.763 -14.288   0.964  1.00  0.00     0.014 A 
HETATM   35  C   UNL     1      39.835 -12.731  -1.197  1.00  0.00     0.030 A 
HETATM   36  N   UNL     1      41.051 -10.880   0.002  1.00  0.00    -0.364 N 
HETATM   37  C   UNL     1      39.541 -14.096  -1.126  1.00  0.00     0.002 A 
HETATM   38  C   UNL     1      40.008 -14.869  -0.067  1.00  0.00     0.001 A 
HETATM   39  H   UNL     1      40.887 -10.131  -0.657  1.00  0.00     0.165 HD
HETATM   40  C   UNL     1      41.758 -10.765   1.171  1.00  0.00     0.102 A 
ENDBRANCH  30  31
ENDBRANCH   3  29
TORSDOF 5
ENDMDL
MODEL 8
REMARK VINA RESULT:      -9.7      2.217      8.216
REMARK  5 active torsions:
REMARK  status: ('A' for Active; 'I' for Inactive)
REMARK    1  A    between atoms: C_6  and  N_7 
REMARK       I    between atoms: N_7  and  C_8 
REMARK    2  A    between atoms: C_8  and  C_9 
REMARK    3  A    between atoms: C_10  and  N_11 
REMARK    4  A    between atoms: N_12  and  N_13 
REMARK    5  A    between atoms: C_14  and  C_15 
ROOT
HETATM    1  C   UNL     1      41.502 -12.126   4.877  1.00  0.00     0.099 C 
HETATM    2  C   UNL     1      40.535 -12.981   5.488  1.00  0.00     0.101 C 
HETATM    3  N   UNL     1      40.810 -14.128   4.829  1.00  0.00    -0.107 NA
HETATM    4  C   UNL     1      40.738 -13.475   3.617  1.00  0.00     0.162 C 
HETATM    5  C   UNL     1      41.940 -12.721   3.535  1.00  0.00     0.118 C 
HETATM    6  N   UNL     1      42.319 -13.288   2.305  1.00  0.00    -0.242 NA
HETATM    7  C   UNL     1      41.261 -13.481   1.329  1.00  0.00     0.086 C 
HETATM    8  C   UNL     1      40.121 -12.800   1.638  1.00  0.00     0.087 C 
HETATM    9  N   UNL     1      39.685 -12.995   2.881  1.00  0.00    -0.230 NA
HETATM   10  C   UNL     1      40.942 -14.398   0.264  1.00  0.00     0.034 C 
HETATM   11  C   UNL     1      39.784 -14.243  -0.550  1.00  0.00     0.002 C 
HETATM   12  C   UNL     1      39.044 -13.075  -0.441  1.00  0.00     0.002 C 
HETATM   13  C   UNL     1      39.277 -12.293   0.668  1.00  0.00     0.034 C 
ENDROOT
BRANCH   1  14
HETATM   14  C   UNL     1      41.588 -10.802   5.562  1.00  0.00     0.261 C 
HETATM   15  N   UNL     1      41.168 -10.526   6.868  1.00  0.00    -0.323 N 
HETATM   16  H   UNL     1      40.369 -11.021   7.237  1.00  0.00     0.169 HD
HETATM   17  O   UNL     1      42.088  -9.882   4.900  1.00  0.00    -0.267 OA
BRANCH  15  18
HETATM   18  C   UNL     1      41.642  -9.333   7.548  1.00  0.00     0.035 C 
HETATM   19  C   UNL     1      42.862  -9.347   8.243  1.00  0.00     0.037 C 
HETATM   20  C   UNL     1      43.467  -8.199   8.771  1.00  0.00    -0.054 C 
HETATM   21  C   UNL     1      42.675  -7.076   8.982  1.00  0.00    -0.056 C 
HETATM   22  C   UNL     1      44.974  -8.180   8.826  1.00  0.00     0.049 C 
HETATM   23  C   UNL     1      43.076  -6.036   9.995  1.00  0.00     0.049 C 
HETATM   24  C   UNL     1      41.423  -7.033   8.337  1.00  0.00     0.009 C 
HETATM   25  C   UNL     1      40.943  -8.124   7.561  1.00  0.00     0.030 C 
ENDBRANCH  15  18
ENDBRANCH   1  14
BRANCH   2  26
HETATM   26  N   UNL     1      39.518 -12.902   6.387  1.00  0.00    -0.291 NA
HETATM   27  H   UNL     1      38.711 -13.485   6.142  1.00  0.00     0.125 HD
HETATM   28  H   UNL     1      39.804 -13.134   7.344  1.00  0.00     0.125 HD
ENDBRANCH   2  26
BRANCH   3  29
HETATM   29  N   UNL     1      41.773 -15.052   5.284  1.00  0.00    -0.198 NA
HETATM   30  C   UNL     1      41.992 -16.004   4.421  1.00  0.00     0.147 C 
BRANCH  30  31
HETATM   31  C   UNL     1      42.769 -17.198   4.723  1.00  0.00     0.010 A 
HETATM   32  C   UNL     1      43.058 -18.289   3.819  1.00  0.00     0.004 A 
HETATM   33  C   UNL     1      43.845 -19.212   4.511  1.00  0.00     0.043 A 
HETATM   34  C   UNL     1      42.732 -18.583   2.473  1.00  0.00     0.014 A 
HETATM   35  C   UNL     1      44.353 -20.380   3.921  1.00  0.00     0.030 A 
HETATM   36  N   UNL     1      43.980 -18.739   5.795  1.00  0.00    -0.364 N 
HETATM   37  C   UNL     1      44.032 -20.631   2.584  1.00  0.00     0.002 A 
HETATM   38  C   UNL     1      43.222 -19.752   1.871  1.00  0.00     0.001 A 
HETATM   39  H   UNL     1      44.484 -19.220   6.528  1.00  0.00     0.165 HD
HETATM   40  C   UNL     1      43.326 -17.543   5.938  1.00  0.00     0.102 A 
ENDBRANCH  30  31
ENDBRANCH   3  29
TORSDOF 5
ENDMDL
MODEL 9
REMARK VINA RESULT:      -9.5      1.295      1.864
REMARK  5 active torsions:
REMARK  status: ('A' for Active; 'I' for Inactive)
REMARK    1  A    between atoms: C_6  and  N_7 
REMARK       I    between atoms: N_7  and  C_8 
REMARK    2  A    between atoms: C_8  and  C_9 
REMARK    3  A    between atoms: C_10  and  N_11 
REMARK    4  A    between atoms: N_12  and  N_13 
REMARK    5  A    between atoms: C_14  and  C_15 
ROOT
HETATM    1  C   UNL     1      41.570 -13.591   3.980  1.00  0.00     0.099 C 
HETATM    2  C   UNL     1      42.667 -12.819   3.489  1.00  0.00     0.101 C 
HETATM    3  N   UNL     1      42.239 -11.586   3.839  1.00  0.00    -0.107 NA
HETATM    4  C   UNL     1      41.016 -11.818   3.246  1.00  0.00     0.162 C 
HETATM    5  C   UNL     1      40.338 -12.695   4.136  1.00  0.00     0.118 C 
HETATM    6  N   UNL     1      39.221 -11.849   4.264  1.00  0.00    -0.242 NA
HETATM    7  C   UNL     1      38.759 -11.200   3.050  1.00  0.00     0.086 C 
HETATM    8  C   UNL     1      39.288 -11.749   1.919  1.00  0.00     0.087 C 
HETATM    9  N   UNL     1      40.613 -11.874   1.937  1.00  0.00    -0.230 NA
HETATM   10  C   UNL     1      38.123  -9.964   2.673  1.00  0.00     0.034 C 
HETATM   11  C   UNL     1      37.762  -9.674   1.326  1.00  0.00     0.002 C 
HETATM   12  C   UNL     1      37.854 -10.684   0.381  1.00  0.00     0.002 C 
HETATM   13  C   UNL     1      38.593 -11.793   0.725  1.00  0.00     0.034 C 
ENDROOT
BRANCH   1  14
HETATM   14  C   UNL     1      41.853 -15.056   3.925  1.00  0.00     0.261 C 
HETATM   15  N   UNL     1      42.922 -15.661   3.255  1.00  0.00    -0.323 N 
HETATM   16  H   UNL     1      43.260 -15.242   2.401  1.00  0.00     0.169 HD
HETATM   17  O   UNL     1      41.062 -15.783   4.544  1.00  0.00    -0.267 OA
BRANCH  15  18
HETATM   18  C   UNL     1      43.310 -17.022   3.582  1.00  0.00     0.035 C 
HETATM   19  C   UNL     1      42.980 -18.082   2.723  1.00  0.00     0.037 C 
HETATM   20  C   UNL     1      43.465 -19.387   2.878  1.00  0.00    -0.054 C 
HETATM   21  C   UNL     1      43.957 -19.762   4.123  1.00  0.00    -0.056 C 
HETATM   22  C   UNL     1      43.661 -20.201   1.624  1.00  0.00     0.049 C 
HETATM   23  C   UNL     1      43.990 -21.213   4.529  1.00  0.00     0.049 C 
HETATM   24  C   UNL     1      44.265 -18.734   5.036  1.00  0.00     0.009 C 
HETATM   25  C   UNL     1      44.016 -17.367   4.737  1.00  0.00     0.030 C 
ENDBRANCH  15  18
ENDBRANCH   1  14
BRANCH   2  26
HETATM   26  N   UNL     1      43.824 -13.002   2.800  1.00  0.00    -0.291 NA
HETATM   27  H   UNL     1      43.878 -12.449   1.938  1.00  0.00     0.125 HD
HETATM   28  H   UNL     1      44.662 -12.810   3.358  1.00  0.00     0.125 HD
ENDBRANCH   2  26
BRANCH   3  29
HETATM   29  N   UNL     1      42.521 -11.012   5.096  1.00  0.00    -0.198 NA
HETATM   30  C   UNL     1      43.785 -11.095   5.405  1.00  0.00     0.147 C 
BRANCH  30  31
HETATM   31  C   UNL     1      44.311 -10.782   6.726  1.00  0.00     0.010 A 
HETATM   32  C   UNL     1      43.783  -9.808   7.655  1.00  0.00     0.004 A 
HETATM   33  C   UNL     1      44.577  -9.847   8.803  1.00  0.00     0.043 A 
HETATM   34  C   UNL     1      42.699  -8.897   7.637  1.00  0.00     0.014 A 
HETATM   35  C   UNL     1      44.323  -9.061   9.938  1.00  0.00     0.030 A 
HETATM   36  N   UNL     1      45.581 -10.756   8.564  1.00  0.00    -0.364 N 
HETATM   37  C   UNL     1      43.233  -8.187   9.897  1.00  0.00     0.002 A 
HETATM   38  C   UNL     1      42.437  -8.095   8.759  1.00  0.00     0.001 A 
HETATM   39  H   UNL     1      46.321 -10.971   9.219  1.00  0.00     0.165 HD
HETATM   40  C   UNL     1      45.441 -11.310   7.318  1.00  0.00     0.102 A 
ENDBRANCH  30  31
ENDBRANCH   3  29
TORSDOF 5
ENDMDL
MODEL 10
REMARK VINA RESULT:      -9.4      2.709      3.990
REMARK  5 active torsions:
REMARK  status: ('A' for Active; 'I' for Inactive)
REMARK    1  A    between atoms: C_6  and  N_7 
REMARK       I    between atoms: N_7  and  C_8 
REMARK    2  A    between atoms: C_8  and  C_9 
REMARK    3  A    between atoms: C_10  and  N_11 
REMARK    4  A    between atoms: N_12  and  N_13 
REMARK    5  A    between atoms: C_14  and  C_15 
ROOT
HETATM    1  C   UNL     1      40.930 -11.982   6.053  1.00  0.00     0.099 C 
HETATM    2  C   UNL     1      42.033 -11.076   6.011  1.00  0.00     0.101 C 
HETATM    3  N   UNL     1      41.443  -9.988   6.554  1.00  0.00    -0.107 NA
HETATM    4  C   UNL     1      40.385 -10.097   5.676  1.00  0.00     0.162 C 
HETATM    5  C   UNL     1      39.621 -11.194   6.158  1.00  0.00     0.118 C 
HETATM    6  N   UNL     1      38.434 -10.444   6.248  1.00  0.00    -0.242 NA
HETATM    7  C   UNL     1      38.169  -9.519   5.162  1.00  0.00     0.086 C 
HETATM    8  C   UNL     1      38.955  -9.741   4.070  1.00  0.00     0.087 C 
HETATM    9  N   UNL     1      40.256  -9.826   4.339  1.00  0.00    -0.230 NA
HETATM   10  C   UNL     1      37.518  -8.247   4.974  1.00  0.00     0.034 C 
HETATM   11  C   UNL     1      37.408  -7.632   3.694  1.00  0.00     0.002 C 
HETATM   12  C   UNL     1      37.770  -8.360   2.572  1.00  0.00     0.002 C 
HETATM   13  C   UNL     1      38.517  -9.497   2.782  1.00  0.00     0.034 C 
ENDROOT
BRANCH   1  14
HETATM   14  C   UNL     1      41.340 -13.374   5.701  1.00  0.00     0.261 C 
HETATM   15  N   UNL     1      42.439 -13.731   4.912  1.00  0.00    -0.323 N 
HETATM   16  H   UNL     1      42.714 -13.121   4.156  1.00  0.00     0.169 HD
HETATM   17  O   UNL     1      40.635 -14.280   6.168  1.00  0.00    -0.267 OA
BRANCH  15  18
HETATM   18  C   UNL     1      42.955 -15.088   4.954  1.00  0.00     0.035 C 
HETATM   19  C   UNL     1      42.592 -16.019   3.968  1.00  0.00     0.037 C 
HETATM   20  C   UNL     1      43.179 -17.284   3.840  1.00  0.00    -0.054 C 
HETATM   21  C   UNL     1      43.848 -17.812   4.939  1.00  0.00    -0.056 C 
HETATM   22  C   UNL     1      43.270 -17.863   2.451  1.00  0.00     0.049 C 
HETATM   23  C   UNL     1      44.029 -19.301   5.082  1.00  0.00     0.049 C 
HETATM   24  C   UNL     1      44.199 -16.924   5.975  1.00  0.00     0.009 C 
HETATM   25  C   UNL     1      43.822 -15.553   5.945  1.00  0.00     0.030 C 
ENDBRANCH  15  18
ENDBRANCH   1  14
BRANCH   2  26
HETATM   26  N   UNL     1      43.316 -11.039   5.561  1.00  0.00    -0.291 NA
HETATM   27  H   UNL     1      43.529 -10.206   5.004  1.00  0.00     0.125 HD
HETATM   28  H   UNL     1      44.011 -11.111   6.312  1.00  0.00     0.125 HD
ENDBRANCH   2  26
BRANCH   3  29
HETATM   29  N   UNL     1      41.422  -9.750   7.944  1.00  0.00    -0.198 NA
HETATM   30  C   UNL     1      42.610  -9.509   8.423  1.00  0.00     0.147 C 
BRANCH  30  31
HETATM   31  C   UNL     1      42.903  -9.446   9.848  1.00  0.00     0.010 A 
HETATM   32  C   UNL     1      42.731  -8.301  10.713  1.00  0.00     0.004 A 
HETATM   33  C   UNL     1      43.115  -8.684  12.000  1.00  0.00     0.043 A 
HETATM   34  C   UNL     1      42.279  -6.972  10.531  1.00  0.00     0.014 A 
HETATM   35  C   UNL     1      43.032  -7.829  13.110  1.00  0.00     0.030 A 
HETATM   36  N   UNL     1      43.561  -9.982  11.915  1.00  0.00    -0.364 N 
HETATM   37  C   UNL     1      42.561  -6.530  12.902  1.00  0.00     0.002 A 
HETATM   38  C   UNL     1      42.200  -6.101  11.629  1.00  0.00     0.001 A 
HETATM   39  H   UNL     1      43.925 -10.511  12.696  1.00  0.00     0.165 HD
HETATM   40  C   UNL     1      43.454 -10.444  10.629  1.00  0.00     0.102 A 
ENDBRANCH  30  31
ENDBRANCH   3  29
TORSDOF 5
ENDMDL
