MODEL 1
REMARK VINA RESULT:      -9.3      0.000      0.000
REMARK  8 active torsions:
REMARK  status: ('A' for Active; 'I' for Inactive)
REMARK    1  A    between atoms: C_4  and  C_5 
REMARK    2  A    between atoms: C_7  and  C_8 
REMARK    3  A    between atoms: C_9  and  C_10 
REMARK       I    between atoms: C_10  and  N_11 
REMARK    4  A    between atoms: N_11  and  C_12 
REMARK    5  A    between atoms: C_12  and  N_13 
REMARK    6  A    between atoms: N_13  and  C_14 
REMARK    7  A    between atoms: C_17  and  N_18 
REMARK       I    between atoms: N_21  and  C_22 
REMARK    8  A    between atoms: C_22  and  C_23 
ROOT
HETATM    1  N   UNL     1      39.271 -10.169  -1.303  1.00  0.00    -0.333 N 
HETATM    2  H   UNL     1      39.756  -9.494  -1.884  1.00  0.00     0.168 HD
ENDROOT
BRANCH   1   3
HETATM    3  C   UNL     1      38.344 -10.930  -1.973  1.00  0.00     0.179 C 
HETATM    4  S   UNL     1      36.681 -10.884  -1.779  1.00  0.00    -0.040 SA
BRANCH   3   5
HETATM    5  N   UNL     1      38.859 -11.913  -2.804  1.00  0.00    -0.300 N 
HETATM    6  C   UNL     1      39.081 -13.275  -2.700  1.00  0.00     0.247 C 
HETATM    7  O   UNL     1      39.258 -13.954  -3.709  1.00  0.00    -0.268 OA
HETATM    8  H   UNL     1      39.132 -11.560  -3.714  1.00  0.00     0.171 HD
BRANCH   6   9
HETATM    9  C   UNL     1      39.181 -13.851  -1.340  1.00  0.00     0.077 C 
HETATM   10  C   UNL     1      40.384 -14.137  -0.821  1.00  0.00     0.042 C 
BRANCH  10  11
HETATM   11  C   UNL     1      40.482 -14.616   0.512  1.00  0.00     0.076 A 
HETATM   12  O   UNL     1      41.491 -15.445   0.949  1.00  0.00    -0.310 OA
HETATM   13  C   UNL     1      41.298 -15.730   2.268  1.00  0.00     0.086 A 
HETATM   14  C   UNL     1      40.153 -15.099   2.702  1.00  0.00     0.041 A 
HETATM   15  C   UNL     1      39.644 -14.380   1.592  1.00  0.00     0.040 A 
BRANCH  13  16
HETATM   16  C   UNL     1      42.296 -16.595   2.891  1.00  0.00    -0.002 A 
HETATM   17  C   UNL     1      42.722 -17.771   2.255  1.00  0.00     0.014 A 
HETATM   18  C   UNL     1      43.662 -18.613   2.857  1.00  0.00     0.001 A 
HETATM   19  C   UNL     1      44.186 -18.293   4.108  1.00  0.00     0.000 A 
HETATM   20  C   UNL     1      43.776 -17.130   4.753  1.00  0.00     0.001 A 
HETATM   21  C   UNL     1      42.843 -16.285   4.146  1.00  0.00     0.014 A 
ENDBRANCH  13  16
ENDBRANCH  10  11
ENDBRANCH   6   9
ENDBRANCH   3   5
ENDBRANCH   1   3
BRANCH   1  22
HETATM   22  C   UNL     1      39.849 -10.408  -0.039  1.00  0.00     0.034 A 
HETATM   23  C   UNL     1      39.003 -10.552   1.062  1.00  0.00     0.031 A 
HETATM   24  C   UNL     1      39.529 -10.824   2.334  1.00  0.00     0.026 A 
HETATM   25  C   UNL     1      40.903 -11.004   2.526  1.00  0.00     0.010 A 
HETATM   26  C   UNL     1      41.733 -10.898   1.401  1.00  0.00     0.026 A 
HETATM   27  C   UNL     1      41.218 -10.597   0.134  1.00  0.00     0.031 A 
BRANCH  25  28
HETATM   28  N   UNL     1      41.492 -11.277   3.767  1.00  0.00    -0.280 NA
HETATM   29  C   UNL     1      42.154 -10.098   4.370  1.00  0.00     0.115 C 
HETATM   30  C   UNL     1      42.483 -10.368   5.850  1.00  0.00     0.141 C 
HETATM   31  N   UNL     1      43.219 -11.629   6.049  1.00  0.00    -0.344 N 
HETATM   32  C   UNL     1      43.934 -11.898   7.226  1.00  0.00     0.277 C 
HETATM   33  C   UNL     1      42.612 -12.784   5.372  1.00  0.00     0.141 C 
HETATM   34  O   UNL     1      43.994 -13.046   7.672  1.00  0.00    -0.265 OA
HETATM   35  C   UNL     1      42.304 -12.503   3.890  1.00  0.00     0.115 C 
BRANCH  32  36
HETATM   36  C   UNL     1      44.624 -10.807   7.897  1.00  0.00     0.142 A 
HETATM   37  O   UNL     1      45.715 -10.206   7.325  1.00  0.00    -0.317 OA
HETATM   38  C   UNL     1      46.176  -9.281   8.206  1.00  0.00     0.143 A 
HETATM   39  C   UNL     1      45.415  -9.282   9.350  1.00  0.00     0.027 A 
HETATM   40  C   UNL     1      44.427 -10.275   9.160  1.00  0.00     0.045 A 
ENDBRANCH  32  36
ENDBRANCH  25  28
ENDBRANCH   1  22
TORSDOF 8
ENDMDL
MODEL 2
REMARK VINA RESULT:      -9.3      1.539      2.055
REMARK  8 active torsions:
REMARK  status: ('A' for Active; 'I' for Inactive)
REMARK    1  A    between atoms: C_4  and  C_5 
REMARK    2  A    between atoms: C_7  and  C_8 
REMARK    3  A    between atoms: C_9  and  C_10 
REMARK       I    between atoms: C_10  and  N_11 
REMARK    4  A    between atoms: N_11  and  C_12 
REMARK    5  A    between atoms: C_12  and  N_13 
REMARK    6  A    between atoms: N_13  and  C_14 
REMARK    7  A    between atoms: C_17  and  N_18 
REMARK       I    between atoms: N_21  and  C_22 
REMARK    8  A    between atoms: C_22  and  C_23 
ROOT
HETATM    1  N   UNL     1      38.409 -12.075   0.609  1.00  0.00    -0.333 N 
HETATM    2  H   UNL     1      37.444 -12.150   0.912  1.00  0.00     0.168 HD
ENDROOT
BRANCH   1   3
HETATM    3  C   UNL     1      38.562 -11.787  -0.726  1.00  0.00     0.179 C 
HETATM    4  S   UNL     1      38.649 -10.266  -1.419  1.00  0.00    -0.040 SA
BRANCH   3   5
HETATM    5  N   UNL     1      38.521 -12.876  -1.584  1.00  0.00    -0.300 N 
HETATM    6  C   UNL     1      39.061 -14.150  -1.586  1.00  0.00     0.247 C 
HETATM    7  O   UNL     1      38.602 -15.017  -2.325  1.00  0.00    -0.268 OA
HETATM    8  H   UNL     1      37.951 -12.712  -2.406  1.00  0.00     0.171 HD
BRANCH   6   9
HETATM    9  C   UNL     1      40.251 -14.390  -0.739  1.00  0.00     0.077 C 
HETATM   10  C   UNL     1      40.140 -15.123   0.379  1.00  0.00     0.042 C 
BRANCH  10  11
HETATM   11  C   UNL     1      41.297 -15.417   1.149  1.00  0.00     0.076 A 
HETATM   12  O   UNL     1      41.591 -16.673   1.628  1.00  0.00    -0.310 OA
HETATM   13  C   UNL     1      42.758 -16.624   2.332  1.00  0.00     0.086 A 
HETATM   14  C   UNL     1      43.231 -15.330   2.328  1.00  0.00     0.041 A 
HETATM   15  C   UNL     1      42.312 -14.568   1.564  1.00  0.00     0.040 A 
BRANCH  13  16
HETATM   16  C   UNL     1      43.218 -17.887   2.901  1.00  0.00    -0.002 A 
HETATM   17  C   UNL     1      43.182 -19.068   2.145  1.00  0.00     0.014 A 
HETATM   18  C   UNL     1      43.603 -20.285   2.694  1.00  0.00     0.001 A 
HETATM   19  C   UNL     1      44.061 -20.337   4.008  1.00  0.00     0.000 A 
HETATM   20  C   UNL     1      44.104 -19.174   4.772  1.00  0.00     0.001 A 
HETATM   21  C   UNL     1      43.692 -17.959   4.220  1.00  0.00     0.014 A 
ENDBRANCH  13  16
ENDBRANCH  10  11
ENDBRANCH   6   9
ENDBRANCH   3   5
ENDBRANCH   1   3
BRANCH   1  22
HETATM   22  C   UNL     1      39.363 -11.964   1.642  1.00  0.00     0.034 A 
HETATM   23  C   UNL     1      39.115 -12.621   2.849  1.00  0.00     0.031 A 
HETATM   24  C   UNL     1      40.051 -12.568   3.893  1.00  0.00     0.026 A 
HETATM   25  C   UNL     1      41.271 -11.900   3.740  1.00  0.00     0.010 A 
HETATM   26  C   UNL     1      41.519 -11.283   2.506  1.00  0.00     0.026 A 
HETATM   27  C   UNL     1      40.578 -11.306   1.470  1.00  0.00     0.031 A 
BRANCH  25  28
HETATM   28  N   UNL     1      42.245 -11.810   4.741  1.00  0.00    -0.280 NA
HETATM   29  C   UNL     1      41.717 -11.293   6.024  1.00  0.00     0.115 C 
HETATM   30  C   UNL     1      42.736 -11.528   7.155  1.00  0.00     0.141 C 
HETATM   31  N   UNL     1      44.081 -11.029   6.823  1.00  0.00    -0.344 N 
HETATM   32  C   UNL     1      45.055 -10.797   7.806  1.00  0.00     0.277 C 
HETATM   33  C   UNL     1      44.568 -11.466   5.507  1.00  0.00     0.141 C 
HETATM   34  O   UNL     1      46.247 -11.004   7.565  1.00  0.00    -0.265 OA
HETATM   35  C   UNL     1      43.546 -11.209   4.385  1.00  0.00     0.115 C 
BRANCH  32  36
HETATM   36  C   UNL     1      44.640 -10.288   9.104  1.00  0.00     0.142 A 
HETATM   37  O   UNL     1      44.493 -11.129  10.176  1.00  0.00    -0.317 OA
HETATM   38  C   UNL     1      44.039 -10.384  11.216  1.00  0.00     0.143 A 
HETATM   39  C   UNL     1      43.869  -9.075  10.835  1.00  0.00     0.027 A 
HETATM   40  C   UNL     1      44.239  -9.014   9.472  1.00  0.00     0.045 A 
ENDBRANCH  32  36
ENDBRANCH  25  28
ENDBRANCH   1  22
TORSDOF 8
ENDMDL
MODEL 3
REMARK VINA RESULT:      -8.7      6.831      9.779
REMARK  8 active torsions:
REMARK  status: ('A' for Active; 'I' for Inactive)
REMARK    1  A    between atoms: C_4  and  C_5 
REMARK    2  A    between atoms: C_7  and  C_8 
REMARK    3  A    between atoms: C_9  and  C_10 
REMARK       I    between atoms: C_10  and  N_11 
REMARK    4  A    between atoms: N_11  and  C_12 
REMARK    5  A    between atoms: C_12  and  N_13 
REMARK    6  A    between atoms: N_13  and  C_14 
REMARK    7  A    between atoms: C_17  and  N_18 
REMARK       I    between atoms: N_21  and  C_22 
REMARK    8  A    between atoms: C_22  and  C_23 
ROOT
HETATM    1  N   UNL     1      43.040 -10.449   8.941  1.00  0.00    -0.333 N 
HETATM    2  H   UNL     1      42.264 -10.902   8.471  1.00  0.00     0.168 HD
ENDROOT
BRANCH   1   3
HETATM    3  C   UNL     1      44.176 -10.334   8.177  1.00  0.00     0.179 C 
HETATM    4  S   UNL     1      45.726 -10.023   8.727  1.00  0.00    -0.040 SA
BRANCH   3   5
HETATM    5  N   UNL     1      43.983 -10.365   6.804  1.00  0.00    -0.300 N 
HETATM    6  C   UNL     1      43.611 -11.329   5.882  1.00  0.00     0.247 C 
HETATM    7  O   UNL     1      43.212 -11.001   4.768  1.00  0.00    -0.268 OA
HETATM    8  H   UNL     1      44.138  -9.468   6.360  1.00  0.00     0.171 HD
BRANCH   6   9
HETATM    9  C   UNL     1      43.797 -12.747   6.263  1.00  0.00     0.077 C 
HETATM   10  C   UNL     1      43.114 -13.707   5.621  1.00  0.00     0.042 C 
BRANCH  10  11
HETATM   11  C   UNL     1      43.351 -15.072   5.934  1.00  0.00     0.076 A 
HETATM   12  O   UNL     1      43.397 -16.071   4.989  1.00  0.00    -0.310 OA
HETATM   13  C   UNL     1      43.632 -17.264   5.607  1.00  0.00     0.086 A 
HETATM   14  C   UNL     1      43.730 -17.055   6.965  1.00  0.00     0.041 A 
HETATM   15  C   UNL     1      43.566 -15.662   7.171  1.00  0.00     0.040 A 
BRANCH  13  16
HETATM   16  C   UNL     1      43.723 -18.432   4.735  1.00  0.00    -0.002 A 
HETATM   17  C   UNL     1      43.538 -18.308   3.350  1.00  0.00     0.014 A 
HETATM   18  C   UNL     1      43.603 -19.427   2.514  1.00  0.00     0.001 A 
HETATM   19  C   UNL     1      43.849 -20.688   3.053  1.00  0.00     0.000 A 
HETATM   20  C   UNL     1      44.036 -20.830   4.425  1.00  0.00     0.001 A 
HETATM   21  C   UNL     1      43.979 -19.709   5.258  1.00  0.00     0.014 A 
ENDBRANCH  13  16
ENDBRANCH  10  11
ENDBRANCH   6   9
ENDBRANCH   3   5
ENDBRANCH   1   3
BRANCH   1  22
HETATM   22  C   UNL     1      42.713  -9.764  10.130  1.00  0.00     0.034 A 
HETATM   23  C   UNL     1      41.879  -8.647  10.045  1.00  0.00     0.031 A 
HETATM   24  C   UNL     1      41.500  -7.953  11.204  1.00  0.00     0.026 A 
HETATM   25  C   UNL     1      41.905  -8.383  12.472  1.00  0.00     0.010 A 
HETATM   26  C   UNL     1      42.707  -9.531  12.539  1.00  0.00     0.026 A 
HETATM   27  C   UNL     1      43.114 -10.212  11.386  1.00  0.00     0.031 A 
BRANCH  25  28
HETATM   28  N   UNL     1      41.561  -7.736  13.665  1.00  0.00    -0.280 NA
HETATM   29  C   UNL     1      41.638  -8.620  14.851  1.00  0.00     0.115 C 
HETATM   30  C   UNL     1      41.577  -7.787  16.144  1.00  0.00     0.141 C 
HETATM   31  N   UNL     1      40.434  -6.857  16.169  1.00  0.00    -0.344 N 
HETATM   32  C   UNL     1      39.966  -6.281  17.360  1.00  0.00     0.277 C 
HETATM   33  C   UNL     1      40.302  -6.045  14.952  1.00  0.00     0.141 C 
HETATM   34  O   UNL     1      39.518  -5.133  17.364  1.00  0.00    -0.265 OA
HETATM   35  C   UNL     1      40.349  -6.895  13.669  1.00  0.00     0.115 C 
BRANCH  32  36
HETATM   36  C   UNL     1      39.998  -7.067  18.584  1.00  0.00     0.142 A 
HETATM   37  O   UNL     1      39.300  -8.244  18.683  1.00  0.00    -0.317 OA
HETATM   38  C   UNL     1      39.467  -8.708  19.948  1.00  0.00     0.143 A 
HETATM   39  C   UNL     1      40.246  -7.845  20.681  1.00  0.00     0.027 A 
HETATM   40  C   UNL     1      40.573  -6.780  19.810  1.00  0.00     0.045 A 
ENDBRANCH  32  36
ENDBRANCH  25  28
ENDBRANCH   1  22
TORSDOF 8
ENDMDL
MODEL 4
REMARK VINA RESULT:      -8.5      1.931      2.488
REMARK  8 active torsions:
REMARK  status: ('A' for Active; 'I' for Inactive)
REMARK    1  A    between atoms: C_4  and  C_5 
REMARK    2  A    between atoms: C_7  and  C_8 
REMARK    3  A    between atoms: C_9  and  C_10 
REMARK       I    between atoms: C_10  and  N_11 
REMARK    4  A    between atoms: N_11  and  C_12 
REMARK    5  A    between atoms: C_12  and  N_13 
REMARK    6  A    between atoms: N_13  and  C_14 
REMARK    7  A    between atoms: C_17  and  N_18 
REMARK       I    between atoms: N_21  and  C_22 
REMARK    8  A    between atoms: C_22  and  C_23 
ROOT
HETATM    1  N   UNL     1      37.717 -11.944   0.174  1.00  0.00    -0.333 N 
HETATM    2  H   UNL     1      36.751 -12.246   0.234  1.00  0.00     0.168 HD
ENDROOT
BRANCH   1   3
HETATM    3  C   UNL     1      38.178 -11.775  -1.109  1.00  0.00     0.179 C 
HETATM    4  S   UNL     1      38.537 -10.323  -1.861  1.00  0.00    -0.040 SA
BRANCH   3   5
HETATM    5  N   UNL     1      38.235 -12.923  -1.885  1.00  0.00    -0.300 N 
HETATM    6  C   UNL     1      38.864 -14.152  -1.780  1.00  0.00     0.247 C 
HETATM    7  O   UNL     1      38.486 -15.102  -2.461  1.00  0.00    -0.268 OA
HETATM    8  H   UNL     1      37.677 -12.862  -2.728  1.00  0.00     0.171 HD
BRANCH   6   9
HETATM    9  C   UNL     1      40.046 -14.244  -0.894  1.00  0.00     0.077 C 
HETATM   10  C   UNL     1      39.981 -14.962   0.237  1.00  0.00     0.042 C 
BRANCH  10  11
HETATM   11  C   UNL     1      41.138 -15.112   1.046  1.00  0.00     0.076 A 
HETATM   12  O   UNL     1      41.508 -16.303   1.629  1.00  0.00    -0.310 OA
HETATM   13  C   UNL     1      42.653 -16.116   2.345  1.00  0.00     0.086 A 
HETATM   14  C   UNL     1      43.035 -14.796   2.246  1.00  0.00     0.041 A 
HETATM   15  C   UNL     1      42.082 -14.163   1.409  1.00  0.00     0.040 A 
BRANCH  13  16
HETATM   16  C   UNL     1      43.188 -17.295   3.020  1.00  0.00    -0.002 A 
HETATM   17  C   UNL     1      43.751 -17.192   4.301  1.00  0.00     0.014 A 
HETATM   18  C   UNL     1      44.284 -18.316   4.943  1.00  0.00     0.001 A 
HETATM   19  C   UNL     1      44.266 -19.556   4.310  1.00  0.00     0.000 A 
HETATM   20  C   UNL     1      43.711 -19.676   3.039  1.00  0.00     0.001 A 
HETATM   21  C   UNL     1      43.171 -18.555   2.403  1.00  0.00     0.014 A 
ENDBRANCH  13  16
ENDBRANCH  10  11
ENDBRANCH   6   9
ENDBRANCH   3   5
ENDBRANCH   1   3
BRANCH   1  22
HETATM   22  C   UNL     1      38.279 -11.464   1.375  1.00  0.00     0.034 A 
HETATM   23  C   UNL     1      37.927 -10.185   1.809  1.00  0.00     0.031 A 
HETATM   24  C   UNL     1      38.435  -9.678   3.015  1.00  0.00     0.026 A 
HETATM   25  C   UNL     1      39.265 -10.450   3.834  1.00  0.00     0.010 A 
HETATM   26  C   UNL     1      39.573 -11.748   3.401  1.00  0.00     0.026 A 
HETATM   27  C   UNL     1      39.095 -12.250   2.185  1.00  0.00     0.031 A 
BRANCH  25  28
HETATM   28  N   UNL     1      39.804 -10.004   5.046  1.00  0.00    -0.280 NA
HETATM   29  C   UNL     1      41.284 -10.049   5.078  1.00  0.00     0.115 C 
HETATM   30  C   UNL     1      41.818  -9.250   6.282  1.00  0.00     0.141 C 
HETATM   31  N   UNL     1      41.184  -9.643   7.552  1.00  0.00    -0.344 N 
HETATM   32  C   UNL     1      41.752  -9.332   8.797  1.00  0.00     0.277 C 
HETATM   33  C   UNL     1      39.717  -9.689   7.494  1.00  0.00     0.141 C 
HETATM   34  O   UNL     1      41.033  -9.069   9.764  1.00  0.00    -0.265 OA
HETATM   35  C   UNL     1      39.199 -10.505   6.296  1.00  0.00     0.115 C 
BRANCH  32  36
HETATM   36  C   UNL     1      43.200  -9.349   8.935  1.00  0.00     0.142 A 
HETATM   37  O   UNL     1      43.836 -10.395   9.554  1.00  0.00    -0.317 OA
HETATM   38  C   UNL     1      45.161 -10.099   9.590  1.00  0.00     0.143 A 
HETATM   39  C   UNL     1      45.398  -8.870   9.022  1.00  0.00     0.027 A 
HETATM   40  C   UNL     1      44.135  -8.379   8.616  1.00  0.00     0.045 A 
ENDBRANCH  32  36
ENDBRANCH  25  28
ENDBRANCH   1  22
TORSDOF 8
ENDMDL
MODEL 5
REMARK VINA RESULT:      -8.3      7.058     10.223
REMARK  8 active torsions:
REMARK  status: ('A' for Active; 'I' for Inactive)
REMARK    1  A    between atoms: C_4  and  C_5 
REMARK    2  A    between atoms: C_7  and  C_8 
REMARK    3  A    between atoms: C_9  and  C_10 
REMARK       I    between atoms: C_10  and  N_11 
REMARK    4  A    between atoms: N_11  and  C_12 
REMARK    5  A    between atoms: C_12  and  N_13 
REMARK    6  A    between atoms: N_13  and  C_14 
REMARK    7  A    between atoms: C_17  and  N_18 
REMARK       I    between atoms: N_21  and  C_22 
REMARK    8  A    between atoms: C_22  and  C_23 
ROOT
HETATM    1  N   UNL     1      42.684 -10.109   9.663  1.00  0.00    -0.333 N 
HETATM    2  H   UNL     1      42.301 -11.047   9.687  1.00  0.00     0.168 HD
ENDROOT
BRANCH   1   3
HETATM    3  C   UNL     1      43.130  -9.711   8.426  1.00  0.00     0.179 C 
HETATM    4  S   UNL     1      42.224  -8.976   7.224  1.00  0.00    -0.040 SA
BRANCH   3   5
HETATM    5  N   UNL     1      44.433 -10.066   8.112  1.00  0.00    -0.300 N 
HETATM    6  C   UNL     1      45.028 -11.053   7.347  1.00  0.00     0.247 C 
HETATM    7  O   UNL     1      46.198 -10.941   6.990  1.00  0.00    -0.268 OA
HETATM    8  H   UNL     1      45.123  -9.454   8.531  1.00  0.00     0.171 HD
BRANCH   6   9
HETATM    9  C   UNL     1      44.234 -12.268   7.059  1.00  0.00     0.077 C 
HETATM   10  C   UNL     1      43.533 -12.355   5.918  1.00  0.00     0.042 C 
BRANCH  10  11
HETATM   11  C   UNL     1      42.834 -13.552   5.607  1.00  0.00     0.076 A 
HETATM   12  O   UNL     1      43.416 -14.632   4.982  1.00  0.00    -0.310 OA
HETATM   13  C   UNL     1      42.484 -15.613   4.820  1.00  0.00     0.086 A 
HETATM   14  C   UNL     1      41.279 -15.178   5.327  1.00  0.00     0.041 A 
HETATM   15  C   UNL     1      41.506 -13.876   5.840  1.00  0.00     0.040 A 
BRANCH  13  16
HETATM   16  C   UNL     1      42.948 -16.840   4.179  1.00  0.00    -0.002 A 
HETATM   17  C   UNL     1      43.861 -17.685   4.827  1.00  0.00     0.014 A 
HETATM   18  C   UNL     1      44.324 -18.851   4.208  1.00  0.00     0.001 A 
HETATM   19  C   UNL     1      43.885 -19.184   2.928  1.00  0.00     0.000 A 
HETATM   20  C   UNL     1      42.979 -18.357   2.271  1.00  0.00     0.001 A 
HETATM   21  C   UNL     1      42.510 -17.198   2.894  1.00  0.00     0.014 A 
ENDBRANCH  13  16
ENDBRANCH  10  11
ENDBRANCH   6   9
ENDBRANCH   3   5
ENDBRANCH   1   3
BRANCH   1  22
HETATM   22  C   UNL     1      42.401  -9.308  10.789  1.00  0.00     0.034 A 
HETATM   23  C   UNL     1      41.090  -8.866  10.977  1.00  0.00     0.031 A 
HETATM   24  C   UNL     1      40.753  -8.095  12.100  1.00  0.00     0.026 A 
HETATM   25  C   UNL     1      41.703  -7.788  13.080  1.00  0.00     0.010 A 
HETATM   26  C   UNL     1      43.004  -8.277  12.895  1.00  0.00     0.026 A 
HETATM   27  C   UNL     1      43.355  -9.022  11.762  1.00  0.00     0.031 A 
BRANCH  25  28
HETATM   28  N   UNL     1      41.432  -7.025  14.222  1.00  0.00    -0.280 NA
HETATM   29  C   UNL     1      41.899  -7.663  15.474  1.00  0.00     0.115 C 
HETATM   30  C   UNL     1      41.875  -6.648  16.632  1.00  0.00     0.141 C 
HETATM   31  N   UNL     1      40.577  -5.963  16.763  1.00  0.00    -0.344 N 
HETATM   32  C   UNL     1      40.202  -5.292  17.937  1.00  0.00     0.277 C 
HETATM   33  C   UNL     1      40.067  -5.411  15.500  1.00  0.00     0.141 C 
HETATM   34  O   UNL     1      39.519  -4.267  17.879  1.00  0.00    -0.265 OA
HETATM   35  C   UNL     1      40.082  -6.442  14.357  1.00  0.00     0.115 C 
BRANCH  32  36
HETATM   36  C   UNL     1      40.610  -5.837  19.222  1.00  0.00     0.142 A 
HETATM   37  O   UNL     1      40.197  -7.082  19.622  1.00  0.00    -0.317 OA
HETATM   38  C   UNL     1      40.678  -7.285  20.876  1.00  0.00     0.143 A 
HETATM   39  C   UNL     1      41.380  -6.186  21.308  1.00  0.00     0.027 A 
HETATM   40  C   UNL     1      41.323  -5.247  20.252  1.00  0.00     0.045 A 
ENDBRANCH  32  36
ENDBRANCH  25  28
ENDBRANCH   1  22
TORSDOF 8
ENDMDL
MODEL 6
REMARK VINA RESULT:      -8.3      3.009      8.089
REMARK  8 active torsions:
REMARK  status: ('A' for Active; 'I' for Inactive)
REMARK    1  A    between atoms: C_4  and  C_5 
REMARK    2  A    between atoms: C_7  and  C_8 
REMARK    3  A    between atoms: C_9  and  C_10 
REMARK       I    between atoms: C_10  and  N_11 
REMARK    4  A    between atoms: N_11  and  C_12 
REMARK    5  A    between atoms: C_12  and  N_13 
REMARK    6  A    between atoms: N_13  and  C_14 
REMARK    7  A    between atoms: C_17  and  N_18 
REMARK       I    between atoms: N_21  and  C_22 
REMARK    8  A    between atoms: C_22  and  C_23 
ROOT
HETATM    1  N   UNL     1      42.473  -9.236   8.308  1.00  0.00    -0.333 N 
HETATM    2  H   UNL     1      42.075  -8.449   8.806  1.00  0.00     0.168 HD
ENDROOT
BRANCH   1   3
HETATM    3  C   UNL     1      43.414  -9.940   9.021  1.00  0.00     0.179 C 
HETATM    4  S   UNL     1      43.315 -10.397  10.629  1.00  0.00    -0.040 SA
BRANCH   3   5
HETATM    5  N   UNL     1      44.609 -10.187   8.362  1.00  0.00    -0.300 N 
HETATM    6  C   UNL     1      45.025 -11.057   7.369  1.00  0.00     0.247 C 
HETATM    7  O   UNL     1      46.066 -10.842   6.753  1.00  0.00    -0.268 OA
HETATM    8  H   UNL     1      45.362  -9.582   8.666  1.00  0.00     0.171 HD
BRANCH   6   9
HETATM    9  C   UNL     1      44.221 -12.280   7.149  1.00  0.00     0.077 C 
HETATM   10  C   UNL     1      43.702 -12.530   5.938  1.00  0.00     0.042 C 
BRANCH  10  11
HETATM   11  C   UNL     1      42.997 -13.742   5.709  1.00  0.00     0.076 A 
HETATM   12  O   UNL     1      43.513 -14.798   4.992  1.00  0.00    -0.310 OA
HETATM   13  C   UNL     1      42.592 -15.802   4.946  1.00  0.00     0.086 A 
HETATM   14  C   UNL     1      41.459 -15.406   5.622  1.00  0.00     0.041 A 
HETATM   15  C   UNL     1      41.722 -14.104   6.119  1.00  0.00     0.040 A 
BRANCH  13  16
HETATM   16  C   UNL     1      42.993 -17.008   4.227  1.00  0.00    -0.002 A 
HETATM   17  C   UNL     1      42.543 -17.245   2.919  1.00  0.00     0.014 A 
HETATM   18  C   UNL     1      42.907 -18.409   2.235  1.00  0.00     0.001 A 
HETATM   19  C   UNL     1      43.723 -19.355   2.851  1.00  0.00     0.000 A 
HETATM   20  C   UNL     1      44.179 -19.136   4.147  1.00  0.00     0.001 A 
HETATM   21  C   UNL     1      43.822 -17.969   4.827  1.00  0.00     0.014 A 
ENDBRANCH  13  16
ENDBRANCH  10  11
ENDBRANCH   6   9
ENDBRANCH   3   5
ENDBRANCH   1   3
BRANCH   1  22
HETATM   22  C   UNL     1      41.779  -9.635   7.147  1.00  0.00     0.034 A 
HETATM   23  C   UNL     1      42.274  -9.232   5.905  1.00  0.00     0.031 A 
HETATM   24  C   UNL     1      41.637  -9.632   4.721  1.00  0.00     0.026 A 
HETATM   25  C   UNL     1      40.524 -10.479   4.747  1.00  0.00     0.010 A 
HETATM   26  C   UNL     1      40.068 -10.908   6.002  1.00  0.00     0.026 A 
HETATM   27  C   UNL     1      40.680 -10.489   7.188  1.00  0.00     0.031 A 
BRANCH  25  28
HETATM   28  N   UNL     1      39.844 -10.914   3.603  1.00  0.00    -0.280 NA
HETATM   29  C   UNL     1      40.688 -11.726   2.697  1.00  0.00     0.115 C 
HETATM   30  C   UNL     1      39.814 -12.440   1.649  1.00  0.00     0.141 C 
HETATM   31  N   UNL     1      38.902 -11.521   0.946  1.00  0.00    -0.344 N 
HETATM   32  C   UNL     1      38.295 -11.858  -0.273  1.00  0.00     0.277 C 
HETATM   33  C   UNL     1      38.132 -10.648   1.843  1.00  0.00     0.141 C 
HETATM   34  O   UNL     1      37.154 -11.468  -0.531  1.00  0.00    -0.265 OA
HETATM   35  C   UNL     1      39.022  -9.929   2.874  1.00  0.00     0.115 C 
BRANCH  32  36
HETATM   36  C   UNL     1      39.040 -12.654  -1.235  1.00  0.00     0.142 A 
HETATM   37  O   UNL     1      40.171 -12.160  -1.833  1.00  0.00    -0.317 OA
HETATM   38  C   UNL     1      40.601 -13.094  -2.720  1.00  0.00     0.143 A 
HETATM   39  C   UNL     1      39.760 -14.180  -2.725  1.00  0.00     0.027 A 
HETATM   40  C   UNL     1      38.745 -13.892  -1.783  1.00  0.00     0.045 A 
ENDBRANCH  32  36
ENDBRANCH  25  28
ENDBRANCH   1  22
TORSDOF 8
ENDMDL
MODEL 7
REMARK VINA RESULT:      -8.1      5.843      8.543
REMARK  8 active torsions:
REMARK  status: ('A' for Active; 'I' for Inactive)
REMARK    1  A    between atoms: C_4  and  C_5 
REMARK    2  A    between atoms: C_7  and  C_8 
REMARK    3  A    between atoms: C_9  and  C_10 
REMARK       I    between atoms: C_10  and  N_11 
REMARK    4  A    between atoms: N_11  and  C_12 
REMARK    5  A    between atoms: C_12  and  N_13 
REMARK    6  A    between atoms: N_13  and  C_14 
REMARK    7  A    between atoms: C_17  and  N_18 
REMARK       I    between atoms: N_21  and  C_22 
REMARK    8  A    between atoms: C_22  and  C_23 
ROOT
HETATM    1  N   UNL     1      44.450 -10.930   8.129  1.00  0.00    -0.333 N 
HETATM    2  H   UNL     1      45.426 -11.180   8.237  1.00  0.00     0.168 HD
ENDROOT
BRANCH   1   3
HETATM    3  C   UNL     1      43.799 -11.611   7.128  1.00  0.00     0.179 C 
HETATM    4  S   UNL     1      43.562 -13.266   7.034  1.00  0.00    -0.040 SA
BRANCH   3   5
HETATM    5  N   UNL     1      43.407 -10.849   6.038  1.00  0.00    -0.300 N 
HETATM    6  C   UNL     1      42.989 -11.119   4.746  1.00  0.00     0.247 C 
HETATM    7  O   UNL     1      42.401 -10.261   4.092  1.00  0.00    -0.268 OA
HETATM    8  H   UNL     1      43.415  -9.854   6.225  1.00  0.00     0.171 HD
BRANCH   6   9
HETATM    9  C   UNL     1      43.354 -12.432   4.169  1.00  0.00     0.077 C 
HETATM   10  C   UNL     1      42.411 -13.200   3.603  1.00  0.00     0.042 C 
BRANCH  10  11
HETATM   11  C   UNL     1      42.776 -14.424   2.981  1.00  0.00     0.076 A 
HETATM   12  O   UNL     1      42.981 -15.596   3.673  1.00  0.00    -0.310 OA
HETATM   13  C   UNL     1      43.326 -16.581   2.795  1.00  0.00     0.086 A 
HETATM   14  C   UNL     1      43.361 -16.057   1.522  1.00  0.00     0.041 A 
HETATM   15  C   UNL     1      42.997 -14.692   1.638  1.00  0.00     0.040 A 
BRANCH  13  16
HETATM   16  C   UNL     1      43.567 -17.900   3.373  1.00  0.00    -0.002 A 
HETATM   17  C   UNL     1      43.550 -19.049   2.567  1.00  0.00     0.014 A 
HETATM   18  C   UNL     1      43.760 -20.316   3.120  1.00  0.00     0.001 A 
HETATM   19  C   UNL     1      43.985 -20.453   4.488  1.00  0.00     0.000 A 
HETATM   20  C   UNL     1      44.006 -19.325   5.302  1.00  0.00     0.001 A 
HETATM   21  C   UNL     1      43.805 -18.058   4.747  1.00  0.00     0.014 A 
ENDBRANCH  13  16
ENDBRANCH  10  11
ENDBRANCH   6   9
ENDBRANCH   3   5
ENDBRANCH   1   3
BRANCH   1  22
HETATM   22  C   UNL     1      43.889 -10.196   9.194  1.00  0.00     0.034 A 
HETATM   23  C   UNL     1      42.621  -9.638   9.022  1.00  0.00     0.031 A 
HETATM   24  C   UNL     1      42.008  -8.928  10.065  1.00  0.00     0.026 A 
HETATM   25  C   UNL     1      42.625  -8.798  11.314  1.00  0.00     0.010 A 
HETATM   26  C   UNL     1      43.880  -9.401  11.481  1.00  0.00     0.026 A 
HETATM   27  C   UNL     1      44.510 -10.086  10.435  1.00  0.00     0.031 A 
BRANCH  25  28
HETATM   28  N   UNL     1      42.068  -8.104  12.394  1.00  0.00    -0.280 NA
HETATM   29  C   UNL     1      42.944  -8.083  13.588  1.00  0.00     0.115 C 
HETATM   30  C   UNL     1      42.436  -7.045  14.606  1.00  0.00     0.141 C 
HETATM   31  N   UNL     1      41.006  -7.208  14.921  1.00  0.00    -0.344 N 
HETATM   32  C   UNL     1      40.424  -6.639  16.065  1.00  0.00     0.277 C 
HETATM   33  C   UNL     1      40.146  -7.323  13.736  1.00  0.00     0.141 C 
HETATM   34  O   UNL     1      39.264  -6.222  16.033  1.00  0.00    -0.265 OA
HETATM   35  C   UNL     1      40.658  -8.376  12.736  1.00  0.00     0.115 C 
BRANCH  32  36
HETATM   36  C   UNL     1      41.201  -6.571  17.292  1.00  0.00     0.142 A 
HETATM   37  O   UNL     1      41.514  -7.708  17.992  1.00  0.00    -0.317 OA
HETATM   38  C   UNL     1      42.179  -7.325  19.112  1.00  0.00     0.143 A 
HETATM   39  C   UNL     1      42.289  -5.956  19.164  1.00  0.00     0.027 A 
HETATM   40  C   UNL     1      41.646  -5.469  18.003  1.00  0.00     0.045 A 
ENDBRANCH  32  36
ENDBRANCH  25  28
ENDBRANCH   1  22
TORSDOF 8
ENDMDL
MODEL 8
REMARK VINA RESULT:      -7.9      6.893      9.475
REMARK  8 active torsions:
REMARK  status: ('A' for Active; 'I' for Inactive)
REMARK    1  A    between atoms: C_4  and  C_5 
REMARK    2  A    between atoms: C_7  and  C_8 
REMARK    3  A    between atoms: C_9  and  C_10 
REMARK       I    between atoms: C_10  and  N_11 
REMARK    4  A    between atoms: N_11  and  C_12 
REMARK    5  A    between atoms: C_12  and  N_13 
REMARK    6  A    between atoms: N_13  and  C_14 
REMARK    7  A    between atoms: C_17  and  N_18 
REMARK       I    between atoms: N_21  and  C_22 
REMARK    8  A    between atoms: C_22  and  C_23 
ROOT
HETATM    1  N   UNL     1      41.734  -9.754   8.689  1.00  0.00    -0.333 N 
HETATM    2  H   UNL     1      42.086 -10.704   8.643  1.00  0.00     0.168 HD
ENDROOT
BRANCH   1   3
HETATM    3  C   UNL     1      41.178  -9.299   7.518  1.00  0.00     0.179 C 
HETATM    4  S   UNL     1      41.720  -8.021   6.581  1.00  0.00    -0.040 SA
BRANCH   3   5
HETATM    5  N   UNL     1      39.980  -9.893   7.150  1.00  0.00    -0.300 N 
HETATM    6  C   UNL     1      39.607 -11.122   6.634  1.00  0.00     0.247 C 
HETATM    7  O   UNL     1      38.438 -11.494   6.700  1.00  0.00    -0.268 OA
HETATM    8  H   UNL     1      39.176  -9.295   7.302  1.00  0.00     0.171 HD
BRANCH   6   9
HETATM    9  C   UNL     1      40.644 -11.914   5.935  1.00  0.00     0.077 C 
HETATM   10  C   UNL     1      40.374 -12.464   4.742  1.00  0.00     0.042 C 
BRANCH  10  11
HETATM   11  C   UNL     1      41.394 -13.158   4.036  1.00  0.00     0.076 A 
HETATM   12  O   UNL     1      41.747 -14.462   4.300  1.00  0.00    -0.310 OA
HETATM   13  C   UNL     1      42.758 -14.831   3.462  1.00  0.00     0.086 A 
HETATM   14  C   UNL     1      43.082 -13.766   2.651  1.00  0.00     0.041 A 
HETATM   15  C   UNL     1      42.206 -12.709   3.006  1.00  0.00     0.040 A 
BRANCH  13  16
HETATM   16  C   UNL     1      43.243 -16.201   3.605  1.00  0.00    -0.002 A 
HETATM   17  C   UNL     1      43.784 -16.645   4.821  1.00  0.00     0.014 A 
HETATM   18  C   UNL     1      44.269 -17.950   4.957  1.00  0.00     0.001 A 
HETATM   19  C   UNL     1      44.224 -18.828   3.876  1.00  0.00     0.000 A 
HETATM   20  C   UNL     1      43.691 -18.404   2.662  1.00  0.00     0.001 A 
HETATM   21  C   UNL     1      43.198 -17.102   2.531  1.00  0.00     0.014 A 
ENDBRANCH  13  16
ENDBRANCH  10  11
ENDBRANCH   6   9
ENDBRANCH   3   5
ENDBRANCH   1   3
BRANCH   1  22
HETATM   22  C   UNL     1      41.598  -9.219   9.987  1.00  0.00     0.034 A 
HETATM   23  C   UNL     1      42.747  -9.061  10.764  1.00  0.00     0.031 A 
HETATM   24  C   UNL     1      42.665  -8.502  12.048  1.00  0.00     0.026 A 
HETATM   25  C   UNL     1      41.448  -8.047  12.565  1.00  0.00     0.010 A 
HETATM   26  C   UNL     1      40.312  -8.176  11.753  1.00  0.00     0.026 A 
HETATM   27  C   UNL     1      40.381  -8.759  10.482  1.00  0.00     0.031 A 
BRANCH  25  28
HETATM   28  N   UNL     1      41.299  -7.481  13.837  1.00  0.00    -0.280 NA
HETATM   29  C   UNL     1      41.255  -8.488  14.922  1.00  0.00     0.115 C 
HETATM   30  C   UNL     1      41.425  -7.805  16.292  1.00  0.00     0.141 C 
HETATM   31  N   UNL     1      40.493  -6.681  16.488  1.00  0.00    -0.344 N 
HETATM   32  C   UNL     1      40.209  -6.159  17.759  1.00  0.00     0.277 C 
HETATM   33  C   UNL     1      40.467  -5.730  15.368  1.00  0.00     0.141 C 
HETATM   34  O   UNL     1      39.999  -4.953  17.907  1.00  0.00    -0.265 OA
HETATM   35  C   UNL     1      40.280  -6.426  14.007  1.00  0.00     0.115 C 
BRANCH  32  36
HETATM   36  C   UNL     1      40.142  -7.066  18.895  1.00  0.00     0.142 A 
HETATM   37  O   UNL     1      39.387  -8.209  18.840  1.00  0.00    -0.317 OA
HETATM   38  C   UNL     1      39.468  -8.807  20.056  1.00  0.00     0.143 A 
HETATM   39  C   UNL     1      40.248  -8.065  20.909  1.00  0.00     0.027 A 
HETATM   40  C   UNL     1      40.668  -6.935  20.169  1.00  0.00     0.045 A 
ENDBRANCH  32  36
ENDBRANCH  25  28
ENDBRANCH   1  22
TORSDOF 8
ENDMDL
MODEL 9
REMARK VINA RESULT:      -7.9      2.599      3.714
REMARK  8 active torsions:
REMARK  status: ('A' for Active; 'I' for Inactive)
REMARK    1  A    between atoms: C_4  and  C_5 
REMARK    2  A    between atoms: C_7  and  C_8 
REMARK    3  A    between atoms: C_9  and  C_10 
REMARK       I    between atoms: C_10  and  N_11 
REMARK    4  A    between atoms: N_11  and  C_12 
REMARK    5  A    between atoms: C_12  and  N_13 
REMARK    6  A    between atoms: N_13  and  C_14 
REMARK    7  A    between atoms: C_17  and  N_18 
REMARK       I    between atoms: N_21  and  C_22 
REMARK    8  A    between atoms: C_22  and  C_23 
ROOT
HETATM    1  N   UNL     1      39.300  -9.199   2.136  1.00  0.00    -0.333 N 
HETATM    2  H   UNL     1      39.357  -8.257   1.765  1.00  0.00     0.168 HD
ENDROOT
BRANCH   1   3
HETATM    3  C   UNL     1      38.921 -10.147   1.216  1.00  0.00     0.179 C 
HETATM    4  S   UNL     1      37.593 -11.163   1.314  1.00  0.00    -0.040 SA
BRANCH   3   5
HETATM    5  N   UNL     1      39.801 -10.352   0.164  1.00  0.00    -0.300 N 
HETATM    6  C   UNL     1      40.621 -11.388  -0.247  1.00  0.00     0.247 C 
HETATM    7  O   UNL     1      41.057 -11.416  -1.395  1.00  0.00    -0.268 OA
HETATM    8  H   UNL     1      39.856  -9.562  -0.467  1.00  0.00     0.171 HD
BRANCH   6   9
HETATM    9  C   UNL     1      41.014 -12.394   0.766  1.00  0.00     0.077 C 
HETATM   10  C   UNL     1      41.926 -12.083   1.699  1.00  0.00     0.042 C 
BRANCH  10  11
HETATM   11  C   UNL     1      42.244 -13.022   2.716  1.00  0.00     0.076 A 
HETATM   12  O   UNL     1      42.551 -14.340   2.464  1.00  0.00    -0.310 OA
HETATM   13  C   UNL     1      42.798 -14.977   3.644  1.00  0.00     0.086 A 
HETATM   14  C   UNL     1      42.644 -14.082   4.680  1.00  0.00     0.041 A 
HETATM   15  C   UNL     1      42.307 -12.838   4.089  1.00  0.00     0.040 A 
BRANCH  13  16
HETATM   16  C   UNL     1      43.153 -16.390   3.550  1.00  0.00    -0.002 A 
HETATM   17  C   UNL     1      43.889 -17.013   4.568  1.00  0.00     0.014 A 
HETATM   18  C   UNL     1      44.249 -18.362   4.471  1.00  0.00     0.001 A 
HETATM   19  C   UNL     1      43.882 -19.104   3.351  1.00  0.00     0.000 A 
HETATM   20  C   UNL     1      43.152 -18.502   2.331  1.00  0.00     0.001 A 
HETATM   21  C   UNL     1      42.785 -17.157   2.433  1.00  0.00     0.014 A 
ENDBRANCH  13  16
ENDBRANCH  10  11
ENDBRANCH   6   9
ENDBRANCH   3   5
ENDBRANCH   1   3
BRANCH   1  22
HETATM   22  C   UNL     1      39.910  -9.395   3.392  1.00  0.00     0.034 A 
HETATM   23  C   UNL     1      39.309 -10.278   4.292  1.00  0.00     0.031 A 
HETATM   24  C   UNL     1      39.896 -10.531   5.540  1.00  0.00     0.026 A 
HETATM   25  C   UNL     1      41.115  -9.947   5.900  1.00  0.00     0.010 A 
HETATM   26  C   UNL     1      41.724  -9.096   4.966  1.00  0.00     0.026 A 
HETATM   27  C   UNL     1      41.130  -8.816   3.731  1.00  0.00     0.031 A 
BRANCH  25  28
HETATM   28  N   UNL     1      41.753 -10.158   7.128  1.00  0.00    -0.280 NA
HETATM   29  C   UNL     1      41.172  -9.358   8.231  1.00  0.00     0.115 C 
HETATM   30  C   UNL     1      41.683  -9.871   9.590  1.00  0.00     0.141 C 
HETATM   31  N   UNL     1      43.152  -9.978   9.643  1.00  0.00    -0.344 N 
HETATM   32  C   UNL     1      43.850 -10.060  10.857  1.00  0.00     0.277 C 
HETATM   33  C   UNL     1      43.737 -10.690   8.500  1.00  0.00     0.141 C 
HETATM   34  O   UNL     1      44.874 -10.742  10.943  1.00  0.00    -0.265 OA
HETATM   35  C   UNL     1      43.229 -10.155   7.148  1.00  0.00     0.115 C 
BRANCH  32  36
HETATM   36  C   UNL     1      43.363  -9.311  12.005  1.00  0.00     0.142 A 
HETATM   37  O   UNL     1      42.561  -9.905  12.945  1.00  0.00    -0.317 OA
HETATM   38  C   UNL     1      42.217  -8.950  13.846  1.00  0.00     0.143 A 
HETATM   39  C   UNL     1      42.765  -7.739  13.500  1.00  0.00     0.027 A 
HETATM   40  C   UNL     1      43.488  -7.965  12.306  1.00  0.00     0.045 A 
ENDBRANCH  32  36
ENDBRANCH  25  28
ENDBRANCH   1  22
TORSDOF 8
ENDMDL
MODEL 10
REMARK VINA RESULT:      -7.7      3.840      8.870
REMARK  8 active torsions:
REMARK  status: ('A' for Active; 'I' for Inactive)
REMARK    1  A    between atoms: C_4  and  C_5 
REMARK    2  A    between atoms: C_7  and  C_8 
REMARK    3  A    between atoms: C_9  and  C_10 
REMARK       I    between atoms: C_10  and  N_11 
REMARK    4  A    between atoms: N_11  and  C_12 
REMARK    5  A    between atoms: C_12  and  N_13 
REMARK    6  A    between atoms: N_13  and  C_14 
REMARK    7  A    between atoms: C_17  and  N_18 
REMARK       I    between atoms: N_21  and  C_22 
REMARK    8  A    between atoms: C_22  and  C_23 
ROOT
HETATM    1  N   UNL     1      40.003  -7.279   7.718  1.00  0.00    -0.333 N 
HETATM    2  H   UNL     1      40.724  -6.583   7.869  1.00  0.00     0.168 HD
ENDROOT
BRANCH   1   3
HETATM    3  C   UNL     1      38.729  -6.843   7.990  1.00  0.00     0.179 C 
HETATM    4  S   UNL     1      37.673  -6.104   6.921  1.00  0.00    -0.040 SA
BRANCH   3   5
HETATM    5  N   UNL     1      38.336  -6.924   9.318  1.00  0.00    -0.300 N 
HETATM    6  C   UNL     1      38.986  -7.074  10.530  1.00  0.00     0.247 C 
HETATM    7  O   UNL     1      38.412  -6.796  11.581  1.00  0.00    -0.268 OA
HETATM    8  H   UNL     1      37.333  -6.843   9.441  1.00  0.00     0.171 HD
BRANCH   6   9
HETATM    9  C   UNL     1      40.346  -7.657  10.510  1.00  0.00     0.077 C 
HETATM   10  C   UNL     1      40.543  -8.911  10.945  1.00  0.00     0.042 C 
BRANCH  10  11
HETATM   11  C   UNL     1      41.835  -9.496  10.853  1.00  0.00     0.076 A 
HETATM   12  O   UNL     1      42.468  -9.754   9.658  1.00  0.00    -0.310 OA
HETATM   13  C   UNL     1      43.682 -10.322   9.908  1.00  0.00     0.086 A 
HETATM   14  C   UNL     1      43.848 -10.451  11.269  1.00  0.00     0.041 A 
HETATM   15  C   UNL     1      42.681  -9.913  11.869  1.00  0.00     0.040 A 
BRANCH  13  16
HETATM   16  C   UNL     1      44.491 -10.648   8.737  1.00  0.00    -0.002 A 
HETATM   17  C   UNL     1      44.052 -11.602   7.807  1.00  0.00     0.014 A 
HETATM   18  C   UNL     1      44.834 -11.933   6.694  1.00  0.00     0.001 A 
HETATM   19  C   UNL     1      46.068 -11.318   6.500  1.00  0.00     0.000 A 
HETATM   20  C   UNL     1      46.519 -10.369   7.413  1.00  0.00     0.001 A 
HETATM   21  C   UNL     1      45.734 -10.033   8.519  1.00  0.00     0.014 A 
ENDBRANCH  13  16
ENDBRANCH  10  11
ENDBRANCH   6   9
ENDBRANCH   3   5
ENDBRANCH   1   3
BRANCH   1  22
HETATM   22  C   UNL     1      40.398  -8.414   6.979  1.00  0.00     0.034 A 
HETATM   23  C   UNL     1      39.438  -9.384   6.686  1.00  0.00     0.031 A 
HETATM   24  C   UNL     1      39.776 -10.513   5.925  1.00  0.00     0.026 A 
HETATM   25  C   UNL     1      41.063 -10.675   5.402  1.00  0.00     0.010 A 
HETATM   26  C   UNL     1      42.002  -9.669   5.671  1.00  0.00     0.026 A 
HETATM   27  C   UNL     1      41.680  -8.555   6.454  1.00  0.00     0.031 A 
BRANCH  25  28
HETATM   28  N   UNL     1      41.464 -11.777   4.636  1.00  0.00    -0.280 NA
HETATM   29  C   UNL     1      41.599 -13.020   5.429  1.00  0.00     0.115 C 
HETATM   30  C   UNL     1      41.713 -14.240   4.496  1.00  0.00     0.141 C 
HETATM   31  N   UNL     1      42.756 -14.076   3.468  1.00  0.00    -0.344 N 
HETATM   32  C   UNL     1      43.286 -15.166   2.763  1.00  0.00     0.277 C 
HETATM   33  C   UNL     1      42.679 -12.799   2.744  1.00  0.00     0.141 C 
HETATM   34  O   UNL     1      43.618 -15.043   1.581  1.00  0.00    -0.265 OA
HETATM   35  C   UNL     1      42.583 -11.589   3.691  1.00  0.00     0.115 C 
BRANCH  32  36
HETATM   36  C   UNL     1      43.460 -16.435   3.451  1.00  0.00     0.142 A 
HETATM   37  O   UNL     1      43.926 -16.480   4.740  1.00  0.00    -0.317 OA
HETATM   38  C   UNL     1      44.043 -17.788   5.084  1.00  0.00     0.143 A 
HETATM   39  C   UNL     1      43.680 -18.598   4.035  1.00  0.00     0.027 A 
HETATM   40  C   UNL     1      43.321 -17.730   2.978  1.00  0.00     0.045 A 
ENDBRANCH  32  36
ENDBRANCH  25  28
ENDBRANCH   1  22
TORSDOF 8
ENDMDL
