MODEL 1
REMARK VINA RESULT:      -9.6      0.000      0.000
REMARK  4 active torsions:
REMARK  status: ('A' for Active; 'I' for Inactive)
REMARK    1  A    between atoms: C_5  and  N_6 
REMARK       I    between atoms: N_6  and  C_7 
REMARK    2  A    between atoms: C_7  and  C_8 
REMARK    3  A    between atoms: C_12  and  C_13 
REMARK    4  A    between atoms: N_24  and  C_25 
ROOT
HETATM    1  N   UNL     1      42.332 -11.322   6.018  1.00  0.00    -0.348 N 
HETATM    2  C   UNL     1      42.742 -11.725   4.774  1.00  0.00     0.257 C 
HETATM    3  O   UNL     1      42.927 -10.929   3.855  1.00  0.00    -0.267 OA
HETATM    4  H   UNL     1      42.238 -12.016   6.760  1.00  0.00     0.163 HD
ENDROOT
BRANCH   1   5
HETATM    5  C   UNL     1      42.124  -9.923   6.321  1.00  0.00     0.122 C 
HETATM    6  C   UNL     1      43.409  -9.212   6.804  1.00  0.00     0.039 C 
HETATM    7  C   UNL     1      43.735  -9.385   8.318  1.00  0.00    -0.040 C 
HETATM    8  C   UNL     1      44.947  -8.491   8.656  1.00  0.00     0.015 C 
HETATM    9  C   UNL     1      44.128 -10.842   8.638  1.00  0.00     0.015 C 
HETATM   10  C   UNL     1      42.535  -8.957   9.221  1.00  0.00     0.069 C 
HETATM   11  C   UNL     1      41.220  -9.374   8.642  1.00  0.00     0.047 A 
HETATM   12  C   UNL     1      41.044  -9.792   7.333  1.00  0.00     0.008 A 
HETATM   13  N   UNL     1      39.947  -9.235   9.192  1.00  0.00    -0.238 N 
HETATM   14  C   UNL     1      39.663  -9.944   7.185  1.00  0.00     0.150 A 
HETATM   15  N   UNL     1      38.996  -9.598   8.280  1.00  0.00    -0.179 NA
BRANCH  13  16
HETATM   16  C   UNL     1      39.517  -8.740  10.464  1.00  0.00     0.058 A 
HETATM   17  C   UNL     1      38.727  -7.575  10.497  1.00  0.00     0.031 A 
HETATM   18  C   UNL     1      38.306  -7.027  11.712  1.00  0.00     0.002 A 
HETATM   19  C   UNL     1      38.646  -7.648  12.909  1.00  0.00     0.000 A 
HETATM   20  C   UNL     1      39.402  -8.817  12.890  1.00  0.00     0.002 A 
HETATM   21  C   UNL     1      39.837  -9.361  11.675  1.00  0.00     0.031 A 
ENDBRANCH  13  16
ENDBRANCH   1   5
BRANCH   2  22
HETATM   22  C   UNL     1      42.943 -13.189   4.580  1.00  0.00     0.100 A 
HETATM   23  C   UNL     1      43.183 -14.162   5.690  1.00  0.00     0.261 A 
HETATM   24  O   UNL     1      43.244 -13.809   6.865  1.00  0.00    -0.267 OA
HETATM   25  N   UNL     1      43.334 -15.482   5.327  1.00  0.00    -0.322 N 
HETATM   26  C   UNL     1      43.271 -15.938   4.033  1.00  0.00     0.045 A 
HETATM   27  H   UNL     1      43.486 -16.142   6.080  1.00  0.00     0.169 HD
HETATM   28  C   UNL     1      43.063 -15.071   3.031  1.00  0.00     0.031 A 
HETATM   29  C   UNL     1      42.899 -13.665   3.320  1.00  0.00     0.025 A 
BRANCH  26  30
HETATM   30  C   UNL     1      43.437 -17.371   3.777  1.00  0.00    -0.009 A 
HETATM   31  C   UNL     1      43.971 -18.208   4.764  1.00  0.00     0.013 A 
HETATM   32  C   UNL     1      44.162 -19.567   4.507  1.00  0.00     0.001 A 
HETATM   33  C   UNL     1      43.820 -20.097   3.263  1.00  0.00     0.000 A 
HETATM   34  C   UNL     1      43.285 -19.271   2.276  1.00  0.00     0.001 A 
HETATM   35  C   UNL     1      43.095 -17.911   2.531  1.00  0.00     0.013 A 
ENDBRANCH  26  30
ENDBRANCH   2  22
TORSDOF 4
ENDMDL
MODEL 2
REMARK VINA RESULT:      -9.3      6.501      9.260
REMARK  4 active torsions:
REMARK  status: ('A' for Active; 'I' for Inactive)
REMARK    1  A    between atoms: C_5  and  N_6 
REMARK       I    between atoms: N_6  and  C_7 
REMARK    2  A    between atoms: C_7  and  C_8 
REMARK    3  A    between atoms: C_12  and  C_13 
REMARK    4  A    between atoms: N_24  and  C_25 
ROOT
HETATM    1  N   UNL     1      40.077 -12.831   0.975  1.00  0.00    -0.348 N 
HETATM    2  C   UNL     1      40.566 -13.093   2.229  1.00  0.00     0.257 C 
HETATM    3  O   UNL     1      40.522 -12.264   3.136  1.00  0.00    -0.267 OA
HETATM    4  H   UNL     1      40.094 -13.568   0.270  1.00  0.00     0.163 HD
ENDROOT
BRANCH   1   5
HETATM    5  C   UNL     1      39.453 -11.564   0.666  1.00  0.00     0.122 C 
HETATM    6  C   UNL     1      38.198 -11.709  -0.226  1.00  0.00     0.039 C 
HETATM    7  C   UNL     1      38.478 -11.827  -1.754  1.00  0.00    -0.040 C 
HETATM    8  C   UNL     1      37.125 -11.806  -2.496  1.00  0.00     0.015 C 
HETATM    9  C   UNL     1      39.172 -13.164  -2.090  1.00  0.00     0.015 C 
HETATM   10  C   UNL     1      39.349 -10.640  -2.275  1.00  0.00     0.069 C 
HETATM   11  C   UNL     1      40.419 -10.259  -1.302  1.00  0.00     0.047 A 
HETATM   12  C   UNL     1      40.448 -10.667   0.022  1.00  0.00     0.008 A 
HETATM   13  N   UNL     1      41.425  -9.306  -1.449  1.00  0.00    -0.238 N 
HETATM   14  C   UNL     1      41.521  -9.977   0.590  1.00  0.00     0.150 A 
HETATM   15  N   UNL     1      42.102  -9.148  -0.272  1.00  0.00    -0.179 NA
BRANCH  13  16
HETATM   16  C   UNL     1      41.787  -8.478  -2.558  1.00  0.00     0.058 A 
HETATM   17  C   UNL     1      42.821  -7.538  -2.383  1.00  0.00     0.031 A 
HETATM   18  C   UNL     1      43.195  -6.680  -3.421  1.00  0.00     0.002 A 
HETATM   19  C   UNL     1      42.559  -6.764  -4.654  1.00  0.00     0.000 A 
HETATM   20  C   UNL     1      41.555  -7.708  -4.851  1.00  0.00     0.002 A 
HETATM   21  C   UNL     1      41.169  -8.560  -3.809  1.00  0.00     0.031 A 
ENDBRANCH  13  16
ENDBRANCH   1   5
BRANCH   2  22
HETATM   22  C   UNL     1      41.171 -14.438   2.439  1.00  0.00     0.100 A 
HETATM   23  C   UNL     1      40.713 -15.687   1.757  1.00  0.00     0.261 A 
HETATM   24  O   UNL     1      39.774 -15.689   0.964  1.00  0.00    -0.267 OA
HETATM   25  N   UNL     1      41.399 -16.842   2.062  1.00  0.00    -0.322 N 
HETATM   26  C   UNL     1      42.457 -16.902   2.935  1.00  0.00     0.045 A 
HETATM   27  H   UNL     1      41.094 -17.685   1.591  1.00  0.00     0.169 HD
HETATM   28  C   UNL     1      42.870 -15.788   3.557  1.00  0.00     0.031 A 
HETATM   29  C   UNL     1      42.204 -14.531   3.299  1.00  0.00     0.025 A 
BRANCH  26  30
HETATM   30  C   UNL     1      43.112 -18.191   3.168  1.00  0.00    -0.009 A 
HETATM   31  C   UNL     1      43.052 -19.200   2.199  1.00  0.00     0.013 A 
HETATM   32  C   UNL     1      43.645 -20.441   2.437  1.00  0.00     0.001 A 
HETATM   33  C   UNL     1      44.303 -20.680   3.644  1.00  0.00     0.000 A 
HETATM   34  C   UNL     1      44.370 -19.680   4.612  1.00  0.00     0.001 A 
HETATM   35  C   UNL     1      43.775 -18.439   4.376  1.00  0.00     0.013 A 
ENDBRANCH  26  30
ENDBRANCH   2  22
TORSDOF 4
ENDMDL
MODEL 3
REMARK VINA RESULT:      -9.2      2.447      3.279
REMARK  4 active torsions:
REMARK  status: ('A' for Active; 'I' for Inactive)
REMARK    1  A    between atoms: C_5  and  N_6 
REMARK       I    between atoms: N_6  and  C_7 
REMARK    2  A    between atoms: C_7  and  C_8 
REMARK    3  A    between atoms: C_12  and  C_13 
REMARK    4  A    between atoms: N_24  and  C_25 
ROOT
HETATM    1  N   UNL     1      40.292 -10.301   7.421  1.00  0.00    -0.348 N 
HETATM    2  C   UNL     1      39.507 -11.212   6.762  1.00  0.00     0.257 C 
HETATM    3  O   UNL     1      38.280 -11.127   6.742  1.00  0.00    -0.267 OA
HETATM    4  H   UNL     1      41.307 -10.389   7.367  1.00  0.00     0.163 HD
ENDROOT
BRANCH   1   5
HETATM    5  C   UNL     1      39.709  -9.169   8.105  1.00  0.00     0.122 C 
HETATM    6  C   UNL     1      40.158  -7.810   7.517  1.00  0.00     0.039 C 
HETATM    7  C   UNL     1      41.532  -7.284   8.032  1.00  0.00    -0.040 C 
HETATM    8  C   UNL     1      41.745  -5.863   7.471  1.00  0.00     0.015 C 
HETATM    9  C   UNL     1      42.690  -8.166   7.522  1.00  0.00     0.015 C 
HETATM   10  C   UNL     1      41.576  -7.215   9.592  1.00  0.00     0.069 C 
HETATM   11  C   UNL     1      40.888  -8.380  10.226  1.00  0.00     0.047 A 
HETATM   12  C   UNL     1      40.038  -9.244   9.553  1.00  0.00     0.008 A 
HETATM   13  N   UNL     1      40.788  -8.698  11.580  1.00  0.00    -0.238 N 
HETATM   14  C   UNL     1      39.517 -10.083  10.540  1.00  0.00     0.150 A 
HETATM   15  N   UNL     1      39.943  -9.757  11.756  1.00  0.00    -0.179 NA
BRANCH  13  16
HETATM   16  C   UNL     1      41.354  -8.079  12.739  1.00  0.00     0.058 A 
HETATM   17  C   UNL     1      40.482  -7.600  13.736  1.00  0.00     0.031 A 
HETATM   18  C   UNL     1      40.975  -6.957  14.874  1.00  0.00     0.002 A 
HETATM   19  C   UNL     1      42.347  -6.803  15.044  1.00  0.00     0.000 A 
HETATM   20  C   UNL     1      43.223  -7.297  14.081  1.00  0.00     0.002 A 
HETATM   21  C   UNL     1      42.730  -7.931  12.933  1.00  0.00     0.031 A 
ENDBRANCH  13  16
ENDBRANCH   1   5
BRANCH   2  22
HETATM   22  C   UNL     1      40.215 -12.328   6.075  1.00  0.00     0.100 A 
HETATM   23  C   UNL     1      41.324 -12.145   5.089  1.00  0.00     0.261 A 
HETATM   24  O   UNL     1      41.729 -11.032   4.763  1.00  0.00    -0.267 OA
HETATM   25  N   UNL     1      41.874 -13.293   4.562  1.00  0.00    -0.322 N 
HETATM   26  C   UNL     1      41.469 -14.563   4.891  1.00  0.00     0.045 A 
HETATM   27  H   UNL     1      42.632 -13.168   3.902  1.00  0.00     0.169 HD
HETATM   28  C   UNL     1      40.469 -14.736   5.768  1.00  0.00     0.031 A 
HETATM   29  C   UNL     1      39.831 -13.586   6.368  1.00  0.00     0.025 A 
BRANCH  26  30
HETATM   30  C   UNL     1      42.141 -15.706   4.268  1.00  0.00    -0.009 A 
HETATM   31  C   UNL     1      43.222 -16.324   4.907  1.00  0.00     0.013 A 
HETATM   32  C   UNL     1      43.885 -17.390   4.296  1.00  0.00     0.001 A 
HETATM   33  C   UNL     1      43.470 -17.845   3.045  1.00  0.00     0.000 A 
HETATM   34  C   UNL     1      42.392 -17.238   2.404  1.00  0.00     0.001 A 
HETATM   35  C   UNL     1      41.729 -16.170   3.012  1.00  0.00     0.013 A 
ENDBRANCH  26  30
ENDBRANCH   2  22
TORSDOF 4
ENDMDL
MODEL 4
REMARK VINA RESULT:      -8.8      5.702     10.187
REMARK  4 active torsions:
REMARK  status: ('A' for Active; 'I' for Inactive)
REMARK    1  A    between atoms: C_5  and  N_6 
REMARK       I    between atoms: N_6  and  C_7 
REMARK    2  A    between atoms: C_7  and  C_8 
REMARK    3  A    between atoms: C_12  and  C_13 
REMARK    4  A    between atoms: N_24  and  C_25 
ROOT
HETATM    1  N   UNL     1      40.736 -12.041   1.635  1.00  0.00    -0.348 N 
HETATM    2  C   UNL     1      39.757 -11.634   0.766  1.00  0.00     0.257 C 
HETATM    3  O   UNL     1      38.582 -11.975   0.896  1.00  0.00    -0.267 OA
HETATM    4  H   UNL     1      41.687 -11.692   1.511  1.00  0.00     0.163 HD
ENDROOT
BRANCH   1   5
HETATM    5  C   UNL     1      40.425 -12.872   2.776  1.00  0.00     0.122 C 
HETATM    6  C   UNL     1      41.010 -12.326   4.100  1.00  0.00     0.039 C 
HETATM    7  C   UNL     1      42.500 -12.693   4.369  1.00  0.00    -0.040 C 
HETATM    8  C   UNL     1      42.869 -12.209   5.787  1.00  0.00     0.015 C 
HETATM    9  C   UNL     1      43.437 -11.976   3.374  1.00  0.00     0.015 C 
HETATM   10  C   UNL     1      42.739 -14.235   4.293  1.00  0.00     0.069 C 
HETATM   11  C   UNL     1      41.955 -14.871   3.190  1.00  0.00     0.047 A 
HETATM   12  C   UNL     1      40.906 -14.256   2.525  1.00  0.00     0.008 A 
HETATM   13  N   UNL     1      41.967 -16.201   2.772  1.00  0.00    -0.238 N 
HETATM   14  C   UNL     1      40.379 -15.242   1.688  1.00  0.00     0.150 A 
HETATM   15  N   UNL     1      40.991 -16.412   1.839  1.00  0.00    -0.179 NA
BRANCH  13  16
HETATM   16  C   UNL     1      42.755 -17.317   3.196  1.00  0.00     0.058 A 
HETATM   17  C   UNL     1      43.191 -17.360   4.534  1.00  0.00     0.031 A 
HETATM   18  C   UNL     1      43.991 -18.408   4.996  1.00  0.00     0.002 A 
HETATM   19  C   UNL     1      44.349 -19.440   4.134  1.00  0.00     0.000 A 
HETATM   20  C   UNL     1      43.903 -19.425   2.816  1.00  0.00     0.002 A 
HETATM   21  C   UNL     1      43.111 -18.369   2.347  1.00  0.00     0.031 A 
ENDBRANCH  13  16
ENDBRANCH   1   5
BRANCH   2  22
HETATM   22  C   UNL     1      40.189 -10.764  -0.364  1.00  0.00     0.100 A 
HETATM   23  C   UNL     1      41.396  -9.883  -0.337  1.00  0.00     0.261 A 
HETATM   24  O   UNL     1      42.126  -9.807   0.648  1.00  0.00    -0.267 OA
HETATM   25  N   UNL     1      41.651  -9.156  -1.479  1.00  0.00    -0.322 N 
HETATM   26  C   UNL     1      40.877  -9.202  -2.612  1.00  0.00     0.045 A 
HETATM   27  H   UNL     1      42.475  -8.567  -1.464  1.00  0.00     0.169 HD
HETATM   28  C   UNL     1      39.788  -9.984  -2.642  1.00  0.00     0.031 A 
HETATM   29  C   UNL     1      39.442 -10.779  -1.486  1.00  0.00     0.025 A 
BRANCH  26  30
HETATM   30  C   UNL     1      41.261  -8.388  -3.768  1.00  0.00    -0.009 A 
HETATM   31  C   UNL     1      42.443  -7.637  -3.742  1.00  0.00     0.013 A 
HETATM   32  C   UNL     1      42.789  -6.833  -4.829  1.00  0.00     0.001 A 
HETATM   33  C   UNL     1      41.959  -6.776  -5.948  1.00  0.00     0.000 A 
HETATM   34  C   UNL     1      40.782  -7.522  -5.983  1.00  0.00     0.001 A 
HETATM   35  C   UNL     1      40.433  -8.325  -4.895  1.00  0.00     0.013 A 
ENDBRANCH  26  30
ENDBRANCH   2  22
TORSDOF 4
ENDMDL
MODEL 5
REMARK VINA RESULT:      -8.6     18.945     21.646
REMARK  4 active torsions:
REMARK  status: ('A' for Active; 'I' for Inactive)
REMARK    1  A    between atoms: C_5  and  N_6 
REMARK       I    between atoms: N_6  and  C_7 
REMARK    2  A    between atoms: C_7  and  C_8 
REMARK    3  A    between atoms: C_12  and  C_13 
REMARK    4  A    between atoms: N_24  and  C_25 
ROOT
HETATM    1  N   UNL     1      46.709 -29.749   1.982  1.00  0.00    -0.348 N 
HETATM    2  C   UNL     1      47.715 -29.030   2.574  1.00  0.00     0.257 C 
HETATM    3  O   UNL     1      47.812 -27.811   2.445  1.00  0.00    -0.267 OA
HETATM    4  H   UNL     1      46.645 -30.752   2.158  1.00  0.00     0.163 HD
ENDROOT
BRANCH   1   5
HETATM    5  C   UNL     1      45.687 -29.097   1.195  1.00  0.00     0.122 C 
HETATM    6  C   UNL     1      44.261 -29.600   1.519  1.00  0.00     0.039 C 
HETATM    7  C   UNL     1      43.838 -30.913   0.792  1.00  0.00    -0.040 C 
HETATM    8  C   UNL     1      42.351 -31.180   1.105  1.00  0.00     0.015 C 
HETATM    9  C   UNL     1      44.647 -32.120   1.312  1.00  0.00     0.015 C 
HETATM   10  C   UNL     1      44.008 -30.797  -0.756  1.00  0.00     0.069 C 
HETATM   11  C   UNL     1      45.247 -30.050  -1.131  1.00  0.00     0.047 A 
HETATM   12  C   UNL     1      45.987 -29.276  -0.250  1.00  0.00     0.008 A 
HETATM   13  N   UNL     1      45.766 -29.813  -2.403  1.00  0.00    -0.238 N 
HETATM   14  C   UNL     1      46.959 -28.659  -1.039  1.00  0.00     0.150 A 
HETATM   15  N   UNL     1      46.829 -28.957  -2.327  1.00  0.00    -0.179 NA
BRANCH  13  16
HETATM   16  C   UNL     1      45.339 -30.255  -3.694  1.00  0.00     0.058 A 
HETATM   17  C   UNL     1      46.159 -31.157  -4.399  1.00  0.00     0.031 A 
HETATM   18  C   UNL     1      45.810 -31.598  -5.678  1.00  0.00     0.002 A 
HETATM   19  C   UNL     1      44.625 -31.163  -6.262  1.00  0.00     0.000 A 
HETATM   20  C   UNL     1      43.789 -30.293  -5.566  1.00  0.00     0.002 A 
HETATM   21  C   UNL     1      44.144 -29.840  -4.289  1.00  0.00     0.031 A 
ENDBRANCH  13  16
ENDBRANCH   1   5
BRANCH   2  22
HETATM   22  C   UNL     1      48.703 -29.803   3.377  1.00  0.00     0.100 A 
HETATM   23  C   UNL     1      48.341 -30.757   4.470  1.00  0.00     0.261 A 
HETATM   24  O   UNL     1      47.174 -30.965   4.794  1.00  0.00    -0.267 OA
HETATM   25  N   UNL     1      49.386 -31.396   5.099  1.00  0.00    -0.322 N 
HETATM   26  C   UNL     1      50.708 -31.210   4.779  1.00  0.00     0.045 A 
HETATM   27  H   UNL     1      49.139 -32.050   5.832  1.00  0.00     0.169 HD
HETATM   28  C   UNL     1      51.043 -30.351   3.806  1.00  0.00     0.031 A 
HETATM   29  C   UNL     1      50.009 -29.632   3.095  1.00  0.00     0.025 A 
BRANCH  26  30
HETATM   30  C   UNL     1      51.729 -31.959   5.517  1.00  0.00    -0.009 A 
HETATM   31  C   UNL     1      51.963 -33.309   5.227  1.00  0.00     0.013 A 
HETATM   32  C   UNL     1      52.910 -34.031   5.955  1.00  0.00     0.001 A 
HETATM   33  C   UNL     1      53.630 -33.408   6.974  1.00  0.00     0.000 A 
HETATM   34  C   UNL     1      53.406 -32.064   7.266  1.00  0.00     0.001 A 
HETATM   35  C   UNL     1      52.457 -31.341   6.541  1.00  0.00     0.013 A 
ENDBRANCH  26  30
ENDBRANCH   2  22
TORSDOF 4
ENDMDL
MODEL 6
REMARK VINA RESULT:      -8.6      2.651     10.257
REMARK  4 active torsions:
REMARK  status: ('A' for Active; 'I' for Inactive)
REMARK    1  A    between atoms: C_5  and  N_6 
REMARK       I    between atoms: N_6  and  C_7 
REMARK    2  A    between atoms: C_7  and  C_8 
REMARK    3  A    between atoms: C_12  and  C_13 
REMARK    4  A    between atoms: N_24  and  C_25 
ROOT
HETATM    1  N   UNL     1      42.117  -9.661   7.924  1.00  0.00    -0.348 N 
HETATM    2  C   UNL     1      42.898  -8.828   8.682  1.00  0.00     0.257 C 
HETATM    3  O   UNL     1      43.974  -8.390   8.278  1.00  0.00    -0.267 OA
HETATM    4  H   UNL     1      41.211  -9.959   8.285  1.00  0.00     0.163 HD
ENDROOT
BRANCH   1   5
HETATM    5  C   UNL     1      42.512 -10.044   6.586  1.00  0.00     0.122 C 
HETATM    6  C   UNL     1      41.362  -9.926   5.559  1.00  0.00     0.039 C 
HETATM    7  C   UNL     1      40.388 -11.142   5.510  1.00  0.00    -0.040 C 
HETATM    8  C   UNL     1      39.409 -10.929   4.336  1.00  0.00     0.015 C 
HETATM    9  C   UNL     1      39.552 -11.237   6.803  1.00  0.00     0.015 C 
HETATM   10  C   UNL     1      41.152 -12.485   5.281  1.00  0.00     0.069 C 
HETATM   11  C   UNL     1      42.440 -12.535   6.038  1.00  0.00     0.047 A 
HETATM   12  C   UNL     1      43.051 -11.429   6.608  1.00  0.00     0.008 A 
HETATM   13  N   UNL     1      43.347 -13.588   6.140  1.00  0.00    -0.238 N 
HETATM   14  C   UNL     1      44.278 -11.897   7.082  1.00  0.00     0.150 A 
HETATM   15  N   UNL     1      44.475 -13.179   6.795  1.00  0.00    -0.179 NA
BRANCH  13  16
HETATM   16  C   UNL     1      43.299 -14.927   5.638  1.00  0.00     0.058 A 
HETATM   17  C   UNL     1      43.547 -15.987   6.531  1.00  0.00     0.031 A 
HETATM   18  C   UNL     1      43.547 -17.313   6.091  1.00  0.00     0.002 A 
HETATM   19  C   UNL     1      43.276 -17.601   4.757  1.00  0.00     0.000 A 
HETATM   20  C   UNL     1      43.001 -16.565   3.868  1.00  0.00     0.002 A 
HETATM   21  C   UNL     1      43.014 -15.234   4.305  1.00  0.00     0.031 A 
ENDBRANCH  13  16
ENDBRANCH   1   5
BRANCH   2  22
HETATM   22  C   UNL     1      42.385  -8.484  10.038  1.00  0.00     0.100 A 
HETATM   23  C   UNL     1      40.953  -8.183  10.347  1.00  0.00     0.261 A 
HETATM   24  O   UNL     1      40.084  -8.188   9.479  1.00  0.00    -0.267 OA
HETATM   25  N   UNL     1      40.655  -7.899  11.662  1.00  0.00    -0.322 N 
HETATM   26  C   UNL     1      41.580  -7.883  12.676  1.00  0.00     0.045 A 
HETATM   27  H   UNL     1      39.683  -7.705  11.872  1.00  0.00     0.169 HD
HETATM   28  C   UNL     1      42.868  -8.144  12.406  1.00  0.00     0.031 A 
HETATM   29  C   UNL     1      43.271  -8.449  11.052  1.00  0.00     0.025 A 
BRANCH  26  30
HETATM   30  C   UNL     1      41.136  -7.575  14.037  1.00  0.00    -0.009 A 
HETATM   31  C   UNL     1      40.092  -6.666  14.251  1.00  0.00     0.013 A 
HETATM   32  C   UNL     1      39.693  -6.346  15.550  1.00  0.00     0.001 A 
HETATM   33  C   UNL     1      40.332  -6.933  16.642  1.00  0.00     0.000 A 
HETATM   34  C   UNL     1      41.370  -7.842  16.437  1.00  0.00     0.001 A 
HETATM   35  C   UNL     1      41.772  -8.161  15.138  1.00  0.00     0.013 A 
ENDBRANCH  26  30
ENDBRANCH   2  22
TORSDOF 4
ENDMDL
MODEL 7
REMARK VINA RESULT:      -8.5     18.548     21.526
REMARK  4 active torsions:
REMARK  status: ('A' for Active; 'I' for Inactive)
REMARK    1  A    between atoms: C_5  and  N_6 
REMARK       I    between atoms: N_6  and  C_7 
REMARK    2  A    between atoms: C_7  and  C_8 
REMARK    3  A    between atoms: C_12  and  C_13 
REMARK    4  A    between atoms: N_24  and  C_25 
ROOT
HETATM    1  N   UNL     1      44.723 -29.177   0.716  1.00  0.00    -0.348 N 
HETATM    2  C   UNL     1      44.547 -29.205   2.075  1.00  0.00     0.257 C 
HETATM    3  O   UNL     1      45.327 -28.653   2.849  1.00  0.00    -0.267 OA
HETATM    4  H   UNL     1      44.022 -29.610   0.114  1.00  0.00     0.163 HD
ENDROOT
BRANCH   1   5
HETATM    5  C   UNL     1      45.831 -28.463   0.120  1.00  0.00     0.122 C 
HETATM    6  C   UNL     1      45.464 -27.790  -1.223  1.00  0.00     0.039 C 
HETATM    7  C   UNL     1      45.526 -28.721  -2.472  1.00  0.00    -0.040 C 
HETATM    8  C   UNL     1      45.288 -27.859  -3.729  1.00  0.00     0.015 C 
HETATM    9  C   UNL     1      44.415 -29.790  -2.423  1.00  0.00     0.015 C 
HETATM   10  C   UNL     1      46.917 -29.419  -2.604  1.00  0.00     0.069 C 
HETATM   11  C   UNL     1      47.463 -29.839  -1.277  1.00  0.00     0.047 A 
HETATM   12  C   UNL     1      46.978 -29.392  -0.058  1.00  0.00     0.008 A 
HETATM   13  N   UNL     1      48.632 -30.549  -1.004  1.00  0.00    -0.238 N 
HETATM   14  C   UNL     1      47.854 -29.915   0.895  1.00  0.00     0.150 A 
HETATM   15  N   UNL     1      48.855 -30.593   0.343  1.00  0.00    -0.179 NA
BRANCH  13  16
HETATM   16  C   UNL     1      49.599 -31.143  -1.874  1.00  0.00     0.058 A 
HETATM   17  C   UNL     1      50.932 -30.694  -1.800  1.00  0.00     0.031 A 
HETATM   18  C   UNL     1      51.914 -31.214  -2.648  1.00  0.00     0.002 A 
HETATM   19  C   UNL     1      51.584 -32.207  -3.564  1.00  0.00     0.000 A 
HETATM   20  C   UNL     1      50.277 -32.682  -3.629  1.00  0.00     0.002 A 
HETATM   21  C   UNL     1      49.288 -32.152  -2.789  1.00  0.00     0.031 A 
ENDBRANCH  13  16
ENDBRANCH   1   5
BRANCH   2  22
HETATM   22  C   UNL     1      43.361 -29.955   2.577  1.00  0.00     0.100 A 
HETATM   23  C   UNL     1      41.972 -29.792   2.048  1.00  0.00     0.261 A 
HETATM   24  O   UNL     1      41.707 -29.000   1.147  1.00  0.00    -0.267 OA
HETATM   25  N   UNL     1      40.999 -30.578   2.623  1.00  0.00    -0.322 N 
HETATM   26  C   UNL     1      41.234 -31.484   3.628  1.00  0.00     0.045 A 
HETATM   27  H   UNL     1      40.060 -30.475   2.256  1.00  0.00     0.169 HD
HETATM   28  C   UNL     1      42.475 -31.631   4.114  1.00  0.00     0.031 A 
HETATM   29  C   UNL     1      43.558 -30.842   3.572  1.00  0.00     0.025 A 
BRANCH  26  30
HETATM   30  C   UNL     1      40.113 -32.270   4.150  1.00  0.00    -0.009 A 
HETATM   31  C   UNL     1      39.262 -32.955   3.275  1.00  0.00     0.013 A 
HETATM   32  C   UNL     1      38.174 -33.675   3.771  1.00  0.00     0.001 A 
HETATM   33  C   UNL     1      37.931 -33.715   5.144  1.00  0.00     0.000 A 
HETATM   34  C   UNL     1      38.776 -33.039   6.022  1.00  0.00     0.001 A 
HETATM   35  C   UNL     1      39.863 -32.316   5.527  1.00  0.00     0.013 A 
ENDBRANCH  26  30
ENDBRANCH   2  22
TORSDOF 4
ENDMDL
MODEL 8
REMARK VINA RESULT:      -8.5     18.663     21.408
REMARK  4 active torsions:
REMARK  status: ('A' for Active; 'I' for Inactive)
REMARK    1  A    between atoms: C_5  and  N_6 
REMARK       I    between atoms: N_6  and  C_7 
REMARK    2  A    between atoms: C_7  and  C_8 
REMARK    3  A    between atoms: C_12  and  C_13 
REMARK    4  A    between atoms: N_24  and  C_25 
ROOT
HETATM    1  N   UNL     1      43.494 -29.932   1.158  1.00  0.00    -0.348 N 
HETATM    2  C   UNL     1      42.284 -29.441   1.576  1.00  0.00     0.257 C 
HETATM    3  O   UNL     1      41.830 -28.375   1.161  1.00  0.00    -0.267 OA
HETATM    4  H   UNL     1      43.805 -30.843   1.496  1.00  0.00     0.163 HD
ENDROOT
BRANCH   1   5
HETATM    5  C   UNL     1      44.288 -29.227   0.176  1.00  0.00     0.122 C 
HETATM    6  C   UNL     1      43.959 -29.639  -1.277  1.00  0.00     0.039 C 
HETATM    7  C   UNL     1      44.672 -30.931  -1.779  1.00  0.00    -0.040 C 
HETATM    8  C   UNL     1      44.357 -31.105  -3.279  1.00  0.00     0.015 C 
HETATM    9  C   UNL     1      44.140 -32.180  -1.044  1.00  0.00     0.015 C 
HETATM   10  C   UNL     1      46.221 -30.842  -1.603  1.00  0.00     0.069 C 
HETATM   11  C   UNL     1      46.603 -30.175  -0.321  1.00  0.00     0.047 A 
HETATM   12  C   UNL     1      45.731 -29.438   0.464  1.00  0.00     0.008 A 
HETATM   13  N   UNL     1      47.878 -29.983   0.211  1.00  0.00    -0.238 N 
HETATM   14  C   UNL     1      46.526 -28.889   1.472  1.00  0.00     0.150 A 
HETATM   15  N   UNL     1      47.811 -29.191   1.323  1.00  0.00    -0.179 NA
BRANCH  13  16
HETATM   16  C   UNL     1      49.165 -30.412  -0.243  1.00  0.00     0.058 A 
HETATM   17  C   UNL     1      49.597 -29.998  -1.518  1.00  0.00     0.031 A 
HETATM   18  C   UNL     1      50.831 -30.413  -2.027  1.00  0.00     0.002 A 
HETATM   19  C   UNL     1      51.659 -31.227  -1.263  1.00  0.00     0.000 A 
HETATM   20  C   UNL     1      51.257 -31.620   0.011  1.00  0.00     0.002 A 
HETATM   21  C   UNL     1      50.016 -31.216   0.519  1.00  0.00     0.031 A 
ENDBRANCH  13  16
ENDBRANCH   1   5
BRANCH   2  22
HETATM   22  C   UNL     1      41.543 -30.259   2.576  1.00  0.00     0.100 A 
HETATM   23  C   UNL     1      40.515 -31.288   2.230  1.00  0.00     0.261 A 
HETATM   24  O   UNL     1      40.196 -31.526   1.068  1.00  0.00    -0.267 OA
HETATM   25  N   UNL     1      39.939 -31.961   3.286  1.00  0.00    -0.322 N 
HETATM   26  C   UNL     1      40.256 -31.743   4.603  1.00  0.00     0.045 A 
HETATM   27  H   UNL     1      39.250 -32.665   3.050  1.00  0.00     0.169 HD
HETATM   28  C   UNL     1      41.172 -30.817   4.924  1.00  0.00     0.031 A 
HETATM   29  C   UNL     1      41.824 -30.060   3.879  1.00  0.00     0.025 A 
BRANCH  26  30
HETATM   30  C   UNL     1      39.580 -32.532   5.636  1.00  0.00    -0.009 A 
HETATM   31  C   UNL     1      38.361 -33.164   5.357  1.00  0.00     0.013 A 
HETATM   32  C   UNL     1      37.699 -33.886   6.352  1.00  0.00     0.001 A 
HETATM   33  C   UNL     1      38.251 -33.982   7.629  1.00  0.00     0.000 A 
HETATM   34  C   UNL     1      39.465 -33.360   7.913  1.00  0.00     0.001 A 
HETATM   35  C   UNL     1      40.127 -32.635   6.920  1.00  0.00     0.013 A 
ENDBRANCH  26  30
ENDBRANCH   2  22
TORSDOF 4
ENDMDL
MODEL 9
REMARK VINA RESULT:      -7.9     18.623     21.281
REMARK  4 active torsions:
REMARK  status: ('A' for Active; 'I' for Inactive)
REMARK    1  A    between atoms: C_5  and  N_6 
REMARK       I    between atoms: N_6  and  C_7 
REMARK    2  A    between atoms: C_7  and  C_8 
REMARK    3  A    between atoms: C_12  and  C_13 
REMARK    4  A    between atoms: N_24  and  C_25 
ROOT
HETATM    1  N   UNL     1      41.609 -31.822   3.864  1.00  0.00    -0.348 N 
HETATM    2  C   UNL     1      40.669 -32.020   4.842  1.00  0.00     0.257 C 
HETATM    3  O   UNL     1      39.482 -32.209   4.582  1.00  0.00    -0.267 OA
HETATM    4  H   UNL     1      42.589 -31.717   4.129  1.00  0.00     0.163 HD
ENDROOT
BRANCH   1   5
HETATM    5  C   UNL     1      41.250 -31.858   2.464  1.00  0.00     0.122 C 
HETATM    6  C   UNL     1      41.533 -33.226   1.801  1.00  0.00     0.039 C 
HETATM    7  C   UNL     1      43.001 -33.442   1.324  1.00  0.00    -0.040 C 
HETATM    8  C   UNL     1      43.067 -34.778   0.554  1.00  0.00     0.015 C 
HETATM    9  C   UNL     1      43.964 -33.548   2.524  1.00  0.00     0.015 C 
HETATM   10  C   UNL     1      43.474 -32.297   0.373  1.00  0.00     0.069 C 
HETATM   11  C   UNL     1      42.975 -30.958   0.814  1.00  0.00     0.047 A 
HETATM   12  C   UNL     1      41.964 -30.771   1.743  1.00  0.00     0.008 A 
HETATM   13  N   UNL     1      43.250 -29.706   0.266  1.00  0.00    -0.238 N 
HETATM   14  C   UNL     1      41.727 -29.395   1.748  1.00  0.00     0.150 A 
HETATM   15  N   UNL     1      42.475 -28.750   0.860  1.00  0.00    -0.179 NA
BRANCH  13  16
HETATM   16  C   UNL     1      44.119 -29.312  -0.800  1.00  0.00     0.058 A 
HETATM   17  C   UNL     1      45.238 -28.515  -0.491  1.00  0.00     0.031 A 
HETATM   18  C   UNL     1      46.104 -28.072  -1.495  1.00  0.00     0.002 A 
HETATM   19  C   UNL     1      45.878 -28.438  -2.817  1.00  0.00     0.000 A 
HETATM   20  C   UNL     1      44.792 -29.250  -3.134  1.00  0.00     0.002 A 
HETATM   21  C   UNL     1      43.916 -29.684  -2.131  1.00  0.00     0.031 A 
ENDBRANCH  13  16
ENDBRANCH   1   5
BRANCH   2  22
HETATM   22  C   UNL     1      41.155 -31.981   6.250  1.00  0.00     0.100 A 
HETATM   23  C   UNL     1      40.267 -32.051   7.451  1.00  0.00     0.261 A 
HETATM   24  O   UNL     1      39.045 -32.137   7.355  1.00  0.00    -0.267 OA
HETATM   25  N   UNL     1      40.891 -32.015   8.679  1.00  0.00    -0.322 N 
HETATM   26  C   UNL     1      42.250 -31.926   8.851  1.00  0.00     0.045 A 
HETATM   27  H   UNL     1      40.290 -32.073   9.492  1.00  0.00     0.169 HD
HETATM   28  C   UNL     1      43.053 -31.855   7.779  1.00  0.00     0.031 A 
HETATM   29  C   UNL     1      42.483 -31.882   6.451  1.00  0.00     0.025 A 
BRANCH  26  30
HETATM   30  C   UNL     1      42.793 -31.907  10.211  1.00  0.00    -0.009 A 
HETATM   31  C   UNL     1      42.594 -30.793  11.036  1.00  0.00     0.013 A 
HETATM   32  C   UNL     1      43.143 -30.760  12.319  1.00  0.00     0.001 A 
HETATM   33  C   UNL     1      43.892 -31.841  12.786  1.00  0.00     0.000 A 
HETATM   34  C   UNL     1      44.091 -32.955  11.973  1.00  0.00     0.001 A 
HETATM   35  C   UNL     1      43.545 -32.988  10.688  1.00  0.00     0.013 A 
ENDBRANCH  26  30
ENDBRANCH   2  22
TORSDOF 4
ENDMDL
MODEL 10
REMARK VINA RESULT:      -7.8      3.668      5.423
REMARK  4 active torsions:
REMARK  status: ('A' for Active; 'I' for Inactive)
REMARK    1  A    between atoms: C_5  and  N_6 
REMARK       I    between atoms: N_6  and  C_7 
REMARK    2  A    between atoms: C_7  and  C_8 
REMARK    3  A    between atoms: C_12  and  C_13 
REMARK    4  A    between atoms: N_24  and  C_25 
ROOT
HETATM    1  N   UNL     1      40.264 -10.720   5.227  1.00  0.00    -0.348 N 
HETATM    2  C   UNL     1      40.082 -11.903   5.895  1.00  0.00     0.257 C 
HETATM    3  O   UNL     1      39.351 -11.993   6.880  1.00  0.00    -0.267 OA
HETATM    4  H   UNL     1      40.843 -10.707   4.387  1.00  0.00     0.163 HD
ENDROOT
BRANCH   1   5
HETATM    5  C   UNL     1      39.574  -9.516   5.635  1.00  0.00     0.122 C 
HETATM    6  C   UNL     1      38.404  -9.142   4.696  1.00  0.00     0.039 C 
HETATM    7  C   UNL     1      38.807  -8.352   3.415  1.00  0.00    -0.040 C 
HETATM    8  C   UNL     1      37.517  -7.929   2.682  1.00  0.00     0.015 C 
HETATM    9  C   UNL     1      39.620  -9.240   2.449  1.00  0.00     0.015 C 
HETATM   10  C   UNL     1      39.626  -7.068   3.760  1.00  0.00     0.069 C 
HETATM   11  C   UNL     1      40.588  -7.301   4.881  1.00  0.00     0.047 A 
HETATM   12  C   UNL     1      40.548  -8.397   5.728  1.00  0.00     0.008 A 
HETATM   13  N   UNL     1      41.531  -6.421   5.412  1.00  0.00    -0.238 N 
HETATM   14  C   UNL     1      41.521  -8.143   6.696  1.00  0.00     0.150 A 
HETATM   15  N   UNL     1      42.103  -6.960   6.530  1.00  0.00    -0.179 NA
BRANCH  13  16
HETATM   16  C   UNL     1      41.915  -5.100   5.021  1.00  0.00     0.058 A 
HETATM   17  C   UNL     1      42.659  -4.941   3.835  1.00  0.00     0.031 A 
HETATM   18  C   UNL     1      43.090  -3.678   3.421  1.00  0.00     0.002 A 
HETATM   19  C   UNL     1      42.764  -2.553   4.171  1.00  0.00     0.000 A 
HETATM   20  C   UNL     1      42.005  -2.691   5.330  1.00  0.00     0.002 A 
HETATM   21  C   UNL     1      41.583  -3.958   5.754  1.00  0.00     0.031 A 
ENDBRANCH  13  16
ENDBRANCH   1   5
BRANCH   2  22
HETATM   22  C   UNL     1      40.828 -13.083   5.375  1.00  0.00     0.100 A 
HETATM   23  C   UNL     1      42.178 -13.013   4.735  1.00  0.00     0.261 A 
HETATM   24  O   UNL     1      42.771 -11.949   4.580  1.00  0.00    -0.267 OA
HETATM   25  N   UNL     1      42.725 -14.209   4.324  1.00  0.00    -0.322 N 
HETATM   26  C   UNL     1      42.114 -15.429   4.474  1.00  0.00     0.045 A 
HETATM   27  H   UNL     1      43.644 -14.162   3.900  1.00  0.00     0.169 HD
HETATM   28  C   UNL     1      40.901 -15.500   5.041  1.00  0.00     0.031 A 
HETATM   29  C   UNL     1      40.249 -14.293   5.498  1.00  0.00     0.025 A 
BRANCH  26  30
HETATM   30  C   UNL     1      42.806 -16.632   4.005  1.00  0.00    -0.009 A 
HETATM   31  C   UNL     1      42.466 -17.208   2.775  1.00  0.00     0.013 A 
HETATM   32  C   UNL     1      43.101 -18.375   2.345  1.00  0.00     0.001 A 
HETATM   33  C   UNL     1      44.079 -18.971   3.140  1.00  0.00     0.000 A 
HETATM   34  C   UNL     1      44.426 -18.401   4.364  1.00  0.00     0.001 A 
HETATM   35  C   UNL     1      43.790 -17.236   4.797  1.00  0.00     0.013 A 
ENDBRANCH  26  30
ENDBRANCH   2  22
TORSDOF 4
ENDMDL
