MODEL 1
REMARK VINA RESULT:      -7.3      0.000      0.000
REMARK  10 active torsions:
REMARK  status: ('A' for Active; 'I' for Inactive)
REMARK    1  A    between atoms: C_2  and  C_3 
REMARK    2  A    between atoms: C_3  and  N_4 
REMARK    3  A    between atoms: C_7  and  C_8 
REMARK       I    between atoms: C_8  and  N_9 
REMARK    4  A    between atoms: N_9  and  C_10 
REMARK    5  A    between atoms: C_10  and  C_11 
REMARK    6  A    between atoms: C_11  and  O_12 
REMARK    7  A    between atoms: C_11  and  C_13 
REMARK    8  A    between atoms: C_13  and  O_14 
REMARK    9  A    between atoms: O_14  and  C_15 
REMARK   10  A    between atoms: C_23  and  C_24 
ROOT
HETATM    1  C   UNL     1      41.561 -12.994   4.457  1.00  0.00     0.255 C 
HETATM    2  N   UNL     1      42.854 -13.427   4.651  1.00  0.00    -0.354 N 
HETATM    3  O   UNL     1      40.762 -12.840   5.373  1.00  0.00    -0.268 OA
HETATM    4  H   UNL     1      43.462 -13.419   3.840  1.00  0.00     0.162 HD
ENDROOT
BRANCH   2   5
HETATM    5  C   UNL     1      43.489 -13.486   5.964  1.00  0.00     0.156 C 
BRANCH   5   6
HETATM    6  C   UNL     1      43.552 -14.863   6.657  1.00  0.00     0.160 C 
BRANCH   6   7
HETATM    7  O   UNL     1      42.912 -14.806   7.938  1.00  0.00    -0.392 OA
HETATM    8  H   UNL     1      42.038 -15.248   7.849  1.00  0.00     0.210 HD
ENDBRANCH   6   7
BRANCH   6   9
HETATM    9  C   UNL     1      42.971 -15.994   5.799  1.00  0.00     0.209 C 
BRANCH   9  10
HETATM   10  O   UNL     1      43.802 -16.187   4.649  1.00  0.00    -0.349 OA
BRANCH  10  11
HETATM   11  C   UNL     1      43.715 -17.416   4.051  1.00  0.00     0.069 A 
HETATM   12  C   UNL     1      44.093 -18.496   4.855  1.00  0.00     0.043 A 
HETATM   13  C   UNL     1      44.047 -19.807   4.366  1.00  0.00    -0.059 A 
HETATM   14  C   UNL     1      44.453 -20.964   5.230  1.00  0.00     0.048 C 
HETATM   15  C   UNL     1      43.650 -20.025   3.043  1.00  0.00     0.007 A 
HETATM   16  C   UNL     1      43.288 -18.949   2.232  1.00  0.00     0.003 A 
HETATM   17  C   UNL     1      43.320 -17.647   2.733  1.00  0.00     0.037 A 
ENDBRANCH  10  11
ENDBRANCH   9  10
ENDBRANCH   6   9
ENDBRANCH   5   6
ENDBRANCH   2   5
BRANCH   1  18
HETATM   18  C   UNL     1      41.245 -12.686   3.080  1.00  0.00     0.075 A 
HETATM   19  C   UNL     1      41.734 -11.567   2.370  1.00  0.00     0.158 A 
HETATM   20  N   UNL     1      41.250 -11.485   1.135  1.00  0.00    -0.183 NA
HETATM   21  N   UNL     1      40.386 -12.520   1.057  1.00  0.00    -0.268 N 
HETATM   22  C   UNL     1      40.414 -13.333   2.174  1.00  0.00     0.052 A 
BRANCH  21  23
HETATM   23  C   UNL     1      39.519 -12.614  -0.117  1.00  0.00     0.106 C 
HETATM   24  C   UNL     1      39.162 -11.212  -0.623  1.00  0.00     0.034 C 
BRANCH  23  25
HETATM   25  C   UNL     1      40.126 -13.464  -1.248  1.00  0.00     0.022 C 
HETATM   26  C   UNL     1      39.197 -14.577  -1.715  1.00  0.00     0.007 C 
ENDBRANCH  23  25
ENDBRANCH  21  23
BRANCH  22  27
HETATM   27  C   UNL     1      39.667 -14.663   2.303  1.00  0.00     0.038 A 
HETATM   28  C   UNL     1      40.229 -15.880   1.601  1.00  0.00     0.011 A 
HETATM   29  C   UNL     1      40.230 -15.821   3.090  1.00  0.00     0.011 A 
ENDBRANCH  22  27
ENDBRANCH   1  18
TORSDOF 10
ENDMDL
MODEL 2
REMARK VINA RESULT:      -7.1      3.553      6.482
REMARK  10 active torsions:
REMARK  status: ('A' for Active; 'I' for Inactive)
REMARK    1  A    between atoms: C_2  and  C_3 
REMARK    2  A    between atoms: C_3  and  N_4 
REMARK    3  A    between atoms: C_7  and  C_8 
REMARK       I    between atoms: C_8  and  N_9 
REMARK    4  A    between atoms: N_9  and  C_10 
REMARK    5  A    between atoms: C_10  and  C_11 
REMARK    6  A    between atoms: C_11  and  O_12 
REMARK    7  A    between atoms: C_11  and  C_13 
REMARK    8  A    between atoms: C_13  and  O_14 
REMARK    9  A    between atoms: O_14  and  C_15 
REMARK   10  A    between atoms: C_23  and  C_24 
ROOT
HETATM    1  C   UNL     1      41.889 -11.780   5.938  1.00  0.00     0.255 C 
HETATM    2  N   UNL     1      41.630 -13.051   6.400  1.00  0.00    -0.354 N 
HETATM    3  O   UNL     1      41.802 -11.467   4.756  1.00  0.00    -0.268 OA
HETATM    4  H   UNL     1      41.630 -13.176   7.406  1.00  0.00     0.162 HD
ENDROOT
BRANCH   2   5
HETATM    5  C   UNL     1      40.973 -14.077   5.597  1.00  0.00     0.156 C 
BRANCH   5   6
HETATM    6  C   UNL     1      40.685 -15.431   6.277  1.00  0.00     0.160 C 
BRANCH   6   7
HETATM    7  O   UNL     1      39.882 -16.258   5.425  1.00  0.00    -0.392 OA
HETATM    8  H   UNL     1      40.444 -17.008   5.131  1.00  0.00     0.210 HD
ENDBRANCH   6   7
BRANCH   6   9
HETATM    9  C   UNL     1      41.959 -16.164   6.718  1.00  0.00     0.209 C 
BRANCH   9  10
HETATM   10  O   UNL     1      43.011 -15.878   5.790  1.00  0.00    -0.349 OA
BRANCH  10  11
HETATM   11  C   UNL     1      43.265 -16.849   4.859  1.00  0.00     0.069 A 
HETATM   12  C   UNL     1      43.676 -18.079   5.381  1.00  0.00     0.043 A 
HETATM   13  C   UNL     1      43.963 -19.159   4.535  1.00  0.00    -0.059 A 
HETATM   14  C   UNL     1      44.404 -20.478   5.097  1.00  0.00     0.048 C 
HETATM   15  C   UNL     1      43.868 -18.981   3.152  1.00  0.00     0.007 A 
HETATM   16  C   UNL     1      43.475 -17.751   2.626  1.00  0.00     0.003 A 
HETATM   17  C   UNL     1      43.173 -16.685   3.476  1.00  0.00     0.037 A 
ENDBRANCH  10  11
ENDBRANCH   9  10
ENDBRANCH   6   9
ENDBRANCH   5   6
ENDBRANCH   2   5
BRANCH   1  18
HETATM   18  C   UNL     1      42.222 -10.833   6.979  1.00  0.00     0.075 A 
HETATM   19  C   UNL     1      41.337  -9.864   7.502  1.00  0.00     0.158 A 
HETATM   20  N   UNL     1      41.905  -9.081   8.413  1.00  0.00    -0.183 NA
HETATM   21  N   UNL     1      43.190  -9.495   8.438  1.00  0.00    -0.268 N 
HETATM   22  C   UNL     1      43.414 -10.614   7.657  1.00  0.00     0.052 A 
BRANCH  21  23
HETATM   23  C   UNL     1      44.159  -8.709   9.201  1.00  0.00     0.106 C 
HETATM   24  C   UNL     1      43.982  -7.216   8.898  1.00  0.00     0.034 C 
BRANCH  23  25
HETATM   25  C   UNL     1      44.087  -8.970  10.717  1.00  0.00     0.022 C 
HETATM   26  C   UNL     1      43.966 -10.449  11.057  1.00  0.00     0.007 C 
ENDBRANCH  23  25
ENDBRANCH  21  23
BRANCH  22  27
HETATM   27  C   UNL     1      44.726 -11.399   7.615  1.00  0.00     0.038 A 
HETATM   28  C   UNL     1      45.571 -11.331   6.360  1.00  0.00     0.011 A 
HETATM   29  C   UNL     1      46.069 -10.710   7.619  1.00  0.00     0.011 A 
ENDBRANCH  22  27
ENDBRANCH   1  18
TORSDOF 10
ENDMDL
MODEL 3
REMARK VINA RESULT:      -7.0      2.121      6.839
REMARK  10 active torsions:
REMARK  status: ('A' for Active; 'I' for Inactive)
REMARK    1  A    between atoms: C_2  and  C_3 
REMARK    2  A    between atoms: C_3  and  N_4 
REMARK    3  A    between atoms: C_7  and  C_8 
REMARK       I    between atoms: C_8  and  N_9 
REMARK    4  A    between atoms: N_9  and  C_10 
REMARK    5  A    between atoms: C_10  and  C_11 
REMARK    6  A    between atoms: C_11  and  O_12 
REMARK    7  A    between atoms: C_11  and  C_13 
REMARK    8  A    between atoms: C_13  and  O_14 
REMARK    9  A    between atoms: O_14  and  C_15 
REMARK   10  A    between atoms: C_23  and  C_24 
ROOT
HETATM    1  C   UNL     1      41.728 -14.129   4.774  1.00  0.00     0.255 C 
HETATM    2  N   UNL     1      40.395 -13.992   4.455  1.00  0.00    -0.354 N 
HETATM    3  O   UNL     1      42.451 -13.178   5.048  1.00  0.00    -0.268 OA
HETATM    4  H   UNL     1      39.865 -14.850   4.348  1.00  0.00     0.162 HD
ENDROOT
BRANCH   2   5
HETATM    5  C   UNL     1      39.643 -12.761   4.672  1.00  0.00     0.156 C 
BRANCH   5   6
HETATM    6  C   UNL     1      39.582 -11.755   3.504  1.00  0.00     0.160 C 
BRANCH   6   7
HETATM    7  O   UNL     1      40.891 -11.250   3.211  1.00  0.00    -0.392 OA
HETATM    8  H   UNL     1      41.136 -11.574   2.315  1.00  0.00     0.210 HD
ENDBRANCH   6   7
BRANCH   6   9
HETATM    9  C   UNL     1      38.919 -12.334   2.248  1.00  0.00     0.209 C 
BRANCH   9  10
HETATM   10  O   UNL     1      39.801 -13.288   1.646  1.00  0.00    -0.349 OA
BRANCH  10  11
HETATM   11  C   UNL     1      40.049 -13.110   0.312  1.00  0.00     0.069 A 
HETATM   12  C   UNL     1      39.421 -14.026  -0.537  1.00  0.00     0.043 A 
HETATM   13  C   UNL     1      39.589 -13.953  -1.926  1.00  0.00    -0.059 A 
HETATM   14  C   UNL     1      38.914 -14.936  -2.835  1.00  0.00     0.048 C 
HETATM   15  C   UNL     1      40.428 -12.967  -2.456  1.00  0.00     0.007 A 
HETATM   16  C   UNL     1      41.071 -12.062  -1.613  1.00  0.00     0.003 A 
HETATM   17  C   UNL     1      40.883 -12.131  -0.231  1.00  0.00     0.037 A 
ENDBRANCH  10  11
ENDBRANCH   9  10
ENDBRANCH   6   9
ENDBRANCH   5   6
ENDBRANCH   2   5
BRANCH   1  18
HETATM   18  C   UNL     1      42.187 -15.500   4.806  1.00  0.00     0.075 A 
HETATM   19  C   UNL     1      41.951 -16.405   5.864  1.00  0.00     0.158 A 
HETATM   20  N   UNL     1      42.525 -17.588   5.672  1.00  0.00    -0.183 NA
HETATM   21  N   UNL     1      43.200 -17.435   4.512  1.00  0.00    -0.268 N 
HETATM   22  C   UNL     1      42.954 -16.221   3.900  1.00  0.00     0.052 A 
BRANCH  21  23
HETATM   23  C   UNL     1      44.117 -18.496   4.096  1.00  0.00     0.106 C 
HETATM   24  C   UNL     1      44.152 -19.607   5.153  1.00  0.00     0.034 C 
BRANCH  23  25
HETATM   25  C   UNL     1      43.781 -19.073   2.709  1.00  0.00     0.022 C 
HETATM   26  C   UNL     1      43.690 -20.594   2.707  1.00  0.00     0.007 C 
ENDBRANCH  23  25
ENDBRANCH  21  23
BRANCH  22  27
HETATM   27  C   UNL     1      43.448 -15.833   2.504  1.00  0.00     0.038 A 
HETATM   28  C   UNL     1      42.448 -15.791   1.368  1.00  0.00     0.011 A 
HETATM   29  C   UNL     1      43.064 -14.525   1.857  1.00  0.00     0.011 A 
ENDBRANCH  22  27
ENDBRANCH   1  18
TORSDOF 10
ENDMDL
MODEL 4
REMARK VINA RESULT:      -6.9      3.310      6.415
REMARK  10 active torsions:
REMARK  status: ('A' for Active; 'I' for Inactive)
REMARK    1  A    between atoms: C_2  and  C_3 
REMARK    2  A    between atoms: C_3  and  N_4 
REMARK    3  A    between atoms: C_7  and  C_8 
REMARK       I    between atoms: C_8  and  N_9 
REMARK    4  A    between atoms: N_9  and  C_10 
REMARK    5  A    between atoms: C_10  and  C_11 
REMARK    6  A    between atoms: C_11  and  O_12 
REMARK    7  A    between atoms: C_11  and  C_13 
REMARK    8  A    between atoms: C_13  and  O_14 
REMARK    9  A    between atoms: O_14  and  C_15 
REMARK   10  A    between atoms: C_23  and  C_24 
ROOT
HETATM    1  C   UNL     1      42.511 -11.501   4.373  1.00  0.00     0.255 C 
HETATM    2  N   UNL     1      41.492 -12.419   4.254  1.00  0.00    -0.354 N 
HETATM    3  O   UNL     1      43.354 -11.320   3.502  1.00  0.00    -0.268 OA
HETATM    4  H   UNL     1      40.789 -12.414   4.985  1.00  0.00     0.162 HD
ENDROOT
BRANCH   2   5
HETATM    5  C   UNL     1      41.144 -13.070   2.995  1.00  0.00     0.156 C 
BRANCH   5   6
HETATM    6  C   UNL     1      40.470 -14.455   3.079  1.00  0.00     0.160 C 
BRANCH   6   7
HETATM    7  O   UNL     1      39.079 -14.354   2.748  1.00  0.00    -0.392 OA
HETATM    8  H   UNL     1      38.971 -14.687   1.830  1.00  0.00     0.210 HD
ENDBRANCH   6   7
BRANCH   6   9
HETATM    9  C   UNL     1      41.167 -15.515   2.216  1.00  0.00     0.209 C 
BRANCH   9  10
HETATM   10  O   UNL     1      42.575 -15.478   2.472  1.00  0.00    -0.349 OA
BRANCH  10  11
HETATM   11  C   UNL     1      43.102 -16.593   3.066  1.00  0.00     0.069 A 
HETATM   12  C   UNL     1      43.046 -17.759   2.297  1.00  0.00     0.043 A 
HETATM   13  C   UNL     1      43.555 -18.969   2.787  1.00  0.00    -0.059 A 
HETATM   14  C   UNL     1      43.493 -20.219   1.961  1.00  0.00     0.048 C 
HETATM   15  C   UNL     1      44.092 -19.006   4.078  1.00  0.00     0.007 A 
HETATM   16  C   UNL     1      44.135 -17.849   4.855  1.00  0.00     0.003 A 
HETATM   17  C   UNL     1      43.642 -16.644   4.352  1.00  0.00     0.037 A 
ENDBRANCH  10  11
ENDBRANCH   9  10
ENDBRANCH   6   9
ENDBRANCH   5   6
ENDBRANCH   2   5
BRANCH   1  18
HETATM   18  C   UNL     1      42.468 -10.730   5.596  1.00  0.00     0.075 A 
HETATM   19  C   UNL     1      41.479  -9.774   5.914  1.00  0.00     0.158 A 
HETATM   20  N   UNL     1      41.698  -9.167   7.076  1.00  0.00    -0.183 NA
HETATM   21  N   UNL     1      42.876  -9.680   7.491  1.00  0.00    -0.268 N 
HETATM   22  C   UNL     1      43.339 -10.699   6.679  1.00  0.00     0.052 A 
BRANCH  21  23
HETATM   23  C   UNL     1      43.522  -9.082   8.659  1.00  0.00     0.106 C 
HETATM   24  C   UNL     1      43.367  -7.557   8.623  1.00  0.00     0.034 C 
BRANCH  23  25
HETATM   25  C   UNL     1      43.004  -9.652   9.992  1.00  0.00     0.022 C 
HETATM   26  C   UNL     1      43.901  -9.303  11.172  1.00  0.00     0.007 C 
ENDBRANCH  23  25
ENDBRANCH  21  23
BRANCH  22  27
HETATM   27  C   UNL     1      44.557 -11.572   6.985  1.00  0.00     0.038 A 
HETATM   28  C   UNL     1      45.822 -11.359   6.180  1.00  0.00     0.011 A 
HETATM   29  C   UNL     1      45.801 -11.010   7.628  1.00  0.00     0.011 A 
ENDBRANCH  22  27
ENDBRANCH   1  18
TORSDOF 10
ENDMDL
MODEL 5
REMARK VINA RESULT:      -6.9      3.574      6.664
REMARK  10 active torsions:
REMARK  status: ('A' for Active; 'I' for Inactive)
REMARK    1  A    between atoms: C_2  and  C_3 
REMARK    2  A    between atoms: C_3  and  N_4 
REMARK    3  A    between atoms: C_7  and  C_8 
REMARK       I    between atoms: C_8  and  N_9 
REMARK    4  A    between atoms: N_9  and  C_10 
REMARK    5  A    between atoms: C_10  and  C_11 
REMARK    6  A    between atoms: C_11  and  O_12 
REMARK    7  A    between atoms: C_11  and  C_13 
REMARK    8  A    between atoms: C_13  and  O_14 
REMARK    9  A    between atoms: O_14  and  C_15 
REMARK   10  A    between atoms: C_23  and  C_24 
ROOT
HETATM    1  C   UNL     1      44.141 -11.771   5.422  1.00  0.00     0.255 C 
HETATM    2  N   UNL     1      43.458 -12.967   5.423  1.00  0.00    -0.354 N 
HETATM    3  O   UNL     1      44.563 -11.242   4.400  1.00  0.00    -0.268 OA
HETATM    4  H   UNL     1      43.062 -13.262   6.309  1.00  0.00     0.162 HD
ENDROOT
BRANCH   2   5
HETATM    5  C   UNL     1      42.930 -13.589   4.213  1.00  0.00     0.156 C 
BRANCH   5   6
HETATM    6  C   UNL     1      42.279 -14.980   4.359  1.00  0.00     0.160 C 
BRANCH   6   7
HETATM    7  O   UNL     1      40.975 -14.985   3.765  1.00  0.00    -0.392 OA
HETATM    8  H   UNL     1      40.563 -15.854   3.971  1.00  0.00     0.210 HD
ENDBRANCH   6   7
BRANCH   6   9
HETATM    9  C   UNL     1      43.148 -16.111   3.794  1.00  0.00     0.209 C 
BRANCH   9  10
HETATM   10  O   UNL     1      43.678 -16.883   4.877  1.00  0.00    -0.349 OA
BRANCH  10  11
HETATM   11  C   UNL     1      43.767 -18.232   4.660  1.00  0.00     0.069 A 
HETATM   12  C   UNL     1      43.658 -18.627   3.323  1.00  0.00     0.043 A 
HETATM   13  C   UNL     1      43.736 -19.978   2.964  1.00  0.00    -0.059 A 
HETATM   14  C   UNL     1      43.619 -20.400   1.529  1.00  0.00     0.048 C 
HETATM   15  C   UNL     1      43.891 -20.939   3.968  1.00  0.00     0.007 A 
HETATM   16  C   UNL     1      43.982 -20.552   5.304  1.00  0.00     0.003 A 
HETATM   17  C   UNL     1      43.922 -19.201   5.652  1.00  0.00     0.037 A 
ENDBRANCH  10  11
ENDBRANCH   9  10
ENDBRANCH   6   9
ENDBRANCH   5   6
ENDBRANCH   2   5
BRANCH   1  18
HETATM   18  C   UNL     1      44.270 -11.167   6.730  1.00  0.00     0.075 A 
HETATM   19  C   UNL     1      45.430 -11.223   7.533  1.00  0.00     0.158 A 
HETATM   20  N   UNL     1      45.272 -10.634   8.714  1.00  0.00    -0.183 NA
HETATM   21  N   UNL     1      43.978 -10.248   8.711  1.00  0.00    -0.268 N 
HETATM   22  C   UNL     1      43.351 -10.463   7.498  1.00  0.00     0.052 A 
BRANCH  21  23
HETATM   23  C   UNL     1      43.403  -9.732   9.954  1.00  0.00     0.106 C 
HETATM   24  C   UNL     1      43.641 -10.726  11.096  1.00  0.00     0.034 C 
BRANCH  23  25
HETATM   25  C   UNL     1      43.932  -8.335  10.328  1.00  0.00     0.022 C 
HETATM   26  C   UNL     1      43.562  -7.270   9.304  1.00  0.00     0.007 C 
ENDBRANCH  23  25
ENDBRANCH  21  23
BRANCH  22  27
HETATM   27  C   UNL     1      41.942  -9.983   7.147  1.00  0.00     0.038 A 
HETATM   28  C   UNL     1      41.771  -8.584   6.593  1.00  0.00     0.011 A 
HETATM   29  C   UNL     1      41.506  -9.762   5.719  1.00  0.00     0.011 A 
ENDBRANCH  22  27
ENDBRANCH   1  18
TORSDOF 10
ENDMDL
MODEL 6
REMARK VINA RESULT:      -6.9      2.331      5.594
REMARK  10 active torsions:
REMARK  status: ('A' for Active; 'I' for Inactive)
REMARK    1  A    between atoms: C_2  and  C_3 
REMARK    2  A    between atoms: C_3  and  N_4 
REMARK    3  A    between atoms: C_7  and  C_8 
REMARK       I    between atoms: C_8  and  N_9 
REMARK    4  A    between atoms: N_9  and  C_10 
REMARK    5  A    between atoms: C_10  and  C_11 
REMARK    6  A    between atoms: C_11  and  O_12 
REMARK    7  A    between atoms: C_11  and  C_13 
REMARK    8  A    between atoms: C_13  and  O_14 
REMARK    9  A    between atoms: O_14  and  C_15 
REMARK   10  A    between atoms: C_23  and  C_24 
ROOT
HETATM    1  C   UNL     1      41.274 -12.049   3.552  1.00  0.00     0.255 C 
HETATM    2  N   UNL     1      41.932 -13.013   2.823  1.00  0.00    -0.354 N 
HETATM    3  O   UNL     1      40.157 -11.635   3.262  1.00  0.00    -0.268 OA
HETATM    4  H   UNL     1      42.803 -13.359   3.209  1.00  0.00     0.162 HD
ENDROOT
BRANCH   2   5
HETATM    5  C   UNL     1      41.279 -13.831   1.805  1.00  0.00     0.156 C 
BRANCH   5   6
HETATM    6  C   UNL     1      40.249 -14.874   2.290  1.00  0.00     0.160 C 
BRANCH   6   7
HETATM    7  O   UNL     1      39.526 -15.416   1.178  1.00  0.00    -0.392 OA
HETATM    8  H   UNL     1      39.194 -16.301   1.447  1.00  0.00     0.210 HD
ENDBRANCH   6   7
BRANCH   6   9
HETATM    9  C   UNL     1      40.877 -15.988   3.137  1.00  0.00     0.209 C 
BRANCH   9  10
HETATM   10  O   UNL     1      42.300 -15.961   2.972  1.00  0.00    -0.349 OA
BRANCH  10  11
HETATM   11  C   UNL     1      42.965 -17.095   3.352  1.00  0.00     0.069 A 
HETATM   12  C   UNL     1      42.950 -18.135   2.418  1.00  0.00     0.043 A 
HETATM   13  C   UNL     1      43.597 -19.348   2.682  1.00  0.00    -0.059 A 
HETATM   14  C   UNL     1      43.579 -20.462   1.678  1.00  0.00     0.048 C 
HETATM   15  C   UNL     1      44.235 -19.524   3.914  1.00  0.00     0.007 A 
HETATM   16  C   UNL     1      44.238 -18.496   4.857  1.00  0.00     0.003 A 
HETATM   17  C   UNL     1      43.605 -17.283   4.578  1.00  0.00     0.037 A 
ENDBRANCH  10  11
ENDBRANCH   9  10
ENDBRANCH   6   9
ENDBRANCH   5   6
ENDBRANCH   2   5
BRANCH   1  18
HETATM   18  C   UNL     1      41.996 -11.605   4.724  1.00  0.00     0.075 A 
HETATM   19  C   UNL     1      42.109 -10.260   5.141  1.00  0.00     0.158 A 
HETATM   20  N   UNL     1      42.871 -10.114   6.220  1.00  0.00    -0.183 NA
HETATM   21  N   UNL     1      43.316 -11.364   6.473  1.00  0.00    -0.268 N 
HETATM   22  C   UNL     1      42.742 -12.318   5.654  1.00  0.00     0.052 A 
BRANCH  21  23
HETATM   23  C   UNL     1      44.350 -11.541   7.492  1.00  0.00     0.106 C 
HETATM   24  C   UNL     1      45.731 -11.240   6.897  1.00  0.00     0.034 C 
BRANCH  23  25
HETATM   25  C   UNL     1      44.104 -10.695   8.754  1.00  0.00     0.022 C 
HETATM   26  C   UNL     1      45.372 -10.040   9.284  1.00  0.00     0.007 C 
ENDBRANCH  23  25
ENDBRANCH  21  23
BRANCH  22  27
HETATM   27  C   UNL     1      42.929 -13.828   5.812  1.00  0.00     0.038 A 
HETATM   28  C   UNL     1      43.061 -14.400   7.208  1.00  0.00     0.011 A 
HETATM   29  C   UNL     1      41.851 -14.709   6.395  1.00  0.00     0.011 A 
ENDBRANCH  22  27
ENDBRANCH   1  18
TORSDOF 10
ENDMDL
MODEL 7
REMARK VINA RESULT:      -6.8      1.628      2.756
REMARK  10 active torsions:
REMARK  status: ('A' for Active; 'I' for Inactive)
REMARK    1  A    between atoms: C_2  and  C_3 
REMARK    2  A    between atoms: C_3  and  N_4 
REMARK    3  A    between atoms: C_7  and  C_8 
REMARK       I    between atoms: C_8  and  N_9 
REMARK    4  A    between atoms: N_9  and  C_10 
REMARK    5  A    between atoms: C_10  and  C_11 
REMARK    6  A    between atoms: C_11  and  O_12 
REMARK    7  A    between atoms: C_11  and  C_13 
REMARK    8  A    between atoms: C_13  and  O_14 
REMARK    9  A    between atoms: O_14  and  C_15 
REMARK   10  A    between atoms: C_23  and  C_24 
ROOT
HETATM    1  C   UNL     1      41.870 -13.430   2.959  1.00  0.00     0.255 C 
HETATM    2  N   UNL     1      41.084 -13.413   4.089  1.00  0.00    -0.354 N 
HETATM    3  O   UNL     1      43.090 -13.324   2.989  1.00  0.00    -0.268 OA
HETATM    4  H   UNL     1      40.099 -13.613   3.961  1.00  0.00     0.162 HD
ENDROOT
BRANCH   2   5
HETATM    5  C   UNL     1      41.623 -13.541   5.440  1.00  0.00     0.156 C 
BRANCH   5   6
HETATM    6  C   UNL     1      40.963 -14.583   6.368  1.00  0.00     0.160 C 
BRANCH   6   7
HETATM    7  O   UNL     1      39.538 -14.432   6.354  1.00  0.00    -0.392 OA
HETATM    8  H   UNL     1      39.320 -13.775   5.656  1.00  0.00     0.210 HD
ENDBRANCH   6   7
BRANCH   6   9
HETATM    9  C   UNL     1      41.369 -16.024   6.037  1.00  0.00     0.209 C 
BRANCH   9  10
HETATM   10  O   UNL     1      42.738 -16.043   5.615  1.00  0.00    -0.349 OA
BRANCH  10  11
HETATM   11  C   UNL     1      43.070 -17.019   4.714  1.00  0.00     0.069 A 
HETATM   12  C   UNL     1      43.575 -18.197   5.273  1.00  0.00     0.043 A 
HETATM   13  C   UNL     1      43.950 -19.274   4.460  1.00  0.00    -0.059 A 
HETATM   14  C   UNL     1      44.492 -20.537   5.061  1.00  0.00     0.048 C 
HETATM   15  C   UNL     1      43.845 -19.147   3.072  1.00  0.00     0.007 A 
HETATM   16  C   UNL     1      43.358 -17.967   2.509  1.00  0.00     0.003 A 
HETATM   17  C   UNL     1      42.970 -16.904   3.327  1.00  0.00     0.037 A 
ENDBRANCH  10  11
ENDBRANCH   9  10
ENDBRANCH   6   9
ENDBRANCH   5   6
ENDBRANCH   2   5
BRANCH   1  18
HETATM   18  C   UNL     1      41.130 -13.636   1.733  1.00  0.00     0.075 A 
HETATM   19  C   UNL     1      40.832 -14.897   1.173  1.00  0.00     0.158 A 
HETATM   20  N   UNL     1      40.187 -14.811   0.014  1.00  0.00    -0.183 NA
HETATM   21  N   UNL     1      40.121 -13.483  -0.221  1.00  0.00    -0.268 N 
HETATM   22  C   UNL     1      40.595 -12.723   0.833  1.00  0.00     0.052 A 
BRANCH  21  23
HETATM   23  C   UNL     1      39.640 -13.030  -1.526  1.00  0.00     0.106 C 
HETATM   24  C   UNL     1      40.227 -13.909  -2.637  1.00  0.00     0.034 C 
BRANCH  23  25
HETATM   25  C   UNL     1      38.104 -12.984  -1.620  1.00  0.00     0.022 C 
HETATM   26  C   UNL     1      37.529 -11.626  -1.243  1.00  0.00     0.007 C 
ENDBRANCH  23  25
ENDBRANCH  21  23
BRANCH  22  27
HETATM   27  C   UNL     1      40.499 -11.199   0.920  1.00  0.00     0.038 A 
HETATM   28  C   UNL     1      41.735 -10.417   1.312  1.00  0.00     0.011 A 
HETATM   29  C   UNL     1      41.193 -10.297  -0.071  1.00  0.00     0.011 A 
ENDBRANCH  22  27
ENDBRANCH   1  18
TORSDOF 10
ENDMDL
MODEL 8
REMARK VINA RESULT:      -6.8      1.607      2.540
REMARK  10 active torsions:
REMARK  status: ('A' for Active; 'I' for Inactive)
REMARK    1  A    between atoms: C_2  and  C_3 
REMARK    2  A    between atoms: C_3  and  N_4 
REMARK    3  A    between atoms: C_7  and  C_8 
REMARK       I    between atoms: C_8  and  N_9 
REMARK    4  A    between atoms: N_9  and  C_10 
REMARK    5  A    between atoms: C_10  and  C_11 
REMARK    6  A    between atoms: C_11  and  O_12 
REMARK    7  A    between atoms: C_11  and  C_13 
REMARK    8  A    between atoms: C_13  and  O_14 
REMARK    9  A    between atoms: O_14  and  C_15 
REMARK   10  A    between atoms: C_23  and  C_24 
ROOT
HETATM    1  C   UNL     1      40.534 -13.871   5.610  1.00  0.00     0.255 C 
HETATM    2  N   UNL     1      40.895 -15.186   5.804  1.00  0.00    -0.354 N 
HETATM    3  O   UNL     1      40.371 -13.079   6.530  1.00  0.00    -0.268 OA
HETATM    4  H   UNL     1      41.105 -15.726   4.972  1.00  0.00     0.162 HD
ENDROOT
BRANCH   2   5
HETATM    5  C   UNL     1      41.383 -15.702   7.079  1.00  0.00     0.156 C 
BRANCH   5   6
HETATM    6  C   UNL     1      42.907 -15.674   7.317  1.00  0.00     0.160 C 
BRANCH   6   7
HETATM    7  O   UNL     1      43.192 -15.505   8.711  1.00  0.00    -0.392 OA
HETATM    8  H   UNL     1      43.881 -16.164   8.951  1.00  0.00     0.210 HD
ENDBRANCH   6   7
BRANCH   6   9
HETATM    9  C   UNL     1      43.624 -16.907   6.752  1.00  0.00     0.209 C 
BRANCH   9  10
HETATM   10  O   UNL     1      44.295 -16.548   5.538  1.00  0.00    -0.349 OA
BRANCH  10  11
HETATM   11  C   UNL     1      43.844 -17.167   4.403  1.00  0.00     0.069 A 
HETATM   12  C   UNL     1      44.049 -18.549   4.359  1.00  0.00     0.043 A 
HETATM   13  C   UNL     1      43.632 -19.303   3.255  1.00  0.00    -0.059 A 
HETATM   14  C   UNL     1      43.853 -20.785   3.209  1.00  0.00     0.048 C 
HETATM   15  C   UNL     1      43.034 -18.648   2.173  1.00  0.00     0.007 A 
HETATM   16  C   UNL     1      42.843 -17.267   2.205  1.00  0.00     0.003 A 
HETATM   17  C   UNL     1      43.246 -16.526   3.317  1.00  0.00     0.037 A 
ENDBRANCH  10  11
ENDBRANCH   9  10
ENDBRANCH   6   9
ENDBRANCH   5   6
ENDBRANCH   2   5
BRANCH   1  18
HETATM   18  C   UNL     1      40.415 -13.494   4.219  1.00  0.00     0.075 A 
HETATM   19  C   UNL     1      39.198 -13.409   3.507  1.00  0.00     0.158 A 
HETATM   20  N   UNL     1      39.367 -13.093   2.227  1.00  0.00    -0.183 NA
HETATM   21  N   UNL     1      40.708 -13.037   2.082  1.00  0.00    -0.268 N 
HETATM   22  C   UNL     1      41.387 -13.180   3.278  1.00  0.00     0.052 A 
BRANCH  21  23
HETATM   23  C   UNL     1      41.257 -12.902   0.733  1.00  0.00     0.106 C 
HETATM   24  C   UNL     1      40.611 -13.930  -0.203  1.00  0.00     0.034 C 
BRANCH  23  25
HETATM   25  C   UNL     1      41.115 -11.479   0.164  1.00  0.00     0.022 C 
HETATM   26  C   UNL     1      41.128 -11.448  -1.359  1.00  0.00     0.007 C 
ENDBRANCH  23  25
ENDBRANCH  21  23
BRANCH  22  27
HETATM   27  C   UNL     1      42.897 -13.000   3.449  1.00  0.00     0.038 A 
HETATM   28  C   UNL     1      43.461 -11.595   3.472  1.00  0.00     0.011 A 
HETATM   29  C   UNL     1      43.494 -12.424   4.710  1.00  0.00     0.011 A 
ENDBRANCH  22  27
ENDBRANCH   1  18
TORSDOF 10
ENDMDL
MODEL 9
REMARK VINA RESULT:      -6.8      5.797      8.922
REMARK  10 active torsions:
REMARK  status: ('A' for Active; 'I' for Inactive)
REMARK    1  A    between atoms: C_2  and  C_3 
REMARK    2  A    between atoms: C_3  and  N_4 
REMARK    3  A    between atoms: C_7  and  C_8 
REMARK       I    between atoms: C_8  and  N_9 
REMARK    4  A    between atoms: N_9  and  C_10 
REMARK    5  A    between atoms: C_10  and  C_11 
REMARK    6  A    between atoms: C_11  and  O_12 
REMARK    7  A    between atoms: C_11  and  C_13 
REMARK    8  A    between atoms: C_13  and  O_14 
REMARK    9  A    between atoms: O_14  and  C_15 
REMARK   10  A    between atoms: C_23  and  C_24 
ROOT
HETATM    1  C   UNL     1      43.855 -10.053   8.779  1.00  0.00     0.255 C 
HETATM    2  N   UNL     1      42.991 -10.770   7.981  1.00  0.00    -0.354 N 
HETATM    3  O   UNL     1      44.891  -9.550   8.362  1.00  0.00    -0.268 OA
HETATM    4  H   UNL     1      42.113 -11.052   8.402  1.00  0.00     0.162 HD
ENDROOT
BRANCH   2   5
HETATM    5  C   UNL     1      43.070 -10.779   6.524  1.00  0.00     0.156 C 
BRANCH   5   6
HETATM    6  C   UNL     1      44.043 -11.786   5.875  1.00  0.00     0.160 C 
BRANCH   6   7
HETATM    7  O   UNL     1      45.379 -11.267   5.885  1.00  0.00    -0.392 OA
HETATM    8  H   UNL     1      45.941 -11.917   6.361  1.00  0.00     0.210 HD
ENDBRANCH   6   7
BRANCH   6   9
HETATM    9  C   UNL     1      43.985 -13.176   6.520  1.00  0.00     0.209 C 
BRANCH   9  10
HETATM   10  O   UNL     1      42.940 -13.938   5.904  1.00  0.00    -0.349 OA
BRANCH  10  11
HETATM   11  C   UNL     1      43.288 -15.194   5.484  1.00  0.00     0.069 A 
HETATM   12  C   UNL     1      42.979 -15.482   4.151  1.00  0.00     0.043 A 
HETATM   13  C   UNL     1      43.285 -16.730   3.595  1.00  0.00    -0.059 A 
HETATM   14  C   UNL     1      42.952 -17.037   2.166  1.00  0.00     0.048 C 
HETATM   15  C   UNL     1      43.877 -17.706   4.403  1.00  0.00     0.007 A 
HETATM   16  C   UNL     1      44.172 -17.430   5.738  1.00  0.00     0.003 A 
HETATM   17  C   UNL     1      43.879 -16.177   6.279  1.00  0.00     0.037 A 
ENDBRANCH  10  11
ENDBRANCH   9  10
ENDBRANCH   6   9
ENDBRANCH   5   6
ENDBRANCH   2   5
BRANCH   1  18
HETATM   18  C   UNL     1      43.403  -9.901  10.145  1.00  0.00     0.075 A 
HETATM   19  C   UNL     1      43.692 -10.799  11.195  1.00  0.00     0.158 A 
HETATM   20  N   UNL     1      43.113 -10.459  12.343  1.00  0.00    -0.183 NA
HETATM   21  N   UNL     1      42.385  -9.367  12.026  1.00  0.00    -0.268 N 
HETATM   22  C   UNL     1      42.597  -8.932  10.731  1.00  0.00     0.052 A 
BRANCH  21  23
HETATM   23  C   UNL     1      41.454  -8.839  13.022  1.00  0.00     0.106 C 
HETATM   24  C   UNL     1      40.324  -9.845  13.272  1.00  0.00     0.034 C 
BRANCH  23  25
HETATM   25  C   UNL     1      42.141  -8.451  14.344  1.00  0.00     0.022 C 
HETATM   26  C   UNL     1      43.090  -7.270  14.192  1.00  0.00     0.007 C 
ENDBRANCH  23  25
ENDBRANCH  21  23
BRANCH  22  27
HETATM   27  C   UNL     1      42.037  -7.635  10.144  1.00  0.00     0.038 A 
HETATM   28  C   UNL     1      42.572  -6.316  10.661  1.00  0.00     0.011 A 
HETATM   29  C   UNL     1      42.867  -6.735   9.262  1.00  0.00     0.011 A 
ENDBRANCH  22  27
ENDBRANCH   1  18
TORSDOF 10
ENDMDL
MODEL 10
REMARK VINA RESULT:      -6.6      2.593      7.029
REMARK  10 active torsions:
REMARK  status: ('A' for Active; 'I' for Inactive)
REMARK    1  A    between atoms: C_2  and  C_3 
REMARK    2  A    between atoms: C_3  and  N_4 
REMARK    3  A    between atoms: C_7  and  C_8 
REMARK       I    between atoms: C_8  and  N_9 
REMARK    4  A    between atoms: N_9  and  C_10 
REMARK    5  A    between atoms: C_10  and  C_11 
REMARK    6  A    between atoms: C_11  and  O_12 
REMARK    7  A    between atoms: C_11  and  C_13 
REMARK    8  A    between atoms: C_13  and  O_14 
REMARK    9  A    between atoms: O_14  and  C_15 
REMARK   10  A    between atoms: C_23  and  C_24 
ROOT
HETATM    1  C   UNL     1      41.236 -15.091   1.993  1.00  0.00     0.255 C 
HETATM    2  N   UNL     1      41.757 -13.830   1.803  1.00  0.00    -0.354 N 
HETATM    3  O   UNL     1      40.221 -15.487   1.432  1.00  0.00    -0.268 OA
HETATM    4  H   UNL     1      42.655 -13.641   2.233  1.00  0.00     0.162 HD
ENDROOT
BRANCH   2   5
HETATM    5  C   UNL     1      41.327 -12.940   0.729  1.00  0.00     0.156 C 
BRANCH   5   6
HETATM    6  C   UNL     1      40.662 -11.609   1.138  1.00  0.00     0.160 C 
BRANCH   6   7
HETATM    7  O   UNL     1      39.656 -11.838   2.132  1.00  0.00    -0.392 OA
HETATM    8  H   UNL     1      38.801 -11.525   1.761  1.00  0.00     0.210 HD
ENDBRANCH   6   7
BRANCH   6   9
HETATM    9  C   UNL     1      41.672 -10.553   1.605  1.00  0.00     0.209 C 
BRANCH   9  10
HETATM   10  O   UNL     1      42.716 -11.195   2.346  1.00  0.00    -0.349 OA
BRANCH  10  11
HETATM   11  C   UNL     1      42.739 -10.936   3.690  1.00  0.00     0.069 A 
HETATM   12  C   UNL     1      43.732 -11.610   4.408  1.00  0.00     0.043 A 
HETATM   13  C   UNL     1      43.866 -11.431   5.790  1.00  0.00    -0.059 A 
HETATM   14  C   UNL     1      44.931 -12.155   6.559  1.00  0.00     0.048 C 
HETATM   15  C   UNL     1      42.969 -10.590   6.456  1.00  0.00     0.007 A 
HETATM   16  C   UNL     1      41.966  -9.929   5.747  1.00  0.00     0.003 A 
HETATM   17  C   UNL     1      41.851 -10.100   4.366  1.00  0.00     0.037 A 
ENDBRANCH  10  11
ENDBRANCH   9  10
ENDBRANCH   6   9
ENDBRANCH   5   6
ENDBRANCH   2   5
BRANCH   1  18
HETATM   18  C   UNL     1      42.023 -15.925   2.874  1.00  0.00     0.075 A 
HETATM   19  C   UNL     1      43.070 -16.776   2.458  1.00  0.00     0.158 A 
HETATM   20  N   UNL     1      43.598 -17.476   3.457  1.00  0.00    -0.183 NA
HETATM   21  N   UNL     1      42.846 -17.131   4.525  1.00  0.00    -0.268 N 
HETATM   22  C   UNL     1      41.939 -16.126   4.246  1.00  0.00     0.052 A 
BRANCH  21  23
HETATM   23  C   UNL     1      43.030 -17.872   5.772  1.00  0.00     0.106 C 
HETATM   24  C   UNL     1      43.845 -19.145   5.514  1.00  0.00     0.034 C 
BRANCH  23  25
HETATM   25  C   UNL     1      43.674 -17.028   6.886  1.00  0.00     0.022 C 
HETATM   26  C   UNL     1      44.913 -16.277   6.418  1.00  0.00     0.007 C 
ENDBRANCH  23  25
ENDBRANCH  21  23
BRANCH  22  27
HETATM   27  C   UNL     1      41.069 -15.423   5.290  1.00  0.00     0.038 A 
HETATM   28  C   UNL     1      41.674 -14.289   6.091  1.00  0.00     0.011 A 
HETATM   29  C   UNL     1      40.593 -14.003   5.106  1.00  0.00     0.011 A 
ENDBRANCH  22  27
ENDBRANCH   1  18
TORSDOF 10
ENDMDL
