MODEL 1
REMARK VINA RESULT:      -9.2      0.000      0.000
REMARK  2 active torsions:
REMARK  status: ('A' for Active; 'I' for Inactive)
REMARK       I    between atoms: N_8  and  C_9 
REMARK    1  A    between atoms: C_9  and  C_10 
REMARK    2  A    between atoms: N_12  and  C_13 
ROOT
HETATM    1  C   UNL     1      39.547 -16.069   0.965  1.00  0.00     0.021 C 
HETATM    2  C   UNL     1      40.555 -14.940   0.761  1.00  0.00     0.087 C 
HETATM    3  C   UNL     1      40.203 -14.120  -0.474  1.00  0.00     0.207 C 
HETATM    4  O   UNL     1      39.141 -14.211  -1.079  1.00  0.00    -0.279 OA
HETATM    5  N   UNL     1      41.191 -13.198  -0.800  1.00  0.00    -0.227 NA
HETATM    6  C   UNL     1      41.053 -11.947  -0.135  1.00  0.00     0.042 A 
HETATM    7  C   UNL     1      41.437 -11.831   1.217  1.00  0.00     0.059 A 
HETATM    8  N   UNL     1      41.677 -13.020   1.990  1.00  0.00    -0.309 N 
HETATM    9  C   UNL     1      42.750 -13.074   2.910  1.00  0.00     0.298 C 
HETATM   10  O   UNL     1      43.508 -12.119   3.093  1.00  0.00    -0.264 OA
HETATM   11  C   UNL     1      40.555 -13.995   1.970  1.00  0.00     0.145 C 
HETATM   12  C   UNL     1      40.680 -10.833  -0.883  1.00  0.00     0.026 A 
HETATM   13  C   UNL     1      40.704  -9.573  -0.288  1.00  0.00     0.002 A 
HETATM   14  C   UNL     1      41.116  -9.435   1.039  1.00  0.00     0.002 A 
HETATM   15  C   UNL     1      41.484 -10.557   1.790  1.00  0.00     0.031 A 
HETATM   16  H   UNL     1      42.082 -13.587  -0.496  1.00  0.00     0.136 HD
ENDROOT
BRANCH   9  17
HETATM   17  C   UNL     1      42.996 -14.362   3.615  1.00  0.00     0.239 A 
HETATM   18  N   UNL     1      43.138 -15.527   2.959  1.00  0.00    -0.140 NA
HETATM   19  N   UNL     1      43.287 -16.432   3.951  1.00  0.00    -0.225 N 
HETATM   20  C   UNL     1      43.222 -15.789   5.161  1.00  0.00     0.237 A 
HETATM   21  N   UNL     1      43.036 -14.500   4.990  1.00  0.00    -0.216 NA
BRANCH  19  22
HETATM   22  C   UNL     1      43.482 -17.812   3.682  1.00  0.00     0.059 A 
HETATM   23  C   UNL     1      43.109 -18.328   2.431  1.00  0.00     0.031 A 
HETATM   24  C   UNL     1      43.292 -19.682   2.145  1.00  0.00     0.002 A 
HETATM   25  C   UNL     1      43.852 -20.527   3.101  1.00  0.00     0.000 A 
HETATM   26  C   UNL     1      44.226 -20.021   4.345  1.00  0.00     0.002 A 
HETATM   27  C   UNL     1      44.043 -18.667   4.641  1.00  0.00     0.031 A 
ENDBRANCH  19  22
ENDBRANCH   9  17
TORSDOF 2
ENDMDL
MODEL 2
REMARK VINA RESULT:      -9.0      1.572      2.330
REMARK  2 active torsions:
REMARK  status: ('A' for Active; 'I' for Inactive)
REMARK       I    between atoms: N_8  and  C_9 
REMARK    1  A    between atoms: C_9  and  C_10 
REMARK    2  A    between atoms: N_12  and  C_13 
ROOT
HETATM    1  C   UNL     1      39.289 -15.075  -1.159  1.00  0.00     0.021 C 
HETATM    2  C   UNL     1      40.305 -13.935  -1.138  1.00  0.00     0.087 C 
HETATM    3  C   UNL     1      40.407 -13.280  -2.511  1.00  0.00     0.207 C 
HETATM    4  O   UNL     1      39.623 -13.487  -3.431  1.00  0.00    -0.279 OA
HETATM    5  N   UNL     1      41.447 -12.361  -2.586  1.00  0.00    -0.227 NA
HETATM    6  C   UNL     1      41.085 -11.049  -2.171  1.00  0.00     0.042 A 
HETATM    7  C   UNL     1      40.972 -10.759  -0.796  1.00  0.00     0.059 A 
HETATM    8  N   UNL     1      40.927 -11.838   0.154  1.00  0.00    -0.309 N 
HETATM    9  C   UNL     1      41.610 -11.738   1.388  1.00  0.00     0.298 C 
HETATM   10  O   UNL     1      42.257 -10.736   1.702  1.00  0.00    -0.264 OA
HETATM   11  C   UNL     1      39.883 -12.856  -0.132  1.00  0.00     0.145 C 
HETATM   12  C   UNL     1      40.997 -10.046  -3.135  1.00  0.00     0.026 A 
HETATM   13  C   UNL     1      40.812  -8.725  -2.730  1.00  0.00     0.002 A 
HETATM   14  C   UNL     1      40.734  -8.416  -1.371  1.00  0.00     0.002 A 
HETATM   15  C   UNL     1      40.817  -9.426  -0.406  1.00  0.00     0.031 A 
HETATM   16  H   UNL     1      42.175 -12.673  -1.947  1.00  0.00     0.136 HD
ENDROOT
BRANCH   9  17
HETATM   17  C   UNL     1      41.595 -12.923   2.289  1.00  0.00     0.239 A 
HETATM   18  N   UNL     1      42.424 -13.967   2.120  1.00  0.00    -0.140 NA
HETATM   19  N   UNL     1      42.052 -14.828   3.094  1.00  0.00    -0.225 N 
HETATM   20  C   UNL     1      41.015 -14.281   3.805  1.00  0.00     0.237 A 
HETATM   21  N   UNL     1      40.700 -13.098   3.328  1.00  0.00    -0.216 NA
BRANCH  19  22
HETATM   22  C   UNL     1      42.700 -16.077   3.276  1.00  0.00     0.059 A 
HETATM   23  C   UNL     1      42.591 -17.060   2.280  1.00  0.00     0.031 A 
HETATM   24  C   UNL     1      43.221 -18.296   2.438  1.00  0.00     0.002 A 
HETATM   25  C   UNL     1      43.965 -18.557   3.587  1.00  0.00     0.000 A 
HETATM   26  C   UNL     1      44.078 -17.585   4.580  1.00  0.00     0.002 A 
HETATM   27  C   UNL     1      43.448 -16.346   4.431  1.00  0.00     0.031 A 
ENDBRANCH  19  22
ENDBRANCH   9  17
TORSDOF 2
ENDMDL
MODEL 3
REMARK VINA RESULT:      -8.9      2.354      7.766
REMARK  2 active torsions:
REMARK  status: ('A' for Active; 'I' for Inactive)
REMARK       I    between atoms: N_8  and  C_9 
REMARK    1  A    between atoms: C_9  and  C_10 
REMARK    2  A    between atoms: N_12  and  C_13 
ROOT
HETATM    1  C   UNL     1      41.869 -15.386   6.844  1.00  0.00     0.021 C 
HETATM    2  C   UNL     1      42.770 -15.942   5.743  1.00  0.00     0.087 C 
HETATM    3  C   UNL     1      43.488 -17.200   6.219  1.00  0.00     0.207 C 
HETATM    4  O   UNL     1      43.208 -17.803   7.248  1.00  0.00    -0.279 OA
HETATM    5  N   UNL     1      44.452 -17.635   5.317  1.00  0.00    -0.227 NA
HETATM    6  C   UNL     1      43.947 -18.506   4.311  1.00  0.00     0.042 A 
HETATM    7  C   UNL     1      43.222 -17.971   3.226  1.00  0.00     0.059 A 
HETATM    8  N   UNL     1      42.744 -16.615   3.293  1.00  0.00    -0.309 N 
HETATM    9  C   UNL     1      42.791 -15.781   2.153  1.00  0.00     0.298 C 
HETATM   10  O   UNL     1      43.229 -16.172   1.069  1.00  0.00    -0.264 OA
HETATM   11  C   UNL     1      41.940 -16.313   4.506  1.00  0.00     0.145 C 
HETATM   12  C   UNL     1      44.312 -19.850   4.349  1.00  0.00     0.026 A 
HETATM   13  C   UNL     1      43.968 -20.680   3.283  1.00  0.00     0.002 A 
HETATM   14  C   UNL     1      43.281 -20.159   2.185  1.00  0.00     0.002 A 
HETATM   15  C   UNL     1      42.911 -18.810   2.153  1.00  0.00     0.031 A 
HETATM   16  H   UNL     1      44.808 -16.814   4.832  1.00  0.00     0.136 HD
ENDROOT
BRANCH   9  17
HETATM   17  C   UNL     1      42.362 -14.364   2.311  1.00  0.00     0.239 A 
HETATM   18  N   UNL     1      41.109 -13.956   2.044  1.00  0.00    -0.140 NA
HETATM   19  N   UNL     1      41.158 -12.623   2.261  1.00  0.00    -0.225 N 
HETATM   20  C   UNL     1      42.428 -12.274   2.641  1.00  0.00     0.237 A 
HETATM   21  N   UNL     1      43.206 -13.332   2.677  1.00  0.00    -0.216 NA
BRANCH  19  22
HETATM   22  C   UNL     1      40.015 -11.796   2.100  1.00  0.00     0.059 A 
HETATM   23  C   UNL     1      39.181 -11.986   0.986  1.00  0.00     0.031 A 
HETATM   24  C   UNL     1      38.051 -11.185   0.810  1.00  0.00     0.002 A 
HETATM   25  C   UNL     1      37.745 -10.196   1.741  1.00  0.00     0.000 A 
HETATM   26  C   UNL     1      38.568 -10.003   2.850  1.00  0.00     0.002 A 
HETATM   27  C   UNL     1      39.703 -10.799   3.034  1.00  0.00     0.031 A 
ENDBRANCH  19  22
ENDBRANCH   9  17
TORSDOF 2
ENDMDL
MODEL 4
REMARK VINA RESULT:      -8.9      2.369      7.629
REMARK  2 active torsions:
REMARK  status: ('A' for Active; 'I' for Inactive)
REMARK       I    between atoms: N_8  and  C_9 
REMARK    1  A    between atoms: C_9  and  C_10 
REMARK    2  A    between atoms: N_12  and  C_13 
ROOT
HETATM    1  C   UNL     1      40.192 -14.386   5.811  1.00  0.00     0.021 C 
HETATM    2  C   UNL     1      41.462 -14.906   5.142  1.00  0.00     0.087 C 
HETATM    3  C   UNL     1      42.288 -15.731   6.122  1.00  0.00     0.207 C 
HETATM    4  O   UNL     1      41.880 -16.111   7.214  1.00  0.00    -0.279 OA
HETATM    5  N   UNL     1      43.535 -16.071   5.612  1.00  0.00    -0.227 NA
HETATM    6  C   UNL     1      43.538 -17.276   4.854  1.00  0.00     0.042 A 
HETATM    7  C   UNL     1      43.037 -17.271   3.536  1.00  0.00     0.059 A 
HETATM    8  N   UNL     1      42.264 -16.148   3.076  1.00  0.00    -0.309 N 
HETATM    9  C   UNL     1      42.432 -15.652   1.763  1.00  0.00     0.298 C 
HETATM   10  O   UNL     1      43.227 -16.154   0.966  1.00  0.00    -0.264 OA
HETATM   11  C   UNL     1      41.111 -15.805   3.949  1.00  0.00     0.145 C 
HETATM   12  C   UNL     1      44.174 -18.396   5.387  1.00  0.00     0.026 A 
HETATM   13  C   UNL     1      44.334 -19.530   4.593  1.00  0.00     0.002 A 
HETATM   14  C   UNL     1      43.876 -19.530   3.274  1.00  0.00     0.002 A 
HETATM   15  C   UNL     1      43.232 -18.406   2.744  1.00  0.00     0.031 A 
HETATM   16  H   UNL     1      43.814 -15.330   4.971  1.00  0.00     0.136 HD
ENDROOT
BRANCH   9  17
HETATM   17  C   UNL     1      41.666 -14.435   1.377  1.00  0.00     0.239 A 
HETATM   18  N   UNL     1      40.700 -14.458   0.443  1.00  0.00    -0.140 NA
HETATM   19  N   UNL     1      40.308 -13.167   0.361  1.00  0.00    -0.225 N 
HETATM   20  C   UNL     1      41.050 -12.415   1.236  1.00  0.00     0.237 A 
HETATM   21  N   UNL     1      41.909 -13.171   1.882  1.00  0.00    -0.216 NA
BRANCH  19  22
HETATM   22  C   UNL     1      39.275 -12.752  -0.519  1.00  0.00     0.059 A 
HETATM   23  C   UNL     1      38.833 -13.629  -1.522  1.00  0.00     0.031 A 
HETATM   24  C   UNL     1      37.817 -13.242  -2.398  1.00  0.00     0.002 A 
HETATM   25  C   UNL     1      37.235 -11.982  -2.277  1.00  0.00     0.000 A 
HETATM   26  C   UNL     1      37.668 -11.106  -1.283  1.00  0.00     0.002 A 
HETATM   27  C   UNL     1      38.687 -11.485  -0.403  1.00  0.00     0.031 A 
ENDBRANCH  19  22
ENDBRANCH   9  17
TORSDOF 2
ENDMDL
MODEL 5
REMARK VINA RESULT:      -8.7      4.805      7.626
REMARK  2 active torsions:
REMARK  status: ('A' for Active; 'I' for Inactive)
REMARK       I    between atoms: N_8  and  C_9 
REMARK    1  A    between atoms: C_9  and  C_10 
REMARK    2  A    between atoms: N_12  and  C_13 
ROOT
HETATM    1  C   UNL     1      42.964 -15.487   7.879  1.00  0.00     0.021 C 
HETATM    2  C   UNL     1      43.399 -15.076   6.474  1.00  0.00     0.087 C 
HETATM    3  C   UNL     1      43.119 -16.194   5.476  1.00  0.00     0.207 C 
HETATM    4  O   UNL     1      42.437 -17.181   5.724  1.00  0.00    -0.279 OA
HETATM    5  N   UNL     1      43.662 -15.935   4.223  1.00  0.00    -0.227 NA
HETATM    6  C   UNL     1      42.806 -15.185   3.368  1.00  0.00     0.042 A 
HETATM    7  C   UNL     1      42.675 -13.794   3.561  1.00  0.00     0.059 A 
HETATM    8  N   UNL     1      43.157 -13.199   4.778  1.00  0.00    -0.309 N 
HETATM    9  C   UNL     1      43.815 -11.948   4.754  1.00  0.00     0.298 C 
HETATM   10  O   UNL     1      43.995 -11.319   3.709  1.00  0.00    -0.264 OA
HETATM   11  C   UNL     1      42.628 -13.831   6.015  1.00  0.00     0.145 C 
HETATM   12  C   UNL     1      42.235 -15.824   2.269  1.00  0.00     0.026 A 
HETATM   13  C   UNL     1      41.534 -15.069   1.330  1.00  0.00     0.002 A 
HETATM   14  C   UNL     1      41.425 -13.686   1.486  1.00  0.00     0.002 A 
HETATM   15  C   UNL     1      41.994 -13.048   2.595  1.00  0.00     0.031 A 
HETATM   16  H   UNL     1      44.495 -15.368   4.363  1.00  0.00     0.136 HD
ENDROOT
BRANCH   9  17
HETATM   17  C   UNL     1      44.366 -11.428   6.036  1.00  0.00     0.239 A 
HETATM   18  N   UNL     1      43.614 -10.753   6.922  1.00  0.00    -0.140 NA
HETATM   19  N   UNL     1      44.492 -10.423   7.895  1.00  0.00    -0.225 N 
HETATM   20  C   UNL     1      45.733 -10.900   7.562  1.00  0.00     0.237 A 
HETATM   21  N   UNL     1      45.694 -11.526   6.408  1.00  0.00    -0.216 NA
BRANCH  19  22
HETATM   22  C   UNL     1      44.093  -9.698   9.049  1.00  0.00     0.059 A 
HETATM   23  C   UNL     1      43.787  -8.333   8.932  1.00  0.00     0.031 A 
HETATM   24  C   UNL     1      43.392  -7.603  10.054  1.00  0.00     0.002 A 
HETATM   25  C   UNL     1      43.296  -8.228  11.295  1.00  0.00     0.000 A 
HETATM   26  C   UNL     1      43.597  -9.583  11.419  1.00  0.00     0.002 A 
HETATM   27  C   UNL     1      43.996 -10.322  10.301  1.00  0.00     0.031 A 
ENDBRANCH  19  22
ENDBRANCH   9  17
TORSDOF 2
ENDMDL
MODEL 6
REMARK VINA RESULT:      -8.7      3.760      7.183
REMARK  2 active torsions:
REMARK  status: ('A' for Active; 'I' for Inactive)
REMARK       I    between atoms: N_8  and  C_9 
REMARK    1  A    between atoms: C_9  and  C_10 
REMARK    2  A    between atoms: N_12  and  C_13 
ROOT
HETATM    1  C   UNL     1      41.722 -12.777   1.626  1.00  0.00     0.021 C 
HETATM    2  C   UNL     1      41.680 -14.016   2.518  1.00  0.00     0.087 C 
HETATM    3  C   UNL     1      41.311 -15.252   1.706  1.00  0.00     0.207 C 
HETATM    4  O   UNL     1      41.279 -15.285   0.481  1.00  0.00    -0.279 OA
HETATM    5  N   UNL     1      41.084 -16.366   2.506  1.00  0.00    -0.227 NA
HETATM    6  C   UNL     1      42.259 -17.114   2.798  1.00  0.00     0.042 A 
HETATM    7  C   UNL     1      43.163 -16.640   3.771  1.00  0.00     0.059 A 
HETATM    8  N   UNL     1      43.053 -15.284   4.239  1.00  0.00    -0.309 N 
HETATM    9  C   UNL     1      43.246 -14.979   5.606  1.00  0.00     0.298 C 
HETATM   10  O   UNL     1      43.519 -15.845   6.441  1.00  0.00    -0.264 OA
HETATM   11  C   UNL     1      43.053 -14.266   3.157  1.00  0.00     0.145 C 
HETATM   12  C   UNL     1      42.409 -18.372   2.217  1.00  0.00     0.026 A 
HETATM   13  C   UNL     1      43.466 -19.187   2.620  1.00  0.00     0.002 A 
HETATM   14  C   UNL     1      44.349 -18.748   3.609  1.00  0.00     0.002 A 
HETATM   15  C   UNL     1      44.199 -17.482   4.185  1.00  0.00     0.031 A 
HETATM   16  H   UNL     1      40.729 -16.031   3.400  1.00  0.00     0.136 HD
ENDROOT
BRANCH   9  17
HETATM   17  C   UNL     1      43.034 -13.571   6.040  1.00  0.00     0.239 A 
HETATM   18  N   UNL     1      44.012 -12.831   6.591  1.00  0.00    -0.140 NA
HETATM   19  N   UNL     1      43.399 -11.662   6.882  1.00  0.00    -0.225 N 
HETATM   20  C   UNL     1      42.082 -11.739   6.507  1.00  0.00     0.237 A 
HETATM   21  N   UNL     1      41.818 -12.915   5.985  1.00  0.00    -0.216 NA
BRANCH  19  22
HETATM   22  C   UNL     1      44.096 -10.579   7.477  1.00  0.00     0.059 A 
HETATM   23  C   UNL     1      45.500 -10.575   7.463  1.00  0.00     0.031 A 
HETATM   24  C   UNL     1      46.206  -9.519   8.041  1.00  0.00     0.002 A 
HETATM   25  C   UNL     1      45.519  -8.460   8.631  1.00  0.00     0.000 A 
HETATM   26  C   UNL     1      44.125  -8.457   8.647  1.00  0.00     0.002 A 
HETATM   27  C   UNL     1      43.409  -9.512   8.073  1.00  0.00     0.031 A 
ENDBRANCH  19  22
ENDBRANCH   9  17
TORSDOF 2
ENDMDL
MODEL 7
REMARK VINA RESULT:      -8.6      4.029      5.740
REMARK  2 active torsions:
REMARK  status: ('A' for Active; 'I' for Inactive)
REMARK       I    between atoms: N_8  and  C_9 
REMARK    1  A    between atoms: C_9  and  C_10 
REMARK    2  A    between atoms: N_12  and  C_13 
ROOT
HETATM    1  C   UNL     1      45.121 -11.585   6.894  1.00  0.00     0.021 C 
HETATM    2  C   UNL     1      43.633 -11.514   7.229  1.00  0.00     0.087 C 
HETATM    3  C   UNL     1      43.266 -10.133   7.761  1.00  0.00     0.207 C 
HETATM    4  O   UNL     1      44.007  -9.158   7.710  1.00  0.00    -0.279 OA
HETATM    5  N   UNL     1      41.965 -10.080   8.248  1.00  0.00    -0.227 NA
HETATM    6  C   UNL     1      40.992  -9.771   7.256  1.00  0.00     0.042 A 
HETATM    7  C   UNL     1      40.577 -10.772   6.353  1.00  0.00     0.059 A 
HETATM    8  N   UNL     1      41.339 -11.987   6.243  1.00  0.00    -0.309 N 
HETATM    9  C   UNL     1      40.687 -13.233   6.097  1.00  0.00     0.298 C 
HETATM   10  O   UNL     1      39.459 -13.331   6.050  1.00  0.00    -0.264 OA
HETATM   11  C   UNL     1      42.786 -11.775   5.976  1.00  0.00     0.145 C 
HETATM   12  C   UNL     1      40.366  -8.527   7.301  1.00  0.00     0.026 A 
HETATM   13  C   UNL     1      39.296  -8.272   6.446  1.00  0.00     0.002 A 
HETATM   14  C   UNL     1      38.849  -9.263   5.570  1.00  0.00     0.002 A 
HETATM   15  C   UNL     1      39.483 -10.510   5.524  1.00  0.00     0.031 A 
HETATM   16  H   UNL     1      41.733 -11.007   8.599  1.00  0.00     0.136 HD
ENDROOT
BRANCH   9  17
HETATM   17  C   UNL     1      41.529 -14.460   6.075  1.00  0.00     0.239 A 
HETATM   18  N   UNL     1      41.758 -15.157   4.949  1.00  0.00    -0.140 NA
HETATM   19  N   UNL     1      42.506 -16.201   5.369  1.00  0.00    -0.225 N 
HETATM   20  C   UNL     1      42.695 -16.102   6.724  1.00  0.00     0.237 A 
HETATM   21  N   UNL     1      42.096 -15.034   7.198  1.00  0.00    -0.216 NA
BRANCH  19  22
HETATM   22  C   UNL     1      42.982 -17.192   4.471  1.00  0.00     0.059 A 
HETATM   23  C   UNL     1      43.848 -18.190   4.944  1.00  0.00     0.031 A 
HETATM   24  C   UNL     1      44.326 -19.175   4.078  1.00  0.00     0.002 A 
HETATM   25  C   UNL     1      43.942 -19.172   2.739  1.00  0.00     0.000 A 
HETATM   26  C   UNL     1      43.082 -18.185   2.262  1.00  0.00     0.002 A 
HETATM   27  C   UNL     1      42.600 -17.193   3.122  1.00  0.00     0.031 A 
ENDBRANCH  19  22
ENDBRANCH   9  17
TORSDOF 2
ENDMDL
MODEL 8
REMARK VINA RESULT:      -8.6      5.365      7.398
REMARK  2 active torsions:
REMARK  status: ('A' for Active; 'I' for Inactive)
REMARK       I    between atoms: N_8  and  C_9 
REMARK    1  A    between atoms: C_9  and  C_10 
REMARK    2  A    between atoms: N_12  and  C_13 
ROOT
HETATM    1  C   UNL     1      40.359  -8.633   5.502  1.00  0.00     0.021 C 
HETATM    2  C   UNL     1      41.683  -8.701   6.260  1.00  0.00     0.087 C 
HETATM    3  C   UNL     1      41.780  -7.569   7.276  1.00  0.00     0.207 C 
HETATM    4  O   UNL     1      40.840  -6.851   7.597  1.00  0.00    -0.279 OA
HETATM    5  N   UNL     1      43.040  -7.484   7.858  1.00  0.00    -0.227 NA
HETATM    6  C   UNL     1      43.198  -8.307   9.009  1.00  0.00     0.042 A 
HETATM    7  C   UNL     1      43.400  -9.694   8.852  1.00  0.00     0.059 A 
HETATM    8  N   UNL     1      43.151 -10.305   7.574  1.00  0.00    -0.309 N 
HETATM    9  C   UNL     1      44.012 -11.313   7.080  1.00  0.00     0.298 C 
HETATM   10  O   UNL     1      44.992 -11.709   7.714  1.00  0.00    -0.264 OA
HETATM   11  C   UNL     1      41.800 -10.028   7.021  1.00  0.00     0.145 C 
HETATM   12  C   UNL     1      43.296  -7.695  10.257  1.00  0.00     0.026 A 
HETATM   13  C   UNL     1      43.619  -8.467  11.372  1.00  0.00     0.002 A 
HETATM   14  C   UNL     1      43.858  -9.835  11.228  1.00  0.00     0.002 A 
HETATM   15  C   UNL     1      43.753 -10.447   9.974  1.00  0.00     0.031 A 
HETATM   16  H   UNL     1      43.715  -7.818   7.174  1.00  0.00     0.136 HD
ENDROOT
BRANCH   9  17
HETATM   17  C   UNL     1      43.748 -11.844   5.715  1.00  0.00     0.239 A 
HETATM   18  N   UNL     1      43.340 -13.106   5.499  1.00  0.00    -0.140 NA
HETATM   19  N   UNL     1      43.273 -13.191   4.151  1.00  0.00    -0.225 N 
HETATM   20  C   UNL     1      43.647 -11.990   3.606  1.00  0.00     0.237 A 
HETATM   21  N   UNL     1      43.955 -11.129   4.549  1.00  0.00    -0.216 NA
BRANCH  19  22
HETATM   22  C   UNL     1      42.862 -14.381   3.496  1.00  0.00     0.059 A 
HETATM   23  C   UNL     1      43.336 -14.652   2.202  1.00  0.00     0.031 A 
HETATM   24  C   UNL     1      42.946 -15.817   1.539  1.00  0.00     0.002 A 
HETATM   25  C   UNL     1      42.086 -16.718   2.162  1.00  0.00     0.000 A 
HETATM   26  C   UNL     1      41.612 -16.456   3.447  1.00  0.00     0.002 A 
HETATM   27  C   UNL     1      41.996 -15.291   4.117  1.00  0.00     0.031 A 
ENDBRANCH  19  22
ENDBRANCH   9  17
TORSDOF 2
ENDMDL
MODEL 9
REMARK VINA RESULT:      -8.6      4.924      7.719
REMARK  2 active torsions:
REMARK  status: ('A' for Active; 'I' for Inactive)
REMARK       I    between atoms: N_8  and  C_9 
REMARK    1  A    between atoms: C_9  and  C_10 
REMARK    2  A    between atoms: N_12  and  C_13 
ROOT
HETATM    1  C   UNL     1      41.198 -10.175   4.387  1.00  0.00     0.021 C 
HETATM    2  C   UNL     1      41.284 -11.621   4.870  1.00  0.00     0.087 C 
HETATM    3  C   UNL     1      40.219 -12.478   4.196  1.00  0.00     0.207 C 
HETATM    4  O   UNL     1      39.546 -12.112   3.239  1.00  0.00    -0.279 OA
HETATM    5  N   UNL     1      40.144 -13.756   4.738  1.00  0.00    -0.227 NA
HETATM    6  C   UNL     1      41.035 -14.689   4.139  1.00  0.00     0.042 A 
HETATM    7  C   UNL     1      42.404 -14.662   4.479  1.00  0.00     0.059 A 
HETATM    8  N   UNL     1      42.936 -13.526   5.183  1.00  0.00    -0.309 N 
HETATM    9  C   UNL     1      43.889 -13.701   6.213  1.00  0.00     0.298 C 
HETATM   10  O   UNL     1      44.304 -14.814   6.542  1.00  0.00    -0.264 OA
HETATM   11  C   UNL     1      42.655 -12.220   4.530  1.00  0.00     0.145 C 
HETATM   12  C   UNL     1      40.504 -15.702   3.342  1.00  0.00     0.026 A 
HETATM   13  C   UNL     1      41.340 -16.720   2.887  1.00  0.00     0.002 A 
HETATM   14  C   UNL     1      42.690 -16.728   3.244  1.00  0.00     0.002 A 
HETATM   15  C   UNL     1      43.221 -15.706   4.039  1.00  0.00     0.031 A 
HETATM   16  H   UNL     1      40.416 -13.688   5.716  1.00  0.00     0.136 HD
ENDROOT
BRANCH   9  17
HETATM   17  C   UNL     1      44.335 -12.493   6.959  1.00  0.00     0.239 A 
HETATM   18  N   UNL     1      43.664 -12.012   8.020  1.00  0.00    -0.140 NA
HETATM   19  N   UNL     1      44.359 -10.903   8.358  1.00  0.00    -0.225 N 
HETATM   20  C   UNL     1      45.412 -10.750   7.492  1.00  0.00     0.237 A 
HETATM   21  N   UNL     1      45.425 -11.718   6.604  1.00  0.00    -0.216 NA
BRANCH  19  22
HETATM   22  C   UNL     1      43.983 -10.091   9.460  1.00  0.00     0.059 A 
HETATM   23  C   UNL     1      43.777 -10.687  10.714  1.00  0.00     0.031 A 
HETATM   24  C   UNL     1      43.408  -9.906  11.811  1.00  0.00     0.002 A 
HETATM   25  C   UNL     1      43.246  -8.530  11.665  1.00  0.00     0.000 A 
HETATM   26  C   UNL     1      43.450  -7.932  10.423  1.00  0.00     0.002 A 
HETATM   27  C   UNL     1      43.817  -8.706   9.318  1.00  0.00     0.031 A 
ENDBRANCH  19  22
ENDBRANCH   9  17
TORSDOF 2
ENDMDL
MODEL 10
REMARK VINA RESULT:      -8.3      4.452      6.547
REMARK  2 active torsions:
REMARK  status: ('A' for Active; 'I' for Inactive)
REMARK       I    between atoms: N_8  and  C_9 
REMARK    1  A    between atoms: C_9  and  C_10 
REMARK    2  A    between atoms: N_12  and  C_13 
ROOT
HETATM    1  C   UNL     1      46.171 -11.510   6.070  1.00  0.00     0.021 C 
HETATM    2  C   UNL     1      44.839 -11.534   6.817  1.00  0.00     0.087 C 
HETATM    3  C   UNL     1      44.959 -10.813   8.154  1.00  0.00     0.207 C 
HETATM    4  O   UNL     1      45.916 -10.118   8.477  1.00  0.00    -0.279 OA
HETATM    5  N   UNL     1      43.826 -10.967   8.945  1.00  0.00    -0.227 NA
HETATM    6  C   UNL     1      42.817  -9.994   8.700  1.00  0.00     0.042 A 
HETATM    7  C   UNL     1      41.996 -10.113   7.559  1.00  0.00     0.059 A 
HETATM    8  N   UNL     1      42.369 -11.026   6.511  1.00  0.00    -0.309 N 
HETATM    9  C   UNL     1      41.388 -11.802   5.852  1.00  0.00     0.298 C 
HETATM   10  O   UNL     1      40.191 -11.728   6.136  1.00  0.00    -0.264 OA
HETATM   11  C   UNL     1      43.750 -10.830   5.997  1.00  0.00     0.145 C 
HETATM   12  C   UNL     1      42.570  -9.030   9.675  1.00  0.00     0.026 A 
HETATM   13  C   UNL     1      41.477  -8.177   9.529  1.00  0.00     0.002 A 
HETATM   14  C   UNL     1      40.633  -8.305   8.424  1.00  0.00     0.002 A 
HETATM   15  C   UNL     1      40.888  -9.270   7.443  1.00  0.00     0.031 A 
HETATM   16  H   UNL     1      43.415 -11.870   8.715  1.00  0.00     0.136 HD
ENDROOT
BRANCH   9  17
HETATM   17  C   UNL     1      41.849 -12.788   4.837  1.00  0.00     0.239 A 
HETATM   18  N   UNL     1      42.245 -14.030   5.166  1.00  0.00    -0.140 NA
HETATM   19  N   UNL     1      42.626 -14.564   3.985  1.00  0.00    -0.225 N 
HETATM   20  C   UNL     1      42.455 -13.632   2.993  1.00  0.00     0.237 A 
HETATM   21  N   UNL     1      41.979 -12.513   3.488  1.00  0.00    -0.216 NA
BRANCH  19  22
HETATM   22  C   UNL     1      43.108 -15.896   3.886  1.00  0.00     0.059 A 
HETATM   23  C   UNL     1      42.946 -16.598   2.681  1.00  0.00     0.031 A 
HETATM   24  C   UNL     1      43.414 -17.908   2.562  1.00  0.00     0.002 A 
HETATM   25  C   UNL     1      44.048 -18.522   3.639  1.00  0.00     0.000 A 
HETATM   26  C   UNL     1      44.214 -17.830   4.838  1.00  0.00     0.002 A 
HETATM   27  C   UNL     1      43.746 -16.519   4.967  1.00  0.00     0.031 A 
ENDBRANCH  19  22
ENDBRANCH   9  17
TORSDOF 2
ENDMDL
