MODEL 1
REMARK VINA RESULT:      -9.0      0.000      0.000
REMARK  7 active torsions:
REMARK  status: ('A' for Active; 'I' for Inactive)
REMARK    1  A    between atoms: S_2  and  C_3 
REMARK    2  A    between atoms: C_3  and  C_4 
REMARK    3  A    between atoms: C_4  and  C_5 
REMARK    4  A    between atoms: C_5  and  N_6 
REMARK    5  A    between atoms: C_5  and  C_26 
REMARK       I    between atoms: N_6  and  C_7 
REMARK    6  A    between atoms: C_7  and  C_8 
REMARK    7  A    between atoms: C_8  and  N_9 
ROOT
HETATM    1  N   UNL     1      42.356 -13.177   4.966  1.00  0.00    -0.348 N 
HETATM    2  C   UNL     1      41.039 -12.772   4.907  1.00  0.00     0.236 C 
HETATM    3  O   UNL     1      40.163 -13.329   5.572  1.00  0.00    -0.272 OA
HETATM    4  H   UNL     1      42.913 -13.069   4.121  1.00  0.00     0.163 HD
ENDROOT
BRANCH   2   5
HETATM    5  C   UNL     1      40.667 -11.761   3.824  1.00  0.00     0.239 C 
BRANCH   5   6
HETATM    6  N   UNL     1      40.177 -12.312   2.579  1.00  0.00    -0.259 N 
HETATM    7  C   UNL     1      38.908 -12.157   2.127  1.00  0.00     0.326 A 
HETATM    8  O   UNL     1      37.968 -11.706   2.761  1.00  0.00    -0.247 OA
HETATM    9  N   UNL     1      38.835 -12.601   0.834  1.00  0.00    -0.320 N 
HETATM   10  C   UNL     1      40.110 -13.076   0.332  1.00  0.00     0.144 A 
HETATM   11  H   UNL     1      38.001 -12.480   0.277  1.00  0.00     0.165 HD
HETATM   12  C   UNL     1      40.560 -12.239  -0.860  1.00  0.00    -0.014 A 
HETATM   13  C   UNL     1      40.040 -14.579   0.021  1.00  0.00     0.047 C 
HETATM   14  C   UNL     1      40.970 -12.860   1.604  1.00  0.00     0.261 A 
HETATM   15  C   UNL     1      40.501 -12.760  -2.172  1.00  0.00    -0.049 A 
HETATM   16  C   UNL     1      41.011 -10.915  -0.687  1.00  0.00     0.011 A 
HETATM   17  C   UNL     1      40.924 -11.973  -3.256  1.00  0.00     0.007 A 
HETATM   18  C   UNL     1      40.061 -14.177  -2.452  1.00  0.00     0.039 C 
HETATM   19  C   UNL     1      41.385 -10.675  -3.058  1.00  0.00     0.001 A 
HETATM   20  C   UNL     1      41.425 -10.144  -1.774  1.00  0.00     0.001 A 
HETATM   21  C   UNL     1      39.308 -14.823  -1.296  1.00  0.00     0.008 C 
HETATM   22  O   UNL     1      42.165 -13.100   1.712  1.00  0.00    -0.270 OA
ENDBRANCH   5   6
ENDBRANCH   2   5
BRANCH   1  23
HETATM   23  C   UNL     1      42.759 -14.234   5.893  1.00  0.00     0.155 C 
BRANCH  23  24
HETATM   24  C   UNL     1      43.955 -13.809   6.760  1.00  0.00     0.043 C 
BRANCH  24  25
HETATM   25  C   UNL     1      43.977 -12.328   7.136  1.00  0.00     0.076 C 
BRANCH  25  26
HETATM   26  S   UNL     1      45.419 -11.376   6.542  1.00  0.00    -0.173 SA
HETATM   27  C   UNL     1      45.674 -10.267   7.952  1.00  0.00     0.089 C 
ENDBRANCH  25  26
ENDBRANCH  24  25
ENDBRANCH  23  24
BRANCH  23  28
HETATM   28  C   UNL     1      43.080 -15.482   5.109  1.00  0.00     0.128 A 
HETATM   29  N   UNL     1      43.769 -16.535   5.508  1.00  0.00    -0.231 NA
HETATM   30  C   UNL     1      43.672 -17.449   4.486  1.00  0.00     0.085 A 
HETATM   31  C   UNL     1      42.941 -16.931   3.422  1.00  0.00     0.062 A 
HETATM   32  C   UNL     1      44.173 -18.756   4.400  1.00  0.00     0.034 A 
HETATM   33  N   UNL     1      42.578 -15.679   3.842  1.00  0.00    -0.341 N 
HETATM   34  C   UNL     1      42.692 -17.641   2.245  1.00  0.00     0.032 A 
HETATM   35  H   UNL     1      42.016 -15.004   3.336  1.00  0.00     0.167 HD
HETATM   36  C   UNL     1      43.202 -18.944   2.177  1.00  0.00     0.002 A 
HETATM   37  C   UNL     1      43.926 -19.496   3.236  1.00  0.00     0.002 A 
ENDBRANCH  23  28
ENDBRANCH   1  23
TORSDOF 7
ENDMDL
MODEL 2
REMARK VINA RESULT:      -8.8      2.660      8.250
REMARK  7 active torsions:
REMARK  status: ('A' for Active; 'I' for Inactive)
REMARK    1  A    between atoms: S_2  and  C_3 
REMARK    2  A    between atoms: C_3  and  C_4 
REMARK    3  A    between atoms: C_4  and  C_5 
REMARK    4  A    between atoms: C_5  and  N_6 
REMARK    5  A    between atoms: C_5  and  C_26 
REMARK       I    between atoms: N_6  and  C_7 
REMARK    6  A    between atoms: C_7  and  C_8 
REMARK    7  A    between atoms: C_8  and  N_9 
ROOT
HETATM    1  N   UNL     1      40.931 -11.585   1.708  1.00  0.00    -0.348 N 
HETATM    2  C   UNL     1      40.086 -11.908   2.749  1.00  0.00     0.236 C 
HETATM    3  O   UNL     1      38.909 -12.219   2.550  1.00  0.00    -0.272 OA
HETATM    4  H   UNL     1      41.663 -10.904   1.899  1.00  0.00     0.163 HD
ENDROOT
BRANCH   2   5
HETATM    5  C   UNL     1      40.593 -11.652   4.167  1.00  0.00     0.239 C 
BRANCH   5   6
HETATM    6  N   UNL     1      41.207 -12.778   4.837  1.00  0.00    -0.259 N 
HETATM    7  C   UNL     1      40.549 -13.606   5.686  1.00  0.00     0.326 A 
HETATM    8  O   UNL     1      39.432 -13.429   6.144  1.00  0.00    -0.247 OA
HETATM    9  N   UNL     1      41.345 -14.685   5.966  1.00  0.00    -0.320 N 
HETATM   10  C   UNL     1      42.618 -14.636   5.274  1.00  0.00     0.144 A 
HETATM   11  H   UNL     1      41.004 -15.473   6.499  1.00  0.00     0.165 HD
HETATM   12  C   UNL     1      42.761 -15.829   4.335  1.00  0.00    -0.014 A 
HETATM   13  C   UNL     1      43.774 -14.519   6.279  1.00  0.00     0.047 C 
HETATM   14  C   UNL     1      42.445 -13.283   4.537  1.00  0.00     0.261 A 
HETATM   15  C   UNL     1      43.627 -16.899   4.654  1.00  0.00    -0.049 A 
HETATM   16  C   UNL     1      42.007 -15.911   3.147  1.00  0.00     0.011 A 
HETATM   17  C   UNL     1      43.747 -17.987   3.772  1.00  0.00     0.007 A 
HETATM   18  C   UNL     1      44.497 -16.886   5.888  1.00  0.00     0.039 C 
HETATM   19  C   UNL     1      43.007 -18.036   2.594  1.00  0.00     0.001 A 
HETATM   20  C   UNL     1      42.134 -17.000   2.283  1.00  0.00     0.001 A 
HETATM   21  C   UNL     1      44.058 -15.868   6.933  1.00  0.00     0.008 C 
HETATM   22  O   UNL     1      43.260 -12.767   3.783  1.00  0.00    -0.270 OA
ENDBRANCH   5   6
ENDBRANCH   2   5
BRANCH   1  23
HETATM   23  C   UNL     1      40.466 -11.685   0.325  1.00  0.00     0.155 C 
BRANCH  23  24
HETATM   24  C   UNL     1      40.878 -13.017  -0.322  1.00  0.00     0.043 C 
BRANCH  24  25
HETATM   25  C   UNL     1      39.754 -14.047  -0.433  1.00  0.00     0.076 C 
BRANCH  25  26
HETATM   26  S   UNL     1      39.012 -14.241  -2.092  1.00  0.00    -0.173 SA
HETATM   27  C   UNL     1      37.709 -12.985  -2.009  1.00  0.00     0.089 C 
ENDBRANCH  25  26
ENDBRANCH  24  25
ENDBRANCH  23  24
BRANCH  23  28
HETATM   28  C   UNL     1      41.004 -10.517  -0.462  1.00  0.00     0.128 A 
HETATM   29  N   UNL     1      41.953  -9.669  -0.110  1.00  0.00    -0.231 NA
HETATM   30  C   UNL     1      42.168  -8.875  -1.211  1.00  0.00     0.085 A 
HETATM   31  C   UNL     1      41.305  -9.216  -2.247  1.00  0.00     0.062 A 
HETATM   32  C   UNL     1      43.097  -7.844  -1.406  1.00  0.00     0.034 A 
HETATM   33  N   UNL     1      40.575 -10.261  -1.745  1.00  0.00    -0.341 N 
HETATM   34  C   UNL     1      41.297  -8.567  -3.484  1.00  0.00     0.032 A 
HETATM   35  H   UNL     1      39.853 -10.788  -2.225  1.00  0.00     0.167 HD
HETATM   36  C   UNL     1      42.231  -7.538  -3.660  1.00  0.00     0.002 A 
HETATM   37  C   UNL     1      43.121  -7.184  -2.642  1.00  0.00     0.002 A 
ENDBRANCH  23  28
ENDBRANCH   1  23
TORSDOF 7
ENDMDL
MODEL 3
REMARK VINA RESULT:      -8.7      3.589      7.187
REMARK  7 active torsions:
REMARK  status: ('A' for Active; 'I' for Inactive)
REMARK    1  A    between atoms: S_2  and  C_3 
REMARK    2  A    between atoms: C_3  and  C_4 
REMARK    3  A    between atoms: C_4  and  C_5 
REMARK    4  A    between atoms: C_5  and  N_6 
REMARK    5  A    between atoms: C_5  and  C_26 
REMARK       I    between atoms: N_6  and  C_7 
REMARK    6  A    between atoms: C_7  and  C_8 
REMARK    7  A    between atoms: C_8  and  N_9 
ROOT
HETATM    1  N   UNL     1      40.278 -11.083   5.321  1.00  0.00    -0.348 N 
HETATM    2  C   UNL     1      39.655 -12.296   5.114  1.00  0.00     0.236 C 
HETATM    3  O   UNL     1      39.251 -12.982   6.057  1.00  0.00    -0.272 OA
HETATM    4  H   UNL     1      40.991 -10.807   4.649  1.00  0.00     0.163 HD
ENDROOT
BRANCH   2   5
HETATM    5  C   UNL     1      39.684 -12.863   3.696  1.00  0.00     0.239 C 
BRANCH   5   6
HETATM    6  N   UNL     1      40.773 -13.768   3.394  1.00  0.00    -0.259 N 
HETATM    7  C   UNL     1      42.060 -13.377   3.229  1.00  0.00     0.326 A 
HETATM    8  O   UNL     1      42.457 -12.228   3.128  1.00  0.00    -0.247 OA
HETATM    9  N   UNL     1      42.862 -14.486   3.180  1.00  0.00    -0.320 N 
HETATM   10  C   UNL     1      42.119 -15.722   3.335  1.00  0.00     0.144 A 
HETATM   11  H   UNL     1      43.870 -14.413   3.163  1.00  0.00     0.165 HD
HETATM   12  C   UNL     1      42.581 -16.469   4.581  1.00  0.00    -0.014 A 
HETATM   13  C   UNL     1      42.209 -16.569   2.056  1.00  0.00     0.047 C 
HETATM   14  C   UNL     1      40.690 -15.135   3.457  1.00  0.00     0.261 A 
HETATM   15  C   UNL     1      43.375 -17.632   4.473  1.00  0.00    -0.049 A 
HETATM   16  C   UNL     1      42.258 -15.999   5.870  1.00  0.00     0.011 A 
HETATM   17  C   UNL     1      43.786 -18.308   5.635  1.00  0.00     0.007 A 
HETATM   18  C   UNL     1      43.745 -18.229   3.136  1.00  0.00     0.039 C 
HETATM   19  C   UNL     1      43.438 -17.835   6.897  1.00  0.00     0.001 A 
HETATM   20  C   UNL     1      42.677 -16.678   7.015  1.00  0.00     0.001 A 
HETATM   21  C   UNL     1      43.563 -17.268   1.968  1.00  0.00     0.008 C 
HETATM   22  O   UNL     1      39.661 -15.778   3.619  1.00  0.00    -0.270 OA
ENDBRANCH   5   6
ENDBRANCH   2   5
BRANCH   1  23
HETATM   23  C   UNL     1      40.400 -10.540   6.674  1.00  0.00     0.155 C 
BRANCH  23  24
HETATM   24  C   UNL     1      39.562  -9.265   6.856  1.00  0.00     0.043 C 
BRANCH  24  25
HETATM   25  C   UNL     1      39.483  -8.370   5.620  1.00  0.00     0.076 C 
BRANCH  25  26
HETATM   26  S   UNL     1      37.841  -8.247   4.827  1.00  0.00    -0.173 SA
HETATM   27  C   UNL     1      38.198  -9.022   3.228  1.00  0.00     0.089 C 
ENDBRANCH  25  26
ENDBRANCH  24  25
ENDBRANCH  23  24
BRANCH  23  28
HETATM   28  C   UNL     1      41.854 -10.273   6.970  1.00  0.00     0.128 A 
HETATM   29  N   UNL     1      42.371  -9.278   7.666  1.00  0.00    -0.231 NA
HETATM   30  C   UNL     1      43.716  -9.549   7.758  1.00  0.00     0.085 A 
HETATM   31  C   UNL     1      44.037 -10.715   7.071  1.00  0.00     0.062 A 
HETATM   32  C   UNL     1      44.728  -8.848   8.428  1.00  0.00     0.034 A 
HETATM   33  N   UNL     1      42.837 -11.155   6.579  1.00  0.00    -0.341 N 
HETATM   34  C   UNL     1      45.334 -11.225   6.992  1.00  0.00     0.032 A 
HETATM   35  H   UNL     1      42.671 -11.996   6.036  1.00  0.00     0.167 HD
HETATM   36  C   UNL     1      46.333 -10.511   7.665  1.00  0.00     0.002 A 
HETATM   37  C   UNL     1      46.038  -9.344   8.376  1.00  0.00     0.002 A 
ENDBRANCH  23  28
ENDBRANCH   1  23
TORSDOF 7
ENDMDL
MODEL 4
REMARK VINA RESULT:      -8.5      3.873      8.723
REMARK  7 active torsions:
REMARK  status: ('A' for Active; 'I' for Inactive)
REMARK    1  A    between atoms: S_2  and  C_3 
REMARK    2  A    between atoms: C_3  and  C_4 
REMARK    3  A    between atoms: C_4  and  C_5 
REMARK    4  A    between atoms: C_5  and  N_6 
REMARK    5  A    between atoms: C_5  and  C_26 
REMARK       I    between atoms: N_6  and  C_7 
REMARK    6  A    between atoms: C_7  and  C_8 
REMARK    7  A    between atoms: C_8  and  N_9 
ROOT
HETATM    1  N   UNL     1      43.307 -12.848   5.448  1.00  0.00    -0.348 N 
HETATM    2  C   UNL     1      44.142 -11.765   5.628  1.00  0.00     0.236 C 
HETATM    3  O   UNL     1      44.676 -11.197   4.672  1.00  0.00    -0.272 OA
HETATM    4  H   UNL     1      43.292 -13.550   6.185  1.00  0.00     0.163 HD
ENDROOT
BRANCH   2   5
HETATM    5  C   UNL     1      44.558 -11.434   7.060  1.00  0.00     0.239 C 
BRANCH   5   6
HETATM    6  N   UNL     1      43.892 -10.305   7.672  1.00  0.00    -0.259 N 
HETATM    7  C   UNL     1      42.568 -10.043   7.542  1.00  0.00     0.326 A 
HETATM    8  O   UNL     1      41.798 -10.589   6.768  1.00  0.00    -0.247 OA
HETATM    9  N   UNL     1      42.220  -9.047   8.415  1.00  0.00    -0.320 N 
HETATM   10  C   UNL     1      43.338  -8.591   9.218  1.00  0.00     0.144 A 
HETATM   11  H   UNL     1      41.257  -8.772   8.551  1.00  0.00     0.165 HD
HETATM   12  C   UNL     1      43.069  -8.841  10.698  1.00  0.00    -0.014 A 
HETATM   13  C   UNL     1      43.662  -7.122   8.904  1.00  0.00     0.047 C 
HETATM   14  C   UNL     1      44.450  -9.495   8.627  1.00  0.00     0.261 A 
HETATM   15  C   UNL     1      42.752  -7.771  11.565  1.00  0.00    -0.049 A 
HETATM   16  C   UNL     1      43.095 -10.146  11.229  1.00  0.00     0.011 A 
HETATM   17  C   UNL     1      42.512  -8.023  12.926  1.00  0.00     0.007 A 
HETATM   18  C   UNL     1      42.731  -6.337  11.094  1.00  0.00     0.039 C 
HETATM   19  C   UNL     1      42.563  -9.319  13.432  1.00  0.00     0.001 A 
HETATM   20  C   UNL     1      42.850 -10.381  12.583  1.00  0.00     0.001 A 
HETATM   21  C   UNL     1      42.657  -6.192   9.579  1.00  0.00     0.008 C 
HETATM   22  O   UNL     1      45.622  -9.512   8.977  1.00  0.00    -0.270 OA
ENDBRANCH   5   6
ENDBRANCH   2   5
BRANCH   1  23
HETATM   23  C   UNL     1      42.969 -13.300   4.098  1.00  0.00     0.155 C 
BRANCH  23  24
HETATM   24  C   UNL     1      41.548 -12.878   3.693  1.00  0.00     0.043 C 
BRANCH  24  25
HETATM   25  C   UNL     1      40.438 -13.792   4.211  1.00  0.00     0.076 C 
BRANCH  25  26
HETATM   26  S   UNL     1      40.022 -13.618   5.981  1.00  0.00    -0.173 SA
HETATM   27  C   UNL     1      40.213 -15.336   6.526  1.00  0.00     0.089 C 
ENDBRANCH  25  26
ENDBRANCH  24  25
ENDBRANCH  23  24
BRANCH  23  28
HETATM   28  C   UNL     1      43.127 -14.797   4.025  1.00  0.00     0.128 A 
HETATM   29  N   UNL     1      43.068 -15.568   2.954  1.00  0.00    -0.231 NA
HETATM   30  C   UNL     1      43.401 -16.829   3.387  1.00  0.00     0.085 A 
HETATM   31  C   UNL     1      43.630 -16.841   4.759  1.00  0.00     0.062 A 
HETATM   32  C   UNL     1      43.541 -18.019   2.659  1.00  0.00     0.034 A 
HETATM   33  N   UNL     1      43.448 -15.538   5.140  1.00  0.00    -0.341 N 
HETATM   34  C   UNL     1      43.979 -17.992   5.468  1.00  0.00     0.032 A 
HETATM   35  H   UNL     1      43.551 -15.155   6.074  1.00  0.00     0.167 HD
HETATM   36  C   UNL     1      44.113 -19.172   4.725  1.00  0.00     0.002 A 
HETATM   37  C   UNL     1      43.904 -19.188   3.343  1.00  0.00     0.002 A 
ENDBRANCH  23  28
ENDBRANCH   1  23
TORSDOF 7
ENDMDL
MODEL 5
REMARK VINA RESULT:      -8.3      2.614      6.820
REMARK  7 active torsions:
REMARK  status: ('A' for Active; 'I' for Inactive)
REMARK    1  A    between atoms: S_2  and  C_3 
REMARK    2  A    between atoms: C_3  and  C_4 
REMARK    3  A    between atoms: C_4  and  C_5 
REMARK    4  A    between atoms: C_5  and  N_6 
REMARK    5  A    between atoms: C_5  and  C_26 
REMARK       I    between atoms: N_6  and  C_7 
REMARK    6  A    between atoms: C_7  and  C_8 
REMARK    7  A    between atoms: C_8  and  N_9 
ROOT
HETATM    1  N   UNL     1      40.764 -10.524   3.798  1.00  0.00    -0.348 N 
HETATM    2  C   UNL     1      41.858 -10.660   4.628  1.00  0.00     0.236 C 
HETATM    3  O   UNL     1      43.003 -10.436   4.227  1.00  0.00    -0.272 OA
HETATM    4  H   UNL     1      39.974 -11.143   3.966  1.00  0.00     0.163 HD
ENDROOT
BRANCH   2   5
HETATM    5  C   UNL     1      41.624 -11.312   5.989  1.00  0.00     0.239 C 
BRANCH   5   6
HETATM    6  N   UNL     1      41.673 -12.758   6.020  1.00  0.00    -0.259 N 
HETATM    7  C   UNL     1      40.575 -13.554   6.003  1.00  0.00     0.326 A 
HETATM    8  O   UNL     1      39.419 -13.190   6.142  1.00  0.00    -0.247 OA
HETATM    9  N   UNL     1      40.967 -14.853   5.815  1.00  0.00    -0.320 N 
HETATM   10  C   UNL     1      42.404 -14.989   5.672  1.00  0.00     0.144 A 
HETATM   11  H   UNL     1      40.296 -15.595   5.669  1.00  0.00     0.165 HD
HETATM   12  C   UNL     1      42.751 -15.562   4.303  1.00  0.00    -0.014 A 
HETATM   13  C   UNL     1      42.984 -15.810   6.834  1.00  0.00     0.047 C 
HETATM   14  C   UNL     1      42.810 -13.504   5.846  1.00  0.00     0.261 A 
HETATM   15  C   UNL     1      43.189 -16.898   4.169  1.00  0.00    -0.049 A 
HETATM   16  C   UNL     1      42.612 -14.785   3.135  1.00  0.00     0.011 A 
HETATM   17  C   UNL     1      43.509 -17.404   2.897  1.00  0.00     0.007 A 
HETATM   18  C   UNL     1      43.399 -17.797   5.364  1.00  0.00     0.039 C 
HETATM   19  C   UNL     1      43.382 -16.611   1.761  1.00  0.00     0.001 A 
HETATM   20  C   UNL     1      42.929 -15.302   1.879  1.00  0.00     0.001 A 
HETATM   21  C   UNL     1      42.714 -17.298   6.630  1.00  0.00     0.008 C 
HETATM   22  O   UNL     1      43.950 -13.061   5.800  1.00  0.00    -0.270 OA
ENDBRANCH   5   6
ENDBRANCH   2   5
BRANCH   1  23
HETATM   23  C   UNL     1      40.935 -10.026   2.433  1.00  0.00     0.155 C 
BRANCH  23  24
HETATM   24  C   UNL     1      39.953  -8.887   2.114  1.00  0.00     0.043 C 
BRANCH  24  25
HETATM   25  C   UNL     1      38.496  -9.322   1.964  1.00  0.00     0.076 C 
BRANCH  25  26
HETATM   26  S   UNL     1      37.751  -9.057   0.317  1.00  0.00    -0.173 SA
HETATM   27  C   UNL     1      36.050  -9.590   0.644  1.00  0.00     0.089 C 
ENDBRANCH  25  26
ENDBRANCH  24  25
ENDBRANCH  23  24
BRANCH  23  28
HETATM   28  C   UNL     1      40.764 -11.169   1.465  1.00  0.00     0.128 A 
HETATM   29  N   UNL     1      40.349 -12.396   1.724  1.00  0.00    -0.231 NA
HETATM   30  C   UNL     1      40.241 -13.015   0.501  1.00  0.00     0.085 A 
HETATM   31  C   UNL     1      40.636 -12.164  -0.525  1.00  0.00     0.062 A 
HETATM   32  C   UNL     1      39.798 -14.308   0.187  1.00  0.00     0.034 A 
HETATM   33  N   UNL     1      40.964 -10.998   0.114  1.00  0.00    -0.341 N 
HETATM   34  C   UNL     1      40.635 -12.535  -1.871  1.00  0.00     0.032 A 
HETATM   35  H   UNL     1      41.280 -10.135  -0.315  1.00  0.00     0.167 HD
HETATM   36  C   UNL     1      40.191 -13.830  -2.167  1.00  0.00     0.002 A 
HETATM   37  C   UNL     1      39.774 -14.702  -1.158  1.00  0.00     0.002 A 
ENDBRANCH  23  28
ENDBRANCH   1  23
TORSDOF 7
ENDMDL
MODEL 6
REMARK VINA RESULT:      -8.2      3.789      6.240
REMARK  7 active torsions:
REMARK  status: ('A' for Active; 'I' for Inactive)
REMARK    1  A    between atoms: S_2  and  C_3 
REMARK    2  A    between atoms: C_3  and  C_4 
REMARK    3  A    between atoms: C_4  and  C_5 
REMARK    4  A    between atoms: C_5  and  N_6 
REMARK    5  A    between atoms: C_5  and  C_26 
REMARK       I    between atoms: N_6  and  C_7 
REMARK    6  A    between atoms: C_7  and  C_8 
REMARK    7  A    between atoms: C_8  and  N_9 
ROOT
HETATM    1  N   UNL     1      41.859 -13.120   5.516  1.00  0.00    -0.348 N 
HETATM    2  C   UNL     1      40.523 -12.839   5.709  1.00  0.00     0.236 C 
HETATM    3  O   UNL     1      39.830 -13.503   6.484  1.00  0.00    -0.272 OA
HETATM    4  H   UNL     1      42.245 -12.926   4.595  1.00  0.00     0.163 HD
ENDROOT
BRANCH   2   5
HETATM    5  C   UNL     1      39.879 -11.825   4.765  1.00  0.00     0.239 C 
BRANCH   5   6
HETATM    6  N   UNL     1      39.934 -10.440   5.185  1.00  0.00    -0.259 N 
HETATM    7  C   UNL     1      38.935  -9.808   5.848  1.00  0.00     0.326 A 
HETATM    8  O   UNL     1      37.805 -10.234   6.025  1.00  0.00    -0.247 OA
HETATM    9  N   UNL     1      39.388  -8.594   6.289  1.00  0.00    -0.320 N 
HETATM   10  C   UNL     1      40.776  -8.354   5.942  1.00  0.00     0.144 A 
HETATM   11  H   UNL     1      38.832  -8.007   6.895  1.00  0.00     0.165 HD
HETATM   12  C   UNL     1      41.619  -8.190   7.201  1.00  0.00    -0.014 A 
HETATM   13  C   UNL     1      40.892  -7.164   4.978  1.00  0.00     0.047 C 
HETATM   14  C   UNL     1      41.065  -9.666   5.168  1.00  0.00     0.261 A 
HETATM   15  C   UNL     1      42.095  -6.918   7.590  1.00  0.00    -0.049 A 
HETATM   16  C   UNL     1      41.914  -9.294   8.026  1.00  0.00     0.011 A 
HETATM   17  C   UNL     1      42.875  -6.789   8.752  1.00  0.00     0.007 A 
HETATM   18  C   UNL     1      41.857  -5.683   6.755  1.00  0.00     0.039 C 
HETATM   19  C   UNL     1      43.170  -7.898   9.540  1.00  0.00     0.001 A 
HETATM   20  C   UNL     1      42.687  -9.150   9.180  1.00  0.00     0.001 A 
HETATM   21  C   UNL     1      40.740  -5.845   5.731  1.00  0.00     0.008 C 
HETATM   22  O   UNL     1      42.133  -9.978   4.658  1.00  0.00    -0.270 OA
ENDBRANCH   5   6
ENDBRANCH   2   5
BRANCH   1  23
HETATM   23  C   UNL     1      42.510 -14.171   6.297  1.00  0.00     0.155 C 
BRANCH  23  24
HETATM   24  C   UNL     1      43.753 -13.649   7.034  1.00  0.00     0.043 C 
BRANCH  24  25
HETATM   25  C   UNL     1      43.862 -12.126   7.104  1.00  0.00     0.076 C 
BRANCH  25  26
HETATM   26  S   UNL     1      45.401 -11.405   6.433  1.00  0.00    -0.173 SA
HETATM   27  C   UNL     1      45.986 -10.490   7.884  1.00  0.00     0.089 C 
ENDBRANCH  25  26
ENDBRANCH  24  25
ENDBRANCH  23  24
BRANCH  23  28
HETATM   28  C   UNL     1      42.868 -15.316   5.384  1.00  0.00     0.128 A 
HETATM   29  N   UNL     1      43.744 -16.281   5.597  1.00  0.00    -0.231 NA
HETATM   30  C   UNL     1      43.611 -17.143   4.535  1.00  0.00     0.085 A 
HETATM   31  C   UNL     1      42.662 -16.677   3.631  1.00  0.00     0.062 A 
HETATM   32  C   UNL     1      44.263 -18.358   4.279  1.00  0.00     0.034 A 
HETATM   33  N   UNL     1      42.206 -15.515   4.193  1.00  0.00    -0.341 N 
HETATM   34  C   UNL     1      42.329 -17.351   2.454  1.00  0.00     0.032 A 
HETATM   35  H   UNL     1      41.487 -14.900   3.826  1.00  0.00     0.167 HD
HETATM   36  C   UNL     1      42.991 -18.562   2.214  1.00  0.00     0.002 A 
HETATM   37  C   UNL     1      43.938 -19.062   3.112  1.00  0.00     0.002 A 
ENDBRANCH  23  28
ENDBRANCH   1  23
TORSDOF 7
ENDMDL
MODEL 7
REMARK VINA RESULT:      -8.2      3.093      8.812
REMARK  7 active torsions:
REMARK  status: ('A' for Active; 'I' for Inactive)
REMARK    1  A    between atoms: S_2  and  C_3 
REMARK    2  A    between atoms: C_3  and  C_4 
REMARK    3  A    between atoms: C_4  and  C_5 
REMARK    4  A    between atoms: C_5  and  N_6 
REMARK    5  A    between atoms: C_5  and  C_26 
REMARK       I    between atoms: N_6  and  C_7 
REMARK    6  A    between atoms: C_7  and  C_8 
REMARK    7  A    between atoms: C_8  and  N_9 
ROOT
HETATM    1  N   UNL     1      39.974 -12.684  -0.720  1.00  0.00    -0.348 N 
HETATM    2  C   UNL     1      40.286 -13.244   0.501  1.00  0.00     0.236 C 
HETATM    3  O   UNL     1      40.112 -12.628   1.555  1.00  0.00    -0.272 OA
HETATM    4  H   UNL     1      40.543 -12.963  -1.517  1.00  0.00     0.163 HD
ENDROOT
BRANCH   2   5
HETATM    5  C   UNL     1      41.059 -14.561   0.489  1.00  0.00     0.239 C 
BRANCH   5   6
HETATM    6  N   UNL     1      41.369 -15.130   1.783  1.00  0.00    -0.259 N 
HETATM    7  C   UNL     1      40.440 -15.630   2.634  1.00  0.00     0.326 A 
HETATM    8  O   UNL     1      39.230 -15.515   2.528  1.00  0.00    -0.247 OA
HETATM    9  N   UNL     1      41.074 -16.286   3.655  1.00  0.00    -0.320 N 
HETATM   10  C   UNL     1      42.518 -16.271   3.519  1.00  0.00     0.144 A 
HETATM   11  H   UNL     1      40.562 -16.819   4.344  1.00  0.00     0.165 HD
HETATM   12  C   UNL     1      43.056 -17.691   3.386  1.00  0.00    -0.014 A 
HETATM   13  C   UNL     1      43.160 -15.489   4.675  1.00  0.00     0.047 C 
HETATM   14  C   UNL     1      42.632 -15.439   2.216  1.00  0.00     0.261 A 
HETATM   15  C   UNL     1      43.739 -18.308   4.458  1.00  0.00    -0.049 A 
HETATM   16  C   UNL     1      42.854 -18.435   2.206  1.00  0.00     0.011 A 
HETATM   17  C   UNL     1      44.230 -19.616   4.313  1.00  0.00     0.007 A 
HETATM   18  C   UNL     1      44.029 -17.580   5.748  1.00  0.00     0.039 C 
HETATM   19  C   UNL     1      44.036 -20.324   3.130  1.00  0.00     0.001 A 
HETATM   20  C   UNL     1      43.345 -19.736   2.078  1.00  0.00     0.001 A 
HETATM   21  C   UNL     1      43.181 -16.330   5.948  1.00  0.00     0.008 C 
HETATM   22  O   UNL     1      43.673 -15.137   1.645  1.00  0.00    -0.270 OA
ENDBRANCH   5   6
ENDBRANCH   2   5
BRANCH   1  23
HETATM   23  C   UNL     1      39.348 -11.364  -0.786  1.00  0.00     0.155 C 
BRANCH  23  24
HETATM   24  C   UNL     1      38.002 -11.406  -1.527  1.00  0.00     0.043 C 
BRANCH  24  25
HETATM   25  C   UNL     1      37.012 -10.317  -1.116  1.00  0.00     0.076 C 
BRANCH  25  26
HETATM   26  S   UNL     1      36.584 -10.257   0.660  1.00  0.00    -0.173 SA
HETATM   27  C   UNL     1      37.322  -8.666   1.115  1.00  0.00     0.089 C 
ENDBRANCH  25  26
ENDBRANCH  24  25
ENDBRANCH  23  24
BRANCH  23  28
HETATM   28  C   UNL     1      40.297 -10.399  -1.450  1.00  0.00     0.128 A 
HETATM   29  N   UNL     1      40.296  -9.996  -2.707  1.00  0.00    -0.231 NA
HETATM   30  C   UNL     1      41.269  -9.028  -2.787  1.00  0.00     0.085 A 
HETATM   31  C   UNL     1      41.907  -8.861  -1.562  1.00  0.00     0.062 A 
HETATM   32  C   UNL     1      41.657  -8.233  -3.875  1.00  0.00     0.034 A 
HETATM   33  N   UNL     1      41.272  -9.745  -0.730  1.00  0.00    -0.341 N 
HETATM   34  C   UNL     1      42.942  -7.947  -1.355  1.00  0.00     0.032 A 
HETATM   35  H   UNL     1      41.454  -9.893   0.256  1.00  0.00     0.167 HD
HETATM   36  C   UNL     1      43.318  -7.163  -2.454  1.00  0.00     0.002 A 
HETATM   37  C   UNL     1      42.685  -7.298  -3.692  1.00  0.00     0.002 A 
ENDBRANCH  23  28
ENDBRANCH   1  23
TORSDOF 7
ENDMDL
MODEL 8
REMARK VINA RESULT:      -7.9      2.474      6.307
REMARK  7 active torsions:
REMARK  status: ('A' for Active; 'I' for Inactive)
REMARK    1  A    between atoms: S_2  and  C_3 
REMARK    2  A    between atoms: C_3  and  C_4 
REMARK    3  A    between atoms: C_4  and  C_5 
REMARK    4  A    between atoms: C_5  and  N_6 
REMARK    5  A    between atoms: C_5  and  C_26 
REMARK       I    between atoms: N_6  and  C_7 
REMARK    6  A    between atoms: C_7  and  C_8 
REMARK    7  A    between atoms: C_8  and  N_9 
ROOT
HETATM    1  N   UNL     1      41.703 -15.188   3.640  1.00  0.00    -0.348 N 
HETATM    2  C   UNL     1      41.282 -15.438   4.929  1.00  0.00     0.236 C 
HETATM    3  O   UNL     1      40.410 -16.277   5.171  1.00  0.00    -0.272 OA
HETATM    4  H   UNL     1      42.006 -14.241   3.426  1.00  0.00     0.163 HD
ENDROOT
BRANCH   2   5
HETATM    5  C   UNL     1      41.770 -14.487   6.020  1.00  0.00     0.239 C 
BRANCH   5   6
HETATM    6  N   UNL     1      41.468 -13.085   5.824  1.00  0.00    -0.259 N 
HETATM    7  C   UNL     1      42.346 -12.184   5.319  1.00  0.00     0.326 A 
HETATM    8  O   UNL     1      43.538 -12.366   5.133  1.00  0.00    -0.247 OA
HETATM    9  N   UNL     1      41.685 -11.014   5.056  1.00  0.00    -0.320 N 
HETATM   10  C   UNL     1      40.270 -11.088   5.368  1.00  0.00     0.144 A 
HETATM   11  H   UNL     1      42.134 -10.245   4.579  1.00  0.00     0.165 HD
HETATM   12  C   UNL     1      39.435 -10.870   4.112  1.00  0.00    -0.014 A 
HETATM   13  C   UNL     1      39.918 -10.113   6.502  1.00  0.00     0.047 C 
HETATM   14  C   UNL     1      40.214 -12.539   5.909  1.00  0.00     0.261 A 
HETATM   15  C   UNL     1      38.740  -9.657   3.907  1.00  0.00    -0.049 A 
HETATM   16  C   UNL     1      39.364 -11.858   3.108  1.00  0.00     0.011 A 
HETATM   17  C   UNL     1      37.972  -9.480   2.744  1.00  0.00     0.007 A 
HETATM   18  C   UNL     1      38.730  -8.555   4.939  1.00  0.00     0.039 C 
HETATM   19  C   UNL     1      37.901 -10.478   1.776  1.00  0.00     0.001 A 
HETATM   20  C   UNL     1      38.600 -11.665   1.956  1.00  0.00     0.001 A 
HETATM   21  C   UNL     1      39.838  -8.682   5.977  1.00  0.00     0.008 C 
HETATM   22  O   UNL     1      39.212 -13.117   6.310  1.00  0.00    -0.270 OA
ENDBRANCH   5   6
ENDBRANCH   2   5
BRANCH   1  23
HETATM   23  C   UNL     1      41.176 -15.979   2.528  1.00  0.00     0.155 C 
BRANCH  23  24
HETATM   24  C   UNL     1      42.183 -17.040   2.054  1.00  0.00     0.043 C 
BRANCH  24  25
HETATM   25  C   UNL     1      43.326 -17.317   3.029  1.00  0.00     0.076 C 
BRANCH  25  26
HETATM   26  S   UNL     1      43.924 -19.042   3.088  1.00  0.00    -0.173 SA
HETATM   27  C   UNL     1      44.173 -19.236   4.872  1.00  0.00     0.089 C 
ENDBRANCH  25  26
ENDBRANCH  24  25
ENDBRANCH  23  24
BRANCH  23  28
HETATM   28  C   UNL     1      40.799 -15.055   1.398  1.00  0.00     0.128 A 
HETATM   29  N   UNL     1      41.355 -13.902   1.073  1.00  0.00    -0.231 NA
HETATM   30  C   UNL     1      40.745 -13.513  -0.095  1.00  0.00     0.085 A 
HETATM   31  C   UNL     1      39.767 -14.426  -0.475  1.00  0.00     0.062 A 
HETATM   32  C   UNL     1      40.985 -12.391  -0.902  1.00  0.00     0.034 A 
HETATM   33  N   UNL     1      39.820 -15.395   0.491  1.00  0.00    -0.341 N 
HETATM   34  C   UNL     1      38.984 -14.277  -1.621  1.00  0.00     0.032 A 
HETATM   35  H   UNL     1      39.262 -16.240   0.540  1.00  0.00     0.167 HD
HETATM   36  C   UNL     1      39.236 -13.150  -2.414  1.00  0.00     0.002 A 
HETATM   37  C   UNL     1      40.222 -12.224  -2.066  1.00  0.00     0.002 A 
ENDBRANCH  23  28
ENDBRANCH   1  23
TORSDOF 7
ENDMDL
MODEL 9
REMARK VINA RESULT:      -7.8      1.802      2.216
REMARK  7 active torsions:
REMARK  status: ('A' for Active; 'I' for Inactive)
REMARK    1  A    between atoms: S_2  and  C_3 
REMARK    2  A    between atoms: C_3  and  C_4 
REMARK    3  A    between atoms: C_4  and  C_5 
REMARK    4  A    between atoms: C_5  and  N_6 
REMARK    5  A    between atoms: C_5  and  C_26 
REMARK       I    between atoms: N_6  and  C_7 
REMARK    6  A    between atoms: C_7  and  C_8 
REMARK    7  A    between atoms: C_8  and  N_9 
ROOT
HETATM    1  N   UNL     1      41.535 -12.773   5.116  1.00  0.00    -0.348 N 
HETATM    2  C   UNL     1      40.240 -12.383   5.383  1.00  0.00     0.236 C 
HETATM    3  O   UNL     1      39.586 -12.899   6.294  1.00  0.00    -0.272 OA
HETATM    4  H   UNL     1      41.845 -12.721   4.148  1.00  0.00     0.163 HD
ENDROOT
BRANCH   2   5
HETATM    5  C   UNL     1      39.568 -11.453   4.375  1.00  0.00     0.239 C 
BRANCH   5   6
HETATM    6  N   UNL     1      39.700 -11.822   2.982  1.00  0.00    -0.259 N 
HETATM    7  C   UNL     1      39.411 -13.053   2.493  1.00  0.00     0.326 A 
HETATM    8  O   UNL     1      39.183 -14.054   3.151  1.00  0.00    -0.247 OA
HETATM    9  N   UNL     1      39.425 -13.006   1.124  1.00  0.00    -0.320 N 
HETATM   10  C   UNL     1      39.718 -11.681   0.612  1.00  0.00     0.144 A 
HETATM   11  H   UNL     1      39.135 -13.795   0.562  1.00  0.00     0.165 HD
HETATM   12  C   UNL     1      38.548 -11.158  -0.213  1.00  0.00    -0.014 A 
HETATM   13  C   UNL     1      41.046 -11.683  -0.159  1.00  0.00     0.047 C 
HETATM   14  C   UNL     1      39.912 -10.936   1.958  1.00  0.00     0.261 A 
HETATM   15  C   UNL     1      38.629 -11.094  -1.622  1.00  0.00    -0.049 A 
HETATM   16  C   UNL     1      37.345 -10.760   0.405  1.00  0.00     0.011 A 
HETATM   17  C   UNL     1      37.540 -10.604  -2.363  1.00  0.00     0.007 A 
HETATM   18  C   UNL     1      39.886 -11.469  -2.370  1.00  0.00     0.039 C 
HETATM   19  C   UNL     1      36.370 -10.198  -1.728  1.00  0.00     0.001 A 
HETATM   20  C   UNL     1      36.270 -10.280  -0.345  1.00  0.00     0.001 A 
HETATM   21  C   UNL     1      40.863 -12.296  -1.545  1.00  0.00     0.008 C 
HETATM   22  O   UNL     1      40.174  -9.747   2.089  1.00  0.00    -0.270 OA
ENDBRANCH   5   6
ENDBRANCH   2   5
BRANCH   1  23
HETATM   23  C   UNL     1      42.196 -13.761   5.969  1.00  0.00     0.155 C 
BRANCH  23  24
HETATM   24  C   UNL     1      43.410 -13.164   6.699  1.00  0.00     0.043 C 
BRANCH  24  25
HETATM   25  C   UNL     1      43.919 -11.845   6.119  1.00  0.00     0.076 C 
BRANCH  25  26
HETATM   26  S   UNL     1      45.545 -11.280   6.731  1.00  0.00    -0.173 SA
HETATM   27  C   UNL     1      45.019 -10.037   7.940  1.00  0.00     0.089 C 
ENDBRANCH  25  26
ENDBRANCH  24  25
ENDBRANCH  23  24
BRANCH  23  28
HETATM   28  C   UNL     1      42.603 -14.945   5.129  1.00  0.00     0.128 A 
HETATM   29  N   UNL     1      43.538 -15.841   5.389  1.00  0.00    -0.231 NA
HETATM   30  C   UNL     1      43.435 -16.782   4.393  1.00  0.00     0.085 A 
HETATM   31  C   UNL     1      42.443 -16.437   3.481  1.00  0.00     0.062 A 
HETATM   32  C   UNL     1      44.152 -17.973   4.207  1.00  0.00     0.034 A 
HETATM   33  N   UNL     1      41.930 -15.266   3.971  1.00  0.00    -0.341 N 
HETATM   34  C   UNL     1      42.127 -17.211   2.363  1.00  0.00     0.032 A 
HETATM   35  H   UNL     1      41.170 -14.721   3.580  1.00  0.00     0.167 HD
HETATM   36  C   UNL     1      42.854 -18.397   2.192  1.00  0.00     0.002 A 
HETATM   37  C   UNL     1      43.846 -18.776   3.100  1.00  0.00     0.002 A 
ENDBRANCH  23  28
ENDBRANCH   1  23
TORSDOF 7
ENDMDL
MODEL 10
REMARK VINA RESULT:      -7.7      2.732      6.062
REMARK  7 active torsions:
REMARK  status: ('A' for Active; 'I' for Inactive)
REMARK    1  A    between atoms: S_2  and  C_3 
REMARK    2  A    between atoms: C_3  and  C_4 
REMARK    3  A    between atoms: C_4  and  C_5 
REMARK    4  A    between atoms: C_5  and  N_6 
REMARK    5  A    between atoms: C_5  and  C_26 
REMARK       I    between atoms: N_6  and  C_7 
REMARK    6  A    between atoms: C_7  and  C_8 
REMARK    7  A    between atoms: C_8  and  N_9 
ROOT
HETATM    1  N   UNL     1      41.932 -14.083   2.888  1.00  0.00    -0.348 N 
HETATM    2  C   UNL     1      41.438 -13.962   4.169  1.00  0.00     0.236 C 
HETATM    3  O   UNL     1      40.600 -14.752   4.614  1.00  0.00    -0.272 OA
HETATM    4  H   UNL     1      42.195 -13.224   2.409  1.00  0.00     0.163 HD
ENDROOT
BRANCH   2   5
HETATM    5  C   UNL     1      41.793 -12.691   4.938  1.00  0.00     0.239 C 
BRANCH   5   6
HETATM    6  N   UNL     1      41.475 -11.440   4.283  1.00  0.00    -0.259 N 
HETATM    7  C   UNL     1      42.255 -10.859   3.339  1.00  0.00     0.326 A 
HETATM    8  O   UNL     1      43.391 -11.189   3.040  1.00  0.00    -0.247 OA
HETATM    9  N   UNL     1      41.569  -9.820   2.768  1.00  0.00    -0.320 N 
HETATM   10  C   UNL     1      40.234  -9.664   3.314  1.00  0.00     0.144 A 
HETATM   11  H   UNL     1      41.932  -9.318   1.970  1.00  0.00     0.165 HD
HETATM   12  C   UNL     1      39.186  -9.859   2.225  1.00  0.00    -0.014 A 
HETATM   13  C   UNL     1      40.105  -8.316   4.040  1.00  0.00     0.047 C 
HETATM   14  C   UNL     1      40.262 -10.806   4.362  1.00  0.00     0.261 A 
HETATM   15  C   UNL     1      38.478  -8.756   1.698  1.00  0.00    -0.049 A 
HETATM   16  C   UNL     1      38.924 -11.138   1.692  1.00  0.00     0.011 A 
HETATM   17  C   UNL     1      37.513  -8.960   0.697  1.00  0.00     0.007 A 
HETATM   18  C   UNL     1      38.668  -7.355   2.226  1.00  0.00     0.039 C 
HETATM   19  C   UNL     1      37.257 -10.235   0.201  1.00  0.00     0.001 A 
HETATM   20  C   UNL     1      37.965 -11.324   0.695  1.00  0.00     0.001 A 
HETATM   21  C   UNL     1      39.945  -7.177   3.037  1.00  0.00     0.008 C 
HETATM   22  O   UNL     1      39.345 -11.116   5.111  1.00  0.00    -0.270 OA
ENDBRANCH   5   6
ENDBRANCH   2   5
BRANCH   1  23
HETATM   23  C   UNL     1      41.531 -15.211   2.048  1.00  0.00     0.155 C 
BRANCH  23  24
HETATM   24  C   UNL     1      42.707 -16.159   1.763  1.00  0.00     0.043 C 
BRANCH  24  25
HETATM   25  C   UNL     1      43.240 -16.902   2.988  1.00  0.00     0.076 C 
BRANCH  25  26
HETATM   26  S   UNL     1      43.582 -18.681   2.755  1.00  0.00    -0.173 SA
HETATM   27  C   UNL     1      44.389 -19.063   4.332  1.00  0.00     0.089 C 
ENDBRANCH  25  26
ENDBRANCH  24  25
ENDBRANCH  23  24
BRANCH  23  28
HETATM   28  C   UNL     1      40.942 -14.686   0.764  1.00  0.00     0.128 A 
HETATM   29  N   UNL     1      39.921 -15.172   0.081  1.00  0.00    -0.231 NA
HETATM   30  C   UNL     1      39.693 -14.273  -0.933  1.00  0.00     0.085 A 
HETATM   31  C   UNL     1      40.617 -13.234  -0.896  1.00  0.00     0.062 A 
HETATM   32  C   UNL     1      38.699 -14.270  -1.923  1.00  0.00     0.034 A 
HETATM   33  N   UNL     1      41.400 -13.521   0.190  1.00  0.00    -0.341 N 
HETATM   34  C   UNL     1      40.625 -12.182  -1.814  1.00  0.00     0.032 A 
HETATM   35  H   UNL     1      42.175 -12.972   0.546  1.00  0.00     0.167 HD
HETATM   36  C   UNL     1      39.627 -12.197  -2.797  1.00  0.00     0.002 A 
HETATM   37  C   UNL     1      38.676 -13.219  -2.850  1.00  0.00     0.002 A 
ENDBRANCH  23  28
ENDBRANCH   1  23
TORSDOF 7
ENDMDL
