MODEL 1
REMARK VINA RESULT:      -9.9      0.000      0.000
REMARK  4 active torsions:
REMARK  status: ('A' for Active; 'I' for Inactive)
REMARK    1  A    between atoms: C_5  and  C_6 
REMARK       I    between atoms: C_6  and  N_7 
REMARK    2  A    between atoms: N_7  and  C_8 
REMARK    3  A    between atoms: C_12  and  C_13 
REMARK    4  A    between atoms: C_13  and  C_14 
ROOT
HETATM    1  C   UNL     1      40.538 -15.501   1.872  1.00  0.00     0.747 A 
HETATM    2  N   UNL     1      39.965 -15.745   3.055  1.00  0.00     0.020 NA
HETATM    3  N   UNL     1      41.016 -16.151   3.788  1.00  0.00    -0.248 N 
HETATM    4  H   UNL     1      40.873 -16.439   4.749  1.00  0.00     0.191 HD
HETATM    5  C   UNL     1      42.163 -16.147   3.050  1.00  0.00     0.144 A 
HETATM    6  N   UNL     1      41.882 -15.712   1.843  1.00  0.00    -0.046 NA
ENDROOT
BRANCH   1   7
HETATM    7  N   UNL     1      39.791 -15.119   0.796  1.00  0.00    -0.150 N 
HETATM    8  C   UNL     1      40.030 -14.006   0.030  1.00  0.00     0.271 C 
HETATM    9  O   UNL     1      40.903 -13.162   0.197  1.00  0.00    -0.267 OA
HETATM   10  H   UNL     1      39.085 -15.790   0.540  1.00  0.00     0.188 HD
BRANCH   8  11
HETATM   11  C   UNL     1      39.166 -13.880  -1.170  1.00  0.00     0.045 A 
HETATM   12  C   UNL     1      38.343 -12.754  -1.413  1.00  0.00     0.008 A 
HETATM   13  C   UNL     1      37.531 -12.767  -2.553  1.00  0.00     0.043 A 
HETATM   14  C   UNL     1      38.119 -11.495  -0.776  1.00  0.00     0.032 A 
HETATM   15  C   UNL     1      37.514 -13.830  -3.465  1.00  0.00     0.030 A 
HETATM   16  N   UNL     1      36.819 -11.588  -2.568  1.00  0.00    -0.365 N 
HETATM   17  C   UNL     1      38.359 -14.915  -3.222  1.00  0.00     0.003 A 
HETATM   18  C   UNL     1      39.175 -14.941  -2.095  1.00  0.00     0.018 A 
HETATM   19  H   UNL     1      36.150 -11.333  -3.281  1.00  0.00     0.165 HD
HETATM   20  C   UNL     1      37.169 -10.811  -1.499  1.00  0.00     0.089 A 
ENDBRANCH   8  11
ENDBRANCH   1   7
BRANCH   5  21
HETATM   21  C   UNL     1      43.475 -16.633   3.557  1.00  0.00     0.119 C 
BRANCH  21  22
HETATM   22  C   UNL     1      43.603 -18.142   3.522  1.00  0.00    -0.045 A 
HETATM   23  C   UNL     1      43.398 -18.860   2.332  1.00  0.00     0.050 A 
HETATM   24  C   UNL     1      43.536 -20.247   2.312  1.00  0.00     0.119 A 
HETATM   25  F   UNL     1      43.318 -20.915   1.173  1.00  0.00    -0.206 F 
HETATM   26  C   UNL     1      43.897 -20.947   3.454  1.00  0.00     0.084 A 
HETATM   27  C   UNL     1      44.124 -20.239   4.624  1.00  0.00     0.119 A 
HETATM   28  F   UNL     1      44.485 -20.897   5.733  1.00  0.00    -0.206 F 
HETATM   29  C   UNL     1      43.985 -18.851   4.670  1.00  0.00     0.050 A 
ENDBRANCH  21  22
ENDBRANCH   5  21
TORSDOF 4
ENDMDL
MODEL 2
REMARK VINA RESULT:      -9.7      0.731      1.858
REMARK  4 active torsions:
REMARK  status: ('A' for Active; 'I' for Inactive)
REMARK    1  A    between atoms: C_5  and  C_6 
REMARK       I    between atoms: C_6  and  N_7 
REMARK    2  A    between atoms: N_7  and  C_8 
REMARK    3  A    between atoms: C_12  and  C_13 
REMARK    4  A    between atoms: C_13  and  C_14 
ROOT
HETATM    1  C   UNL     1      40.456 -15.076   2.128  1.00  0.00     0.747 A 
HETATM    2  N   UNL     1      39.916 -15.830   3.091  1.00  0.00     0.020 NA
HETATM    3  N   UNL     1      41.007 -16.377   3.653  1.00  0.00    -0.248 N 
HETATM    4  H   UNL     1      40.899 -17.037   4.415  1.00  0.00     0.191 HD
HETATM    5  C   UNL     1      42.146 -15.956   3.032  1.00  0.00     0.144 A 
HETATM    6  N   UNL     1      41.815 -15.110   2.082  1.00  0.00    -0.046 NA
ENDROOT
BRANCH   1   7
HETATM    7  N   UNL     1      39.669 -14.381   1.256  1.00  0.00    -0.150 N 
HETATM    8  C   UNL     1      40.087 -13.316   0.500  1.00  0.00     0.271 C 
HETATM    9  O   UNL     1      41.193 -12.789   0.506  1.00  0.00    -0.267 OA
HETATM   10  H   UNL     1      38.754 -14.784   1.134  1.00  0.00     0.188 HD
BRANCH   8  11
HETATM   11  C   UNL     1      39.088 -12.818  -0.478  1.00  0.00     0.045 A 
HETATM   12  C   UNL     1      38.724 -13.538  -1.642  1.00  0.00     0.008 A 
HETATM   13  C   UNL     1      37.808 -12.948  -2.521  1.00  0.00     0.043 A 
HETATM   14  C   UNL     1      39.040 -14.818  -2.194  1.00  0.00     0.032 A 
HETATM   15  C   UNL     1      37.228 -11.694  -2.288  1.00  0.00     0.030 A 
HETATM   16  N   UNL     1      37.624 -13.816  -3.573  1.00  0.00    -0.365 N 
HETATM   17  C   UNL     1      37.576 -11.018  -1.117  1.00  0.00     0.003 A 
HETATM   18  C   UNL     1      38.489 -11.570  -0.224  1.00  0.00     0.018 A 
HETATM   19  H   UNL     1      37.013 -13.642  -4.360  1.00  0.00     0.165 HD
HETATM   20  C   UNL     1      38.363 -14.952  -3.384  1.00  0.00     0.089 A 
ENDBRANCH   8  11
ENDBRANCH   1   7
BRANCH   5  21
HETATM   21  C   UNL     1      43.505 -16.458   3.368  1.00  0.00     0.119 C 
BRANCH  21  22
HETATM   22  C   UNL     1      43.594 -17.970   3.381  1.00  0.00    -0.045 A 
HETATM   23  C   UNL     1      43.341 -18.722   2.221  1.00  0.00     0.050 A 
HETATM   24  C   UNL     1      43.443 -20.112   2.246  1.00  0.00     0.119 A 
HETATM   25  F   UNL     1      43.179 -20.812   1.136  1.00  0.00    -0.206 F 
HETATM   26  C   UNL     1      43.814 -20.783   3.402  1.00  0.00     0.084 A 
HETATM   27  C   UNL     1      44.089 -20.042   4.541  1.00  0.00     0.119 A 
HETATM   28  F   UNL     1      44.460 -20.672   5.663  1.00  0.00    -0.206 F 
HETATM   29  C   UNL     1      43.987 -18.650   4.543  1.00  0.00     0.050 A 
ENDBRANCH  21  22
ENDBRANCH   5  21
TORSDOF 4
ENDMDL
MODEL 3
REMARK VINA RESULT:      -9.6      0.738      2.461
REMARK  4 active torsions:
REMARK  status: ('A' for Active; 'I' for Inactive)
REMARK    1  A    between atoms: C_5  and  C_6 
REMARK       I    between atoms: C_6  and  N_7 
REMARK    2  A    between atoms: N_7  and  C_8 
REMARK    3  A    between atoms: C_12  and  C_13 
REMARK    4  A    between atoms: C_13  and  C_14 
ROOT
HETATM    1  C   UNL     1      40.473 -15.100   2.126  1.00  0.00     0.747 A 
HETATM    2  N   UNL     1      39.942 -15.855   3.093  1.00  0.00     0.020 NA
HETATM    3  N   UNL     1      41.040 -16.388   3.656  1.00  0.00    -0.248 N 
HETATM    4  H   UNL     1      40.940 -17.045   4.420  1.00  0.00     0.191 HD
HETATM    5  C   UNL     1      42.173 -15.956   3.032  1.00  0.00     0.144 A 
HETATM    6  N   UNL     1      41.832 -15.119   2.078  1.00  0.00    -0.046 NA
ENDROOT
BRANCH   1   7
HETATM    7  N   UNL     1      39.677 -14.418   1.252  1.00  0.00    -0.150 N 
HETATM    8  C   UNL     1      40.057 -13.301   0.552  1.00  0.00     0.271 C 
HETATM    9  O   UNL     1      41.129 -12.711   0.618  1.00  0.00    -0.267 OA
HETATM   10  H   UNL     1      38.792 -14.868   1.081  1.00  0.00     0.188 HD
BRANCH   8  11
HETATM   11  C   UNL     1      39.065 -12.824  -0.444  1.00  0.00     0.045 A 
HETATM   12  C   UNL     1      38.728 -13.555  -1.608  1.00  0.00     0.008 A 
HETATM   13  C   UNL     1      37.817 -12.983  -2.504  1.00  0.00     0.043 A 
HETATM   14  C   UNL     1      39.072 -14.834  -2.148  1.00  0.00     0.032 A 
HETATM   15  C   UNL     1      37.215 -11.737  -2.287  1.00  0.00     0.030 A 
HETATM   16  N   UNL     1      37.661 -13.861  -3.554  1.00  0.00    -0.365 N 
HETATM   17  C   UNL     1      37.536 -11.050  -1.114  1.00  0.00     0.003 A 
HETATM   18  C   UNL     1      38.444 -11.583  -0.205  1.00  0.00     0.018 A 
HETATM   19  H   UNL     1      37.059 -13.700  -4.350  1.00  0.00     0.165 HD
HETATM   20  C   UNL     1      38.413 -14.983  -3.347  1.00  0.00     0.089 A 
ENDBRANCH   8  11
ENDBRANCH   1   7
BRANCH   5  21
HETATM   21  C   UNL     1      43.539 -16.442   3.368  1.00  0.00     0.119 C 
BRANCH  21  22
HETATM   22  C   UNL     1      43.647 -17.952   3.378  1.00  0.00    -0.045 A 
HETATM   23  C   UNL     1      44.011 -18.647   4.544  1.00  0.00     0.050 A 
HETATM   24  C   UNL     1      44.090 -20.038   4.541  1.00  0.00     0.119 A 
HETATM   25  F   UNL     1      44.457 -20.680   5.657  1.00  0.00    -0.206 F 
HETATM   26  C   UNL     1      43.795 -20.770   3.401  1.00  0.00     0.084 A 
HETATM   27  C   UNL     1      43.411 -20.089   2.255  1.00  0.00     0.119 A 
HETATM   28  F   UNL     1      43.110 -20.780   1.148  1.00  0.00    -0.206 F 
HETATM   29  C   UNL     1      43.332 -18.696   2.231  1.00  0.00     0.050 A 
ENDBRANCH  21  22
ENDBRANCH   5  21
TORSDOF 4
ENDMDL
MODEL 4
REMARK VINA RESULT:      -8.7      7.324     10.048
REMARK  4 active torsions:
REMARK  status: ('A' for Active; 'I' for Inactive)
REMARK    1  A    between atoms: C_5  and  C_6 
REMARK       I    between atoms: C_6  and  N_7 
REMARK    2  A    between atoms: N_7  and  C_8 
REMARK    3  A    between atoms: C_12  and  C_13 
REMARK    4  A    between atoms: C_13  and  C_14 
ROOT
HETATM    1  C   UNL     1      43.450 -12.494   6.208  1.00  0.00     0.747 A 
HETATM    2  N   UNL     1      42.438 -11.666   6.487  1.00  0.00     0.020 NA
HETATM    3  N   UNL     1      42.996 -10.852   7.399  1.00  0.00    -0.248 N 
HETATM    4  H   UNL     1      42.438 -10.120   7.823  1.00  0.00     0.191 HD
HETATM    5  C   UNL     1      44.292 -11.200   7.644  1.00  0.00     0.144 A 
HETATM    6  N   UNL     1      44.602 -12.221   6.878  1.00  0.00    -0.046 NA
ENDROOT
BRANCH   1   7
HETATM    7  N   UNL     1      43.282 -13.543   5.350  1.00  0.00    -0.150 N 
HETATM    8  C   UNL     1      42.716 -14.747   5.684  1.00  0.00     0.271 C 
HETATM    9  O   UNL     1      42.312 -15.098   6.786  1.00  0.00    -0.267 OA
HETATM   10  H   UNL     1      43.527 -13.324   4.398  1.00  0.00     0.188 HD
BRANCH   8  11
HETATM   11  C   UNL     1      42.514 -15.675   4.544  1.00  0.00     0.045 A 
HETATM   12  C   UNL     1      43.271 -16.859   4.371  1.00  0.00     0.008 A 
HETATM   13  C   UNL     1      43.030 -17.634   3.230  1.00  0.00     0.043 A 
HETATM   14  C   UNL     1      44.276 -17.549   5.118  1.00  0.00     0.032 A 
HETATM   15  C   UNL     1      42.065 -17.298   2.272  1.00  0.00     0.030 A 
HETATM   16  N   UNL     1      43.886 -18.711   3.272  1.00  0.00    -0.365 N 
HETATM   17  C   UNL     1      41.306 -16.145   2.482  1.00  0.00     0.003 A 
HETATM   18  C   UNL     1      41.524 -15.346   3.600  1.00  0.00     0.018 A 
HETATM   19  H   UNL     1      43.930 -19.435   2.568  1.00  0.00     0.165 HD
HETATM   20  C   UNL     1      44.642 -18.670   4.410  1.00  0.00     0.089 A 
ENDBRANCH   8  11
ENDBRANCH   1   7
BRANCH   5  21
HETATM   21  C   UNL     1      45.144 -10.544   8.672  1.00  0.00     0.119 C 
BRANCH  21  22
HETATM   22  C   UNL     1      44.344  -9.871   9.767  1.00  0.00    -0.045 A 
HETATM   23  C   UNL     1      43.941 -10.579  10.912  1.00  0.00     0.050 A 
HETATM   24  C   UNL     1      43.218  -9.941  11.918  1.00  0.00     0.119 A 
HETATM   25  F   UNL     1      42.827 -10.637  12.992  1.00  0.00    -0.206 F 
HETATM   26  C   UNL     1      42.898  -8.594  11.826  1.00  0.00     0.084 A 
HETATM   27  C   UNL     1      43.315  -7.887  10.709  1.00  0.00     0.119 A 
HETATM   28  F   UNL     1      43.025  -6.583  10.609  1.00  0.00    -0.206 F 
HETATM   29  C   UNL     1      44.033  -8.505   9.685  1.00  0.00     0.050 A 
ENDBRANCH  21  22
ENDBRANCH   5  21
TORSDOF 4
ENDMDL
MODEL 5
REMARK VINA RESULT:      -8.7      5.661      8.100
REMARK  4 active torsions:
REMARK  status: ('A' for Active; 'I' for Inactive)
REMARK    1  A    between atoms: C_5  and  C_6 
REMARK       I    between atoms: C_6  and  N_7 
REMARK    2  A    between atoms: N_7  and  C_8 
REMARK    3  A    between atoms: C_12  and  C_13 
REMARK    4  A    between atoms: C_13  and  C_14 
ROOT
HETATM    1  C   UNL     1      42.392 -13.128   5.000  1.00  0.00     0.747 A 
HETATM    2  N   UNL     1      41.087 -13.406   5.081  1.00  0.00     0.020 NA
HETATM    3  N   UNL     1      40.964 -14.396   4.180  1.00  0.00    -0.248 N 
HETATM    4  H   UNL     1      40.050 -14.797   4.000  1.00  0.00     0.191 HD
HETATM    5  C   UNL     1      42.161 -14.681   3.593  1.00  0.00     0.144 A 
HETATM    6  N   UNL     1      43.081 -13.905   4.120  1.00  0.00    -0.046 NA
ENDROOT
BRANCH   1   7
HETATM    7  N   UNL     1      42.939 -12.109   5.725  1.00  0.00    -0.150 N 
HETATM    8  C   UNL     1      43.596 -12.260   6.919  1.00  0.00     0.271 C 
HETATM    9  O   UNL     1      43.766 -13.298   7.548  1.00  0.00    -0.267 OA
HETATM   10  H   UNL     1      42.906 -11.220   5.253  1.00  0.00     0.188 HD
BRANCH   8  11
HETATM   11  C   UNL     1      44.226 -11.023   7.443  1.00  0.00     0.045 A 
HETATM   12  C   UNL     1      43.478  -9.896   7.863  1.00  0.00     0.008 A 
HETATM   13  C   UNL     1      44.180  -8.763   8.291  1.00  0.00     0.043 A 
HETATM   14  C   UNL     1      42.090  -9.585   8.006  1.00  0.00     0.032 A 
HETATM   15  C   UNL     1      45.579  -8.707   8.340  1.00  0.00     0.030 A 
HETATM   16  N   UNL     1      43.252  -7.803   8.629  1.00  0.00    -0.365 N 
HETATM   17  C   UNL     1      46.294  -9.842   7.953  1.00  0.00     0.003 A 
HETATM   18  C   UNL     1      45.631 -10.983   7.514  1.00  0.00     0.018 A 
HETATM   19  H   UNL     1      43.482  -6.880   8.970  1.00  0.00     0.165 HD
HETATM   20  C   UNL     1      41.986  -8.291   8.463  1.00  0.00     0.089 A 
ENDBRANCH   8  11
ENDBRANCH   1   7
BRANCH   5  21
HETATM   21  C   UNL     1      42.328 -15.666   2.490  1.00  0.00     0.119 C 
BRANCH  21  22
HETATM   22  C   UNL     1      42.912 -16.984   2.952  1.00  0.00    -0.045 A 
HETATM   23  C   UNL     1      43.274 -17.186   4.295  1.00  0.00     0.050 A 
HETATM   24  C   UNL     1      43.796 -18.411   4.708  1.00  0.00     0.119 A 
HETATM   25  F   UNL     1      44.152 -18.578   5.987  1.00  0.00    -0.206 F 
HETATM   26  C   UNL     1      43.950 -19.462   3.816  1.00  0.00     0.084 A 
HETATM   27  C   UNL     1      43.570 -19.273   2.495  1.00  0.00     0.119 A 
HETATM   28  F   UNL     1      43.701 -20.280   1.622  1.00  0.00    -0.206 F 
HETATM   29  C   UNL     1      43.053 -18.054   2.056  1.00  0.00     0.050 A 
ENDBRANCH  21  22
ENDBRANCH   5  21
TORSDOF 4
ENDMDL
MODEL 6
REMARK VINA RESULT:      -8.7      3.503      9.087
REMARK  4 active torsions:
REMARK  status: ('A' for Active; 'I' for Inactive)
REMARK    1  A    between atoms: C_5  and  C_6 
REMARK       I    between atoms: C_6  and  N_7 
REMARK    2  A    between atoms: N_7  and  C_8 
REMARK    3  A    between atoms: C_12  and  C_13 
REMARK    4  A    between atoms: C_13  and  C_14 
ROOT
HETATM    1  C   UNL     1      40.739 -15.236   2.048  1.00  0.00     0.747 A 
HETATM    2  N   UNL     1      39.664 -14.672   2.606  1.00  0.00     0.020 NA
HETATM    3  N   UNL     1      39.386 -13.690   1.731  1.00  0.00    -0.248 N 
HETATM    4  H   UNL     1      38.614 -13.060   1.916  1.00  0.00     0.191 HD
HETATM    5  C   UNL     1      40.277 -13.683   0.698  1.00  0.00     0.144 A 
HETATM    6  N   UNL     1      41.124 -14.673   0.871  1.00  0.00    -0.046 NA
ENDROOT
BRANCH   1   7
HETATM    7  N   UNL     1      41.395 -16.261   2.667  1.00  0.00    -0.150 N 
HETATM    8  C   UNL     1      42.721 -16.246   3.018  1.00  0.00     0.271 C 
HETATM    9  O   UNL     1      43.536 -15.356   2.805  1.00  0.00    -0.267 OA
HETATM   10  H   UNL     1      40.787 -17.016   2.942  1.00  0.00     0.188 HD
BRANCH   8  11
HETATM   11  C   UNL     1      43.168 -17.420   3.808  1.00  0.00     0.045 A 
HETATM   12  C   UNL     1      43.419 -18.688   3.229  1.00  0.00     0.008 A 
HETATM   13  C   UNL     1      43.786 -19.738   4.080  1.00  0.00     0.043 A 
HETATM   14  C   UNL     1      43.428 -19.224   1.904  1.00  0.00     0.032 A 
HETATM   15  C   UNL     1      43.933 -19.581   5.464  1.00  0.00     0.030 A 
HETATM   16  N   UNL     1      43.959 -20.860   3.301  1.00  0.00    -0.365 N 
HETATM   17  C   UNL     1      43.713 -18.313   6.007  1.00  0.00     0.003 A 
HETATM   18  C   UNL     1      43.339 -17.248   5.194  1.00  0.00     0.018 A 
HETATM   19  H   UNL     1      44.226 -21.768   3.657  1.00  0.00     0.165 HD
HETATM   20  C   UNL     1      43.748 -20.560   1.984  1.00  0.00     0.089 A 
ENDBRANCH   8  11
ENDBRANCH   1   7
BRANCH   5  21
HETATM   21  C   UNL     1      40.286 -12.657  -0.379  1.00  0.00     0.119 C 
BRANCH  21  22
HETATM   22  C   UNL     1      39.175 -12.846  -1.390  1.00  0.00    -0.045 A 
HETATM   23  C   UNL     1      39.078 -14.023  -2.151  1.00  0.00     0.050 A 
HETATM   24  C   UNL     1      38.040 -14.188  -3.066  1.00  0.00     0.119 A 
HETATM   25  F   UNL     1      37.976 -15.309  -3.795  1.00  0.00    -0.206 F 
HETATM   26  C   UNL     1      37.070 -13.210  -3.234  1.00  0.00     0.084 A 
HETATM   27  C   UNL     1      37.149 -12.058  -2.466  1.00  0.00     0.119 A 
HETATM   28  F   UNL     1      36.216 -11.109  -2.606  1.00  0.00    -0.206 F 
HETATM   29  C   UNL     1      38.184 -11.867  -1.549  1.00  0.00     0.050 A 
ENDBRANCH  21  22
ENDBRANCH   5  21
TORSDOF 4
ENDMDL
MODEL 7
REMARK VINA RESULT:      -8.6      3.447      8.769
REMARK  4 active torsions:
REMARK  status: ('A' for Active; 'I' for Inactive)
REMARK    1  A    between atoms: C_5  and  C_6 
REMARK       I    between atoms: C_6  and  N_7 
REMARK    2  A    between atoms: N_7  and  C_8 
REMARK    3  A    between atoms: C_12  and  C_13 
REMARK    4  A    between atoms: C_13  and  C_14 
ROOT
HETATM    1  C   UNL     1      41.659 -13.921   2.667  1.00  0.00     0.747 A 
HETATM    2  N   UNL     1      42.482 -12.872   2.566  1.00  0.00     0.020 NA
HETATM    3  N   UNL     1      41.724 -11.996   1.884  1.00  0.00    -0.248 N 
HETATM    4  H   UNL     1      42.110 -11.094   1.629  1.00  0.00     0.191 HD
HETATM    5  C   UNL     1      40.500 -12.523   1.595  1.00  0.00     0.144 A 
HETATM    6  N   UNL     1      40.433 -13.731   2.108  1.00  0.00    -0.046 NA
ENDROOT
BRANCH   1   7
HETATM    7  N   UNL     1      42.073 -15.083   3.250  1.00  0.00    -0.150 N 
HETATM    8  C   UNL     1      42.976 -15.958   2.703  1.00  0.00     0.271 C 
HETATM    9  O   UNL     1      43.521 -15.875   1.608  1.00  0.00    -0.267 OA
HETATM   10  H   UNL     1      41.726 -15.206   4.188  1.00  0.00     0.188 HD
BRANCH   8  11
HETATM   11  C   UNL     1      43.374 -17.078   3.591  1.00  0.00     0.045 A 
HETATM   12  C   UNL     1      43.483 -18.416   3.142  1.00  0.00     0.008 A 
HETATM   13  C   UNL     1      43.816 -19.400   4.081  1.00  0.00     0.043 A 
HETATM   14  C   UNL     1      43.365 -19.087   1.885  1.00  0.00     0.032 A 
HETATM   15  C   UNL     1      44.061 -19.114   5.430  1.00  0.00     0.030 A 
HETATM   16  N   UNL     1      43.847 -20.609   3.422  1.00  0.00    -0.365 N 
HETATM   17  C   UNL     1      43.981 -17.782   5.843  1.00  0.00     0.003 A 
HETATM   18  C   UNL     1      43.645 -16.778   4.940  1.00  0.00     0.018 A 
HETATM   19  H   UNL     1      44.059 -21.495   3.860  1.00  0.00     0.165 HD
HETATM   20  C   UNL     1      43.578 -20.430   2.093  1.00  0.00     0.089 A 
ENDBRANCH   8  11
ENDBRANCH   1   7
BRANCH   5  21
HETATM   21  C   UNL     1      39.474 -11.829   0.770  1.00  0.00     0.119 C 
BRANCH  21  22
HETATM   22  C   UNL     1      39.257 -12.479  -0.580  1.00  0.00    -0.045 A 
HETATM   23  C   UNL     1      37.973 -12.573  -1.143  1.00  0.00     0.050 A 
HETATM   24  C   UNL     1      37.792 -13.160  -2.394  1.00  0.00     0.119 A 
HETATM   25  F   UNL     1      36.559 -13.257  -2.905  1.00  0.00    -0.206 F 
HETATM   26  C   UNL     1      38.870 -13.645  -3.120  1.00  0.00     0.084 A 
HETATM   27  C   UNL     1      40.141 -13.532  -2.578  1.00  0.00     0.119 A 
HETATM   28  F   UNL     1      41.195 -13.984  -3.270  1.00  0.00    -0.206 F 
HETATM   29  C   UNL     1      40.347 -12.955  -1.324  1.00  0.00     0.050 A 
ENDBRANCH  21  22
ENDBRANCH   5  21
TORSDOF 4
ENDMDL
MODEL 8
REMARK VINA RESULT:      -8.4      5.176      7.860
REMARK  4 active torsions:
REMARK  status: ('A' for Active; 'I' for Inactive)
REMARK    1  A    between atoms: C_5  and  C_6 
REMARK       I    between atoms: C_6  and  N_7 
REMARK    2  A    between atoms: N_7  and  C_8 
REMARK    3  A    between atoms: C_12  and  C_13 
REMARK    4  A    between atoms: C_13  and  C_14 
ROOT
HETATM    1  C   UNL     1      42.323 -14.060   5.313  1.00  0.00     0.747 A 
HETATM    2  N   UNL     1      41.146 -14.676   5.464  1.00  0.00     0.020 NA
HETATM    3  N   UNL     1      41.184 -15.584   4.474  1.00  0.00    -0.248 N 
HETATM    4  H   UNL     1      40.389 -16.193   4.323  1.00  0.00     0.191 HD
HETATM    5  C   UNL     1      42.348 -15.495   3.768  1.00  0.00     0.144 A 
HETATM    6  N   UNL     1      43.091 -14.553   4.304  1.00  0.00    -0.046 NA
ENDROOT
BRANCH   1   7
HETATM    7  N   UNL     1      42.665 -12.999   6.099  1.00  0.00    -0.150 N 
HETATM    8  C   UNL     1      42.655 -11.687   5.696  1.00  0.00     0.271 C 
HETATM    9  O   UNL     1      42.387 -11.255   4.581  1.00  0.00    -0.267 OA
HETATM   10  H   UNL     1      42.839 -13.250   7.059  1.00  0.00     0.188 HD
BRANCH   8  11
HETATM   11  C   UNL     1      42.929 -10.703   6.772  1.00  0.00     0.045 A 
HETATM   12  C   UNL     1      44.226 -10.465   7.286  1.00  0.00     0.008 A 
HETATM   13  C   UNL     1      44.359  -9.550   8.338  1.00  0.00     0.043 A 
HETATM   14  C   UNL     1      45.547 -10.918   6.980  1.00  0.00     0.032 A 
HETATM   15  C   UNL     1      43.273  -8.855   8.884  1.00  0.00     0.030 A 
HETATM   16  N   UNL     1      45.693  -9.498   8.675  1.00  0.00    -0.365 N 
HETATM   17  C   UNL     1      42.008  -9.081   8.338  1.00  0.00     0.003 A 
HETATM   18  C   UNL     1      41.836  -9.989   7.298  1.00  0.00     0.018 A 
HETATM   19  H   UNL     1      46.076  -8.917   9.409  1.00  0.00     0.165 HD
HETATM   20  C   UNL     1      46.420 -10.318   7.858  1.00  0.00     0.089 A 
ENDBRANCH   8  11
ENDBRANCH   1   7
BRANCH   5  21
HETATM   21  C   UNL     1      42.644 -16.305   2.555  1.00  0.00     0.119 C 
BRANCH  21  22
HETATM   22  C   UNL     1      43.101 -17.712   2.877  1.00  0.00    -0.045 A 
HETATM   23  C   UNL     1      43.559 -18.051   4.162  1.00  0.00     0.050 A 
HETATM   24  C   UNL     1      43.961 -19.355   4.446  1.00  0.00     0.119 A 
HETATM   25  F   UNL     1      44.412 -19.654   5.671  1.00  0.00    -0.206 F 
HETATM   26  C   UNL     1      43.901 -20.350   3.482  1.00  0.00     0.084 A 
HETATM   27  C   UNL     1      43.426 -20.024   2.220  1.00  0.00     0.119 A 
HETATM   28  F   UNL     1      43.350 -20.974   1.279  1.00  0.00    -0.206 F 
HETATM   29  C   UNL     1      43.025 -18.724   1.909  1.00  0.00     0.050 A 
ENDBRANCH  21  22
ENDBRANCH   5  21
TORSDOF 4
ENDMDL
MODEL 9
REMARK VINA RESULT:      -8.3      7.666      9.963
REMARK  4 active torsions:
REMARK  status: ('A' for Active; 'I' for Inactive)
REMARK    1  A    between atoms: C_5  and  C_6 
REMARK       I    between atoms: C_6  and  N_7 
REMARK    2  A    between atoms: N_7  and  C_8 
REMARK    3  A    between atoms: C_12  and  C_13 
REMARK    4  A    between atoms: C_13  and  C_14 
ROOT
HETATM    1  C   UNL     1      44.646 -11.487   6.365  1.00  0.00     0.747 A 
HETATM    2  N   UNL     1      45.974 -11.484   6.210  1.00  0.00     0.020 NA
HETATM    3  N   UNL     1      46.351 -10.553   7.103  1.00  0.00    -0.248 N 
HETATM    4  H   UNL     1      47.331 -10.310   7.188  1.00  0.00     0.191 HD
HETATM    5  C   UNL     1      45.273 -10.029   7.754  1.00  0.00     0.144 A 
HETATM    6  N   UNL     1      44.189 -10.629   7.317  1.00  0.00    -0.046 NA
ENDROOT
BRANCH   1   7
HETATM    7  N   UNL     1      43.850 -12.268   5.580  1.00  0.00    -0.150 N 
HETATM    8  C   UNL     1      43.313 -13.473   5.958  1.00  0.00     0.271 C 
HETATM    9  O   UNL     1      43.485 -14.062   7.018  1.00  0.00    -0.267 OA
HETATM   10  H   UNL     1      43.598 -11.833   4.707  1.00  0.00     0.188 HD
BRANCH   8  11
HETATM   11  C   UNL     1      42.365 -14.064   4.983  1.00  0.00     0.045 A 
HETATM   12  C   UNL     1      42.570 -15.328   4.377  1.00  0.00     0.008 A 
HETATM   13  C   UNL     1      41.634 -15.764   3.432  1.00  0.00     0.043 A 
HETATM   14  C   UNL     1      43.534 -16.376   4.499  1.00  0.00     0.032 A 
HETATM   15  C   UNL     1      40.503 -15.016   3.078  1.00  0.00     0.030 A 
HETATM   16  N   UNL     1      42.049 -16.995   2.975  1.00  0.00    -0.365 N 
HETATM   17  C   UNL     1      40.304 -13.789   3.714  1.00  0.00     0.003 A 
HETATM   18  C   UNL     1      41.217 -13.319   4.652  1.00  0.00     0.018 A 
HETATM   19  H   UNL     1      41.559 -17.543   2.281  1.00  0.00     0.165 HD
HETATM   20  C   UNL     1      43.195 -17.375   3.616  1.00  0.00     0.089 A 
ENDBRANCH   8  11
ENDBRANCH   1   7
BRANCH   5  21
HETATM   21  C   UNL     1      45.361  -8.912   8.734  1.00  0.00     0.119 C 
BRANCH  21  22
HETATM   22  C   UNL     1      44.413  -9.071   9.903  1.00  0.00    -0.045 A 
HETATM   23  C   UNL     1      43.447  -8.091  10.193  1.00  0.00     0.050 A 
HETATM   24  C   UNL     1      42.571  -8.260  11.263  1.00  0.00     0.119 A 
HETATM   25  F   UNL     1      41.670  -7.307  11.534  1.00  0.00    -0.206 F 
HETATM   26  C   UNL     1      42.614  -9.400  12.052  1.00  0.00     0.084 A 
HETATM   27  C   UNL     1      43.549 -10.379  11.754  1.00  0.00     0.119 A 
HETATM   28  F   UNL     1      43.599 -11.492  12.497  1.00  0.00    -0.206 F 
HETATM   29  C   UNL     1      44.443 -10.230  10.692  1.00  0.00     0.050 A 
ENDBRANCH  21  22
ENDBRANCH   5  21
TORSDOF 4
ENDMDL
MODEL 10
REMARK VINA RESULT:      -8.2      9.620     11.703
REMARK  4 active torsions:
REMARK  status: ('A' for Active; 'I' for Inactive)
REMARK    1  A    between atoms: C_5  and  C_6 
REMARK       I    between atoms: C_6  and  N_7 
REMARK    2  A    between atoms: N_7  and  C_8 
REMARK    3  A    between atoms: C_12  and  C_13 
REMARK    4  A    between atoms: C_13  and  C_14 
ROOT
HETATM    1  C   UNL     1      43.810 -10.692   9.076  1.00  0.00     0.747 A 
HETATM    2  N   UNL     1      44.959 -10.821   9.747  1.00  0.00     0.020 NA
HETATM    3  N   UNL     1      44.893  -9.786  10.602  1.00  0.00    -0.248 N 
HETATM    4  H   UNL     1      45.665  -9.612  11.235  1.00  0.00     0.191 HD
HETATM    5  C   UNL     1      43.741  -9.077  10.430  1.00  0.00     0.144 A 
HETATM    6  N   UNL     1      43.032  -9.654   9.486  1.00  0.00    -0.046 NA
ENDROOT
BRANCH   1   7
HETATM    7  N   UNL     1      43.503 -11.528   8.042  1.00  0.00    -0.150 N 
HETATM    8  C   UNL     1      44.338 -11.818   6.993  1.00  0.00     0.271 C 
HETATM    9  O   UNL     1      45.454 -11.357   6.783  1.00  0.00    -0.267 OA
HETATM   10  H   UNL     1      42.625 -12.007   8.161  1.00  0.00     0.188 HD
BRANCH   8  11
HETATM   11  C   UNL     1      43.836 -12.864   6.069  1.00  0.00     0.045 A 
HETATM   12  C   UNL     1      43.368 -12.579   4.763  1.00  0.00     0.008 A 
HETATM   13  C   UNL     1      42.868 -13.639   3.998  1.00  0.00     0.043 A 
HETATM   14  C   UNL     1      43.286 -11.416   3.937  1.00  0.00     0.032 A 
HETATM   15  C   UNL     1      42.831 -14.962   4.460  1.00  0.00     0.030 A 
HETATM   16  N   UNL     1      42.462 -13.122   2.788  1.00  0.00    -0.365 N 
HETATM   17  C   UNL     1      43.329 -15.223   5.738  1.00  0.00     0.003 A 
HETATM   18  C   UNL     1      43.826 -14.194   6.530  1.00  0.00     0.018 A 
HETATM   19  H   UNL     1      42.057 -13.667   2.039  1.00  0.00     0.165 HD
HETATM   20  C   UNL     1      42.713 -11.779   2.740  1.00  0.00     0.089 A 
ENDBRANCH   8  11
ENDBRANCH   1   7
BRANCH   5  21
HETATM   21  C   UNL     1      43.424  -7.823  11.166  1.00  0.00     0.119 C 
BRANCH  21  22
HETATM   22  C   UNL     1      42.756  -8.070  12.502  1.00  0.00    -0.045 A 
HETATM   23  C   UNL     1      43.106  -7.321  13.638  1.00  0.00     0.050 A 
HETATM   24  C   UNL     1      42.469  -7.549  14.857  1.00  0.00     0.119 A 
HETATM   25  F   UNL     1      42.830  -6.838  15.932  1.00  0.00    -0.206 F 
HETATM   26  C   UNL     1      41.467  -8.501  14.975  1.00  0.00     0.084 A 
HETATM   27  C   UNL     1      41.102  -9.224  13.849  1.00  0.00     0.119 A 
HETATM   28  F   UNL     1      40.128 -10.139  13.941  1.00  0.00    -0.206 F 
HETATM   29  C   UNL     1      41.730  -9.019  12.620  1.00  0.00     0.050 A 
ENDBRANCH  21  22
ENDBRANCH   5  21
TORSDOF 4
ENDMDL
