MODEL 1
REMARK VINA RESULT:      -8.9      0.000      0.000
REMARK  3 active torsions:
REMARK  status: ('A' for Active; 'I' for Inactive)
REMARK    1  A    between atoms: C_6  and  N_7 
REMARK       I    between atoms: N_7  and  C_8 
REMARK    2  A    between atoms: C_8  and  C_9 
REMARK    3  A    between atoms: C_9  and  C_10 
ROOT
HETATM    1  C   UNL     1      43.656 -12.409   6.077  1.00  0.00     0.286 C 
HETATM    2  N   UNL     1      43.400 -12.165   7.572  1.00  0.00    -0.056 N 
HETATM    3  H   UNL     1      42.375 -12.106   7.724  1.00  0.00     0.278 HD
HETATM    4  H   UNL     1      43.731 -12.972   8.117  1.00  0.00     0.278 HD
HETATM    5  C   UNL     1      43.966 -10.879   8.121  1.00  0.00     0.209 C 
HETATM    6  C   UNL     1      45.427 -10.722   7.657  1.00  0.00     0.115 C 
HETATM    7  N   UNL     1      45.497 -10.722   6.206  1.00  0.00    -0.353 N 
HETATM    8  C   UNL     1      44.703 -11.495   5.403  1.00  0.00     0.249 C 
HETATM    9  O   UNL     1      44.840 -11.460   4.183  1.00  0.00    -0.271 OA
HETATM   10  C   UNL     1      43.846 -10.882   9.640  1.00  0.00     0.035 C 
HETATM   11  C   UNL     1      44.449  -9.604  10.222  1.00  0.00     0.002 C 
HETATM   12  C   UNL     1      45.891  -9.395   9.761  1.00  0.00     0.002 C 
HETATM   13  C   UNL     1      46.026  -9.439   8.239  1.00  0.00     0.027 C 
HETATM   14  H   UNL     1      46.229 -10.203   5.723  1.00  0.00     0.163 HD
ENDROOT
BRANCH   1  15
HETATM   15  C   UNL     1      42.350 -12.405   5.275  1.00  0.00     0.146 C 
BRANCH  15  16
HETATM   16  C   UNL     1      42.056 -13.821   4.853  1.00  0.00     0.224 C 
HETATM   17  N   UNL     1      43.169 -14.597   4.641  1.00  0.00    -0.327 N 
HETATM   18  H   UNL     1      44.060 -14.242   4.977  1.00  0.00     0.169 HD
HETATM   19  O   UNL     1      40.879 -14.107   4.630  1.00  0.00    -0.273 OA
BRANCH  17  20
HETATM   20  C   UNL     1      43.226 -15.876   4.032  1.00  0.00     0.040 A 
HETATM   21  C   UNL     1      43.797 -16.948   4.751  1.00  0.00    -0.035 A 
HETATM   22  C   UNL     1      43.890 -18.217   4.144  1.00  0.00     0.015 A 
HETATM   23  C   UNL     1      44.304 -16.802   6.162  1.00  0.00     0.050 C 
HETATM   24  C   UNL     1      43.440 -18.435   2.840  1.00  0.00    -0.061 A 
HETATM   25  C   UNL     1      43.512 -19.797   2.215  1.00  0.00     0.048 C 
HETATM   26  C   UNL     1      42.868 -17.372   2.141  1.00  0.00     0.009 A 
HETATM   27  C   UNL     1      42.764 -16.108   2.731  1.00  0.00     0.030 A 
ENDBRANCH  17  20
ENDBRANCH  15  16
ENDBRANCH   1  15
TORSDOF 3
ENDMDL
MODEL 2
REMARK VINA RESULT:      -8.6      4.610      8.009
REMARK  3 active torsions:
REMARK  status: ('A' for Active; 'I' for Inactive)
REMARK    1  A    between atoms: C_6  and  N_7 
REMARK       I    between atoms: N_7  and  C_8 
REMARK    2  A    between atoms: C_8  and  C_9 
REMARK    3  A    between atoms: C_9  and  C_10 
ROOT
HETATM    1  C   UNL     1      40.296 -14.000   1.076  1.00  0.00     0.286 C 
HETATM    2  N   UNL     1      39.781 -14.966  -0.002  1.00  0.00    -0.056 N 
HETATM    3  H   UNL     1      40.532 -15.651  -0.216  1.00  0.00     0.278 HD
HETATM    4  H   UNL     1      38.988 -15.507   0.367  1.00  0.00     0.278 HD
HETATM    5  C   UNL     1      39.427 -14.328  -1.321  1.00  0.00     0.209 C 
HETATM    6  C   UNL     1      38.560 -13.079  -1.072  1.00  0.00     0.115 C 
HETATM    7  N   UNL     1      39.273 -12.131  -0.232  1.00  0.00    -0.353 N 
HETATM    8  C   UNL     1      40.096 -12.494   0.799  1.00  0.00     0.249 C 
HETATM    9  O   UNL     1      40.644 -11.633   1.483  1.00  0.00    -0.271 OA
HETATM   10  C   UNL     1      38.717 -15.349  -2.202  1.00  0.00     0.035 C 
HETATM   11  C   UNL     1      38.314 -14.713  -3.532  1.00  0.00     0.002 C 
HETATM   12  C   UNL     1      37.476 -13.451  -3.328  1.00  0.00     0.002 C 
HETATM   13  C   UNL     1      38.161 -12.443  -2.406  1.00  0.00     0.027 C 
HETATM   14  H   UNL     1      39.104 -11.131  -0.322  1.00  0.00     0.163 HD
ENDROOT
BRANCH   1  15
HETATM   15  C   UNL     1      41.759 -14.286   1.436  1.00  0.00     0.146 C 
BRANCH  15  16
HETATM   16  C   UNL     1      41.788 -15.467   2.370  1.00  0.00     0.224 C 
HETATM   17  N   UNL     1      43.039 -15.987   2.595  1.00  0.00    -0.327 N 
HETATM   18  H   UNL     1      43.838 -15.432   2.302  1.00  0.00     0.169 HD
HETATM   19  O   UNL     1      40.703 -15.916   2.742  1.00  0.00    -0.273 OA
BRANCH  17  20
HETATM   20  C   UNL     1      43.362 -17.212   3.233  1.00  0.00     0.040 A 
HETATM   21  C   UNL     1      43.638 -17.207   4.617  1.00  0.00    -0.035 A 
HETATM   22  C   UNL     1      43.994 -18.412   5.257  1.00  0.00     0.015 A 
HETATM   23  C   UNL     1      43.553 -15.960   5.459  1.00  0.00     0.050 C 
HETATM   24  C   UNL     1      44.093 -19.611   4.546  1.00  0.00    -0.061 A 
HETATM   25  C   UNL     1      44.439 -20.894   5.243  1.00  0.00     0.048 C 
HETATM   26  C   UNL     1      43.809 -19.607   3.181  1.00  0.00     0.009 A 
HETATM   27  C   UNL     1      43.449 -18.421   2.533  1.00  0.00     0.030 A 
ENDBRANCH  17  20
ENDBRANCH  15  16
ENDBRANCH   1  15
TORSDOF 3
ENDMDL
MODEL 3
REMARK VINA RESULT:      -8.4      3.857      5.847
REMARK  3 active torsions:
REMARK  status: ('A' for Active; 'I' for Inactive)
REMARK    1  A    between atoms: C_6  and  N_7 
REMARK       I    between atoms: N_7  and  C_8 
REMARK    2  A    between atoms: C_8  and  C_9 
REMARK    3  A    between atoms: C_9  and  C_10 
ROOT
HETATM    1  C   UNL     1      40.203 -13.111   4.519  1.00  0.00     0.286 C 
HETATM    2  N   UNL     1      39.914 -14.188   3.461  1.00  0.00    -0.056 N 
HETATM    3  H   UNL     1      40.436 -15.048   3.718  1.00  0.00     0.278 HD
HETATM    4  H   UNL     1      38.916 -14.434   3.480  1.00  0.00     0.278 HD
HETATM    5  C   UNL     1      40.357 -13.848   2.060  1.00  0.00     0.209 C 
HETATM    6  C   UNL     1      39.894 -12.422   1.707  1.00  0.00     0.115 C 
HETATM    7  N   UNL     1      40.445 -11.466   2.653  1.00  0.00    -0.353 N 
HETATM    8  C   UNL     1      40.609 -11.719   3.987  1.00  0.00     0.249 C 
HETATM    9  O   UNL     1      41.058 -10.850   4.729  1.00  0.00    -0.271 OA
HETATM   10  C   UNL     1      39.802 -14.885   1.091  1.00  0.00     0.035 C 
HETATM   11  C   UNL     1      40.207 -14.540  -0.342  1.00  0.00     0.002 C 
HETATM   12  C   UNL     1      39.792 -13.119  -0.723  1.00  0.00     0.002 C 
HETATM   13  C   UNL     1      40.303 -12.079   0.273  1.00  0.00     0.027 C 
HETATM   14  H   UNL     1      40.644 -10.509   2.364  1.00  0.00     0.163 HD
ENDROOT
BRANCH   1  15
HETATM   15  C   UNL     1      41.217 -13.601   5.559  1.00  0.00     0.146 C 
BRANCH  15  16
HETATM   16  C   UNL     1      41.454 -15.070   5.324  1.00  0.00     0.224 C 
HETATM   17  N   UNL     1      42.531 -15.354   4.521  1.00  0.00    -0.327 N 
HETATM   18  H   UNL     1      43.186 -14.601   4.331  1.00  0.00     0.169 HD
HETATM   19  O   UNL     1      40.613 -15.852   5.768  1.00  0.00    -0.273 OA
BRANCH  17  20
HETATM   20  C   UNL     1      42.871 -16.604   3.944  1.00  0.00     0.040 A 
HETATM   21  C   UNL     1      43.830 -17.415   4.589  1.00  0.00    -0.035 A 
HETATM   22  C   UNL     1      44.202 -18.643   4.007  1.00  0.00     0.015 A 
HETATM   23  C   UNL     1      44.471 -17.030   5.898  1.00  0.00     0.050 C 
HETATM   24  C   UNL     1      43.650 -19.072   2.797  1.00  0.00    -0.061 A 
HETATM   25  C   UNL     1      44.027 -20.397   2.204  1.00  0.00     0.048 C 
HETATM   26  C   UNL     1      42.697 -18.268   2.172  1.00  0.00     0.009 A 
HETATM   27  C   UNL     1      42.314 -17.048   2.739  1.00  0.00     0.030 A 
ENDBRANCH  17  20
ENDBRANCH  15  16
ENDBRANCH   1  15
TORSDOF 3
ENDMDL
MODEL 4
REMARK VINA RESULT:      -8.3      1.497      2.429
REMARK  3 active torsions:
REMARK  status: ('A' for Active; 'I' for Inactive)
REMARK    1  A    between atoms: C_6  and  N_7 
REMARK       I    between atoms: N_7  and  C_8 
REMARK    2  A    between atoms: C_8  and  C_9 
REMARK    3  A    between atoms: C_9  and  C_10 
ROOT
HETATM    1  C   UNL     1      42.882 -12.367   5.989  1.00  0.00     0.286 C 
HETATM    2  N   UNL     1      44.225 -12.072   6.675  1.00  0.00    -0.056 N 
HETATM    3  H   UNL     1      44.559 -12.942   7.132  1.00  0.00     0.278 HD
HETATM    4  H   UNL     1      44.928 -11.824   5.967  1.00  0.00     0.278 HD
HETATM    5  C   UNL     1      44.175 -11.033   7.767  1.00  0.00     0.209 C 
HETATM    6  C   UNL     1      43.392  -9.803   7.271  1.00  0.00     0.115 C 
HETATM    7  N   UNL     1      42.045 -10.188   6.883  1.00  0.00    -0.353 N 
HETATM    8  C   UNL     1      41.736 -11.371   6.269  1.00  0.00     0.249 C 
HETATM    9  O   UNL     1      40.576 -11.613   5.947  1.00  0.00    -0.271 OA
HETATM   10  C   UNL     1      45.595 -10.674   8.188  1.00  0.00     0.035 C 
HETATM   11  C   UNL     1      45.571  -9.595   9.269  1.00  0.00     0.002 C 
HETATM   12  C   UNL     1      44.776  -8.366   8.827  1.00  0.00     0.002 C 
HETATM   13  C   UNL     1      43.367  -8.725   8.358  1.00  0.00     0.027 C 
HETATM   14  H   UNL     1      41.274  -9.527   6.968  1.00  0.00     0.163 HD
ENDROOT
BRANCH   1  15
HETATM   15  C   UNL     1      42.417 -13.803   6.258  1.00  0.00     0.146 C 
BRANCH  15  16
HETATM   16  C   UNL     1      42.785 -14.645   5.064  1.00  0.00     0.224 C 
HETATM   17  N   UNL     1      42.423 -15.966   5.163  1.00  0.00    -0.327 N 
HETATM   18  H   UNL     1      41.774 -16.221   5.901  1.00  0.00     0.169 HD
HETATM   19  O   UNL     1      43.462 -14.108   4.186  1.00  0.00    -0.273 OA
BRANCH  17  20
HETATM   20  C   UNL     1      42.822 -17.035   4.320  1.00  0.00     0.040 A 
HETATM   21  C   UNL     1      42.179 -17.197   3.074  1.00  0.00    -0.035 A 
HETATM   22  C   UNL     1      42.543 -18.275   2.242  1.00  0.00     0.015 A 
HETATM   23  C   UNL     1      41.120 -16.248   2.577  1.00  0.00     0.050 C 
HETATM   24  C   UNL     1      43.518 -19.197   2.631  1.00  0.00    -0.061 A 
HETATM   25  C   UNL     1      43.922 -20.322   1.724  1.00  0.00     0.048 C 
HETATM   26  C   UNL     1      44.154 -19.022   3.859  1.00  0.00     0.009 A 
HETATM   27  C   UNL     1      43.809 -17.955   4.694  1.00  0.00     0.030 A 
ENDBRANCH  17  20
ENDBRANCH  15  16
ENDBRANCH   1  15
TORSDOF 3
ENDMDL
MODEL 5
REMARK VINA RESULT:      -8.3      3.971      6.961
REMARK  3 active torsions:
REMARK  status: ('A' for Active; 'I' for Inactive)
REMARK    1  A    between atoms: C_6  and  N_7 
REMARK       I    between atoms: N_7  and  C_8 
REMARK    2  A    between atoms: C_8  and  C_9 
REMARK    3  A    between atoms: C_9  and  C_10 
ROOT
HETATM    1  C   UNL     1      43.031 -15.179   5.531  1.00  0.00     0.286 C 
HETATM    2  N   UNL     1      43.273 -15.872   4.181  1.00  0.00    -0.056 N 
HETATM    3  H   UNL     1      42.554 -15.542   3.509  1.00  0.00     0.278 HD
HETATM    4  H   UNL     1      44.184 -15.583   3.802  1.00  0.00     0.278 HD
HETATM    5  C   UNL     1      43.152 -17.375   4.199  1.00  0.00     0.209 C 
HETATM    6  C   UNL     1      43.944 -17.940   5.394  1.00  0.00     0.115 C 
HETATM    7  N   UNL     1      43.442 -17.382   6.638  1.00  0.00    -0.353 N 
HETATM    8  C   UNL     1      43.007 -16.092   6.776  1.00  0.00     0.249 C 
HETATM    9  O   UNL     1      42.622 -15.685   7.869  1.00  0.00    -0.271 OA
HETATM   10  C   UNL     1      43.644 -17.937   2.871  1.00  0.00     0.035 C 
HETATM   11  C   UNL     1      43.566 -19.463   2.879  1.00  0.00     0.002 C 
HETATM   12  C   UNL     1      44.316 -20.063   4.068  1.00  0.00     0.002 C 
HETATM   13  C   UNL     1      43.860 -19.468   5.401  1.00  0.00     0.027 C 
HETATM   14  H   UNL     1      43.490 -17.919   7.502  1.00  0.00     0.163 HD
ENDROOT
BRANCH   1  15
HETATM   15  C   UNL     1      41.777 -14.297   5.493  1.00  0.00     0.146 C 
BRANCH  15  16
HETATM   16  C   UNL     1      41.646 -13.730   4.104  1.00  0.00     0.224 C 
HETATM   17  N   UNL     1      40.446 -13.993   3.491  1.00  0.00    -0.327 N 
HETATM   18  H   UNL     1      39.690 -14.346   4.070  1.00  0.00     0.169 HD
HETATM   19  O   UNL     1      42.645 -13.199   3.618  1.00  0.00    -0.273 OA
BRANCH  17  20
HETATM   20  C   UNL     1      40.112 -13.793   2.127  1.00  0.00     0.040 A 
HETATM   21  C   UNL     1      40.180 -14.889   1.241  1.00  0.00    -0.035 A 
HETATM   22  C   UNL     1      39.884 -14.697  -0.124  1.00  0.00     0.015 A 
HETATM   23  C   UNL     1      40.544 -16.280   1.694  1.00  0.00     0.050 C 
HETATM   24  C   UNL     1      39.536 -13.439  -0.622  1.00  0.00    -0.061 A 
HETATM   25  C   UNL     1      39.188 -13.251  -2.070  1.00  0.00     0.048 C 
HETATM   26  C   UNL     1      39.461 -12.364   0.263  1.00  0.00     0.009 A 
HETATM   27  C   UNL     1      39.747 -12.539   1.621  1.00  0.00     0.030 A 
ENDBRANCH  17  20
ENDBRANCH  15  16
ENDBRANCH   1  15
TORSDOF 3
ENDMDL
MODEL 6
REMARK VINA RESULT:      -8.2      1.567      1.995
REMARK  3 active torsions:
REMARK  status: ('A' for Active; 'I' for Inactive)
REMARK    1  A    between atoms: C_6  and  N_7 
REMARK       I    between atoms: N_7  and  C_8 
REMARK    2  A    between atoms: C_8  and  C_9 
REMARK    3  A    between atoms: C_9  and  C_10 
ROOT
HETATM    1  C   UNL     1      43.463 -11.269   6.552  1.00  0.00     0.286 C 
HETATM    2  N   UNL     1      42.497 -10.631   7.563  1.00  0.00    -0.056 N 
HETATM    3  H   UNL     1      41.831 -10.027   7.045  1.00  0.00     0.278 HD
HETATM    4  H   UNL     1      41.937 -11.363   8.017  1.00  0.00     0.278 HD
HETATM    5  C   UNL     1      43.142  -9.735   8.591  1.00  0.00     0.209 C 
HETATM    6  C   UNL     1      44.370 -10.444   9.193  1.00  0.00     0.115 C 
HETATM    7  N   UNL     1      45.323 -10.774   8.147  1.00  0.00    -0.353 N 
HETATM    8  C   UNL     1      44.967 -11.177   6.889  1.00  0.00     0.249 C 
HETATM    9  O   UNL     1      45.832 -11.465   6.066  1.00  0.00    -0.271 OA
HETATM   10  C   UNL     1      42.115  -9.368   9.655  1.00  0.00     0.035 C 
HETATM   11  C   UNL     1      42.756  -8.489  10.729  1.00  0.00     0.002 C 
HETATM   12  C   UNL     1      43.998  -9.145  11.332  1.00  0.00     0.002 C 
HETATM   13  C   UNL     1      45.011  -9.560  10.266  1.00  0.00     0.027 C 
HETATM   14  H   UNL     1      46.321 -10.812   8.350  1.00  0.00     0.163 HD
ENDROOT
BRANCH   1  15
HETATM   15  C   UNL     1      43.203 -10.762   5.129  1.00  0.00     0.146 C 
BRANCH  15  16
HETATM   16  C   UNL     1      43.333 -11.929   4.185  1.00  0.00     0.224 C 
HETATM   17  N   UNL     1      42.644 -13.053   4.568  1.00  0.00    -0.327 N 
HETATM   18  H   UNL     1      41.956 -12.952   5.309  1.00  0.00     0.169 HD
HETATM   19  O   UNL     1      44.119 -11.805   3.245  1.00  0.00    -0.273 OA
BRANCH  17  20
HETATM   20  C   UNL     1      42.748 -14.357   4.021  1.00  0.00     0.040 A 
HETATM   21  C   UNL     1      43.266 -15.395   4.825  1.00  0.00    -0.035 A 
HETATM   22  C   UNL     1      43.406 -16.688   4.282  1.00  0.00     0.015 A 
HETATM   23  C   UNL     1      43.666 -15.186   6.263  1.00  0.00     0.050 C 
HETATM   24  C   UNL     1      43.055 -16.962   2.958  1.00  0.00    -0.061 A 
HETATM   25  C   UNL     1      43.176 -18.350   2.399  1.00  0.00     0.048 C 
HETATM   26  C   UNL     1      42.535 -15.933   2.174  1.00  0.00     0.009 A 
HETATM   27  C   UNL     1      42.385 -14.646   2.700  1.00  0.00     0.030 A 
ENDBRANCH  17  20
ENDBRANCH  15  16
ENDBRANCH   1  15
TORSDOF 3
ENDMDL
MODEL 7
REMARK VINA RESULT:      -7.9      3.750      7.104
REMARK  3 active torsions:
REMARK  status: ('A' for Active; 'I' for Inactive)
REMARK    1  A    between atoms: C_6  and  N_7 
REMARK       I    between atoms: N_7  and  C_8 
REMARK    2  A    between atoms: C_8  and  C_9 
REMARK    3  A    between atoms: C_9  and  C_10 
ROOT
HETATM    1  C   UNL     1      42.990 -14.266   4.659  1.00  0.00     0.286 C 
HETATM    2  N   UNL     1      43.105 -15.145   3.404  1.00  0.00    -0.056 N 
HETATM    3  H   UNL     1      42.316 -14.916   2.769  1.00  0.00     0.278 HD
HETATM    4  H   UNL     1      43.967 -14.910   2.895  1.00  0.00     0.278 HD
HETATM    5  C   UNL     1      43.012 -16.630   3.647  1.00  0.00     0.209 C 
HETATM    6  C   UNL     1      43.931 -17.016   4.822  1.00  0.00     0.115 C 
HETATM    7  N   UNL     1      43.550 -16.287   6.019  1.00  0.00    -0.353 N 
HETATM    8  C   UNL     1      43.109 -14.992   6.017  1.00  0.00     0.249 C 
HETATM    9  O   UNL     1      42.830 -14.433   7.074  1.00  0.00    -0.271 OA
HETATM   10  C   UNL     1      43.376 -17.375   2.368  1.00  0.00     0.035 C 
HETATM   11  C   UNL     1      43.326 -18.884   2.602  1.00  0.00     0.002 C 
HETATM   12  C   UNL     1      44.203 -19.306   3.780  1.00  0.00     0.002 C 
HETATM   13  C   UNL     1      43.876 -18.528   5.055  1.00  0.00     0.027 C 
HETATM   14  H   UNL     1      43.695 -16.695   6.942  1.00  0.00     0.163 HD
ENDROOT
BRANCH   1  15
HETATM   15  C   UNL     1      41.724 -13.401   4.626  1.00  0.00     0.146 C 
BRANCH  15  16
HETATM   16  C   UNL     1      41.474 -12.993   3.198  1.00  0.00     0.224 C 
HETATM   17  N   UNL     1      40.276 -13.423   2.682  1.00  0.00    -0.327 N 
HETATM   18  H   UNL     1      39.585 -13.781   3.335  1.00  0.00     0.169 HD
HETATM   19  O   UNL     1      42.394 -12.427   2.607  1.00  0.00    -0.273 OA
BRANCH  17  20
HETATM   20  C   UNL     1      39.861 -13.393   1.326  1.00  0.00     0.040 A 
HETATM   21  C   UNL     1      39.102 -12.294   0.870  1.00  0.00    -0.035 A 
HETATM   22  C   UNL     1      38.653 -12.269  -0.466  1.00  0.00     0.015 A 
HETATM   23  C   UNL     1      38.758 -11.122   1.752  1.00  0.00     0.050 C 
HETATM   24  C   UNL     1      38.933 -13.316  -1.347  1.00  0.00    -0.061 A 
HETATM   25  C   UNL     1      38.481 -13.264  -2.777  1.00  0.00     0.048 C 
HETATM   26  C   UNL     1      39.692 -14.393  -0.890  1.00  0.00     0.009 A 
HETATM   27  C   UNL     1      40.149 -14.431   0.431  1.00  0.00     0.030 A 
ENDBRANCH  17  20
ENDBRANCH  15  16
ENDBRANCH   1  15
TORSDOF 3
ENDMDL
MODEL 8
REMARK VINA RESULT:      -7.7      5.890      8.555
REMARK  3 active torsions:
REMARK  status: ('A' for Active; 'I' for Inactive)
REMARK    1  A    between atoms: C_6  and  N_7 
REMARK       I    between atoms: N_7  and  C_8 
REMARK    2  A    between atoms: C_8  and  C_9 
REMARK    3  A    between atoms: C_9  and  C_10 
ROOT
HETATM    1  C   UNL     1      39.740 -13.478  -1.000  1.00  0.00     0.286 C 
HETATM    2  N   UNL     1      39.023 -12.442  -0.120  1.00  0.00    -0.056 N 
HETATM    3  H   UNL     1      38.720 -12.909   0.757  1.00  0.00     0.278 HD
HETATM    4  H   UNL     1      39.684 -11.704   0.155  1.00  0.00     0.278 HD
HETATM    5  C   UNL     1      37.772 -11.847  -0.716  1.00  0.00     0.209 C 
HETATM    6  C   UNL     1      38.050 -11.415  -2.168  1.00  0.00     0.115 C 
HETATM    7  N   UNL     1      38.488 -12.554  -2.956  1.00  0.00    -0.353 N 
HETATM    8  C   UNL     1      39.289 -13.553  -2.475  1.00  0.00     0.249 C 
HETATM    9  O   UNL     1      39.640 -14.471  -3.211  1.00  0.00    -0.271 OA
HETATM   10  C   UNL     1      37.306 -10.681   0.148  1.00  0.00     0.035 C 
HETATM   11  C   UNL     1      36.059 -10.038  -0.457  1.00  0.00     0.002 C 
HETATM   12  C   UNL     1      36.284  -9.621  -1.911  1.00  0.00     0.002 C 
HETATM   13  C   UNL     1      36.798 -10.774  -2.772  1.00  0.00     0.027 C 
HETATM   14  H   UNL     1      38.289 -12.600  -3.954  1.00  0.00     0.163 HD
ENDROOT
BRANCH   1  15
HETATM   15  C   UNL     1      39.713 -14.872  -0.362  1.00  0.00     0.146 C 
BRANCH  15  16
HETATM   16  C   UNL     1      40.601 -14.848   0.854  1.00  0.00     0.224 C 
HETATM   17  N   UNL     1      40.562 -15.992   1.613  1.00  0.00    -0.327 N 
HETATM   18  H   UNL     1      40.126 -16.812   1.203  1.00  0.00     0.169 HD
HETATM   19  O   UNL     1      41.173 -13.788   1.110  1.00  0.00    -0.273 OA
BRANCH  17  20
HETATM   20  C   UNL     1      41.101 -16.185   2.911  1.00  0.00     0.040 A 
HETATM   21  C   UNL     1      42.439 -16.615   3.036  1.00  0.00    -0.035 A 
HETATM   22  C   UNL     1      42.976 -16.843   4.319  1.00  0.00     0.015 A 
HETATM   23  C   UNL     1      43.339 -16.829   1.847  1.00  0.00     0.050 C 
HETATM   24  C   UNL     1      42.206 -16.665   5.472  1.00  0.00    -0.061 A 
HETATM   25  C   UNL     1      42.797 -16.877   6.835  1.00  0.00     0.048 C 
HETATM   26  C   UNL     1      40.889 -16.230   5.338  1.00  0.00     0.009 A 
HETATM   27  C   UNL     1      40.342 -15.994   4.072  1.00  0.00     0.030 A 
ENDBRANCH  17  20
ENDBRANCH  15  16
ENDBRANCH   1  15
TORSDOF 3
ENDMDL
MODEL 9
REMARK VINA RESULT:      -7.6      2.604      4.025
REMARK  3 active torsions:
REMARK  status: ('A' for Active; 'I' for Inactive)
REMARK    1  A    between atoms: C_6  and  N_7 
REMARK       I    between atoms: N_7  and  C_8 
REMARK    2  A    between atoms: C_8  and  C_9 
REMARK    3  A    between atoms: C_9  and  C_10 
ROOT
HETATM    1  C   UNL     1      43.294  -9.554   8.260  1.00  0.00     0.286 C 
HETATM    2  N   UNL     1      43.320 -10.309   9.599  1.00  0.00    -0.056 N 
HETATM    3  H   UNL     1      42.775 -11.186   9.491  1.00  0.00     0.278 HD
HETATM    4  H   UNL     1      44.285 -10.589   9.820  1.00  0.00     0.278 HD
HETATM    5  C   UNL     1      42.693  -9.581  10.760  1.00  0.00     0.209 C 
HETATM    6  C   UNL     1      43.213  -8.131  10.799  1.00  0.00     0.115 C 
HETATM    7  N   UNL     1      42.901  -7.451   9.553  1.00  0.00    -0.353 N 
HETATM    8  C   UNL     1      42.928  -8.055   8.326  1.00  0.00     0.249 C 
HETATM    9  O   UNL     1      42.677  -7.407   7.314  1.00  0.00    -0.271 OA
HETATM   10  C   UNL     1      42.998 -10.331  12.051  1.00  0.00     0.035 C 
HETATM   11  C   UNL     1      42.403  -9.591  13.248  1.00  0.00     0.002 C 
HETATM   12  C   UNL     1      42.872  -8.137  13.306  1.00  0.00     0.002 C 
HETATM   13  C   UNL     1      42.613  -7.391  11.997  1.00  0.00     0.027 C 
HETATM   14  H   UNL     1      42.740  -6.445   9.539  1.00  0.00     0.163 HD
ENDROOT
BRANCH   1  15
HETATM   15  C   UNL     1      42.419 -10.272   7.226  1.00  0.00     0.146 C 
BRANCH  15  16
HETATM   16  C   UNL     1      43.186 -11.461   6.709  1.00  0.00     0.224 C 
HETATM   17  N   UNL     1      42.408 -12.541   6.374  1.00  0.00    -0.327 N 
HETATM   18  H   UNL     1      41.406 -12.392   6.297  1.00  0.00     0.169 HD
HETATM   19  O   UNL     1      44.415 -11.394   6.745  1.00  0.00    -0.273 OA
BRANCH  17  20
HETATM   20  C   UNL     1      42.842 -13.858   6.077  1.00  0.00     0.040 A 
HETATM   21  C   UNL     1      42.746 -14.325   4.748  1.00  0.00    -0.035 A 
HETATM   22  C   UNL     1      43.142 -15.643   4.447  1.00  0.00     0.015 A 
HETATM   23  C   UNL     1      42.248 -13.461   3.618  1.00  0.00     0.050 C 
HETATM   24  C   UNL     1      43.617 -16.505   5.439  1.00  0.00    -0.061 A 
HETATM   25  C   UNL     1      44.068 -17.896   5.102  1.00  0.00     0.048 C 
HETATM   26  C   UNL     1      43.717 -16.032   6.747  1.00  0.00     0.009 A 
HETATM   27  C   UNL     1      43.333 -14.725   7.062  1.00  0.00     0.030 A 
ENDBRANCH  17  20
ENDBRANCH  15  16
ENDBRANCH   1  15
TORSDOF 3
ENDMDL
MODEL 10
REMARK VINA RESULT:      -7.6      4.774      8.070
REMARK  3 active torsions:
REMARK  status: ('A' for Active; 'I' for Inactive)
REMARK    1  A    between atoms: C_6  and  N_7 
REMARK       I    between atoms: N_7  and  C_8 
REMARK    2  A    between atoms: C_8  and  C_9 
REMARK    3  A    between atoms: C_9  and  C_10 
ROOT
HETATM    1  C   UNL     1      41.335 -15.336   2.732  1.00  0.00     0.286 C 
HETATM    2  N   UNL     1      42.009 -16.547   2.068  1.00  0.00    -0.056 N 
HETATM    3  H   UNL     1      41.318 -17.006   1.443  1.00  0.00     0.278 HD
HETATM    4  H   UNL     1      42.781 -16.228   1.469  1.00  0.00     0.278 HD
HETATM    5  C   UNL     1      42.475 -17.623   3.017  1.00  0.00     0.209 C 
HETATM    6  C   UNL     1      43.251 -16.979   4.182  1.00  0.00     0.115 C 
HETATM    7  N   UNL     1      42.407 -16.026   4.882  1.00  0.00    -0.353 N 
HETATM    8  C   UNL     1      41.494 -15.216   4.263  1.00  0.00     0.249 C 
HETATM    9  O   UNL     1      40.835 -14.415   4.921  1.00  0.00    -0.271 OA
HETATM   10  C   UNL     1      43.324 -18.634   2.255  1.00  0.00     0.035 C 
HETATM   11  C   UNL     1      43.840 -19.715   3.204  1.00  0.00     0.002 C 
HETATM   12  C   UNL     1      44.591 -19.116   4.392  1.00  0.00     0.002 C 
HETATM   13  C   UNL     1      43.763 -18.065   5.132  1.00  0.00     0.027 C 
HETATM   14  H   UNL     1      42.539 -15.851   5.877  1.00  0.00     0.163 HD
ENDROOT
BRANCH   1  15
HETATM   15  C   UNL     1      39.857 -15.230   2.340  1.00  0.00     0.146 C 
BRANCH  15  16
HETATM   16  C   UNL     1      39.686 -14.000   1.487  1.00  0.00     0.224 C 
HETATM   17  N   UNL     1      40.130 -14.135   0.195  1.00  0.00    -0.327 N 
HETATM   18  H   UNL     1      40.332 -15.073  -0.137  1.00  0.00     0.169 HD
HETATM   19  O   UNL     1      39.282 -12.981   2.047  1.00  0.00    -0.273 OA
BRANCH  17  20
HETATM   20  C   UNL     1      40.310 -13.108  -0.767  1.00  0.00     0.040 A 
HETATM   21  C   UNL     1      39.865 -13.326  -2.089  1.00  0.00    -0.035 A 
HETATM   22  C   UNL     1      40.069 -12.327  -3.062  1.00  0.00     0.015 A 
HETATM   23  C   UNL     1      39.158 -14.588  -2.510  1.00  0.00     0.050 C 
HETATM   24  C   UNL     1      40.714 -11.128  -2.749  1.00  0.00    -0.061 A 
HETATM   25  C   UNL     1      40.895 -10.056  -3.784  1.00  0.00     0.048 C 
HETATM   26  C   UNL     1      41.141 -10.918  -1.439  1.00  0.00     0.009 A 
HETATM   27  C   UNL     1      40.942 -11.897  -0.460  1.00  0.00     0.030 A 
ENDBRANCH  17  20
ENDBRANCH  15  16
ENDBRANCH   1  15
TORSDOF 3
ENDMDL
