MODEL 1
REMARK VINA RESULT:      -8.8      0.000      0.000
REMARK  7 active torsions:
REMARK  status: ('A' for Active; 'I' for Inactive)
REMARK    1  A    between atoms: C_2  and  O_3 
REMARK    2  A    between atoms: O_3  and  C_4 
REMARK    3  A    between atoms: C_4  and  C_5 
REMARK    4  A    between atoms: C_10  and  N_11 
REMARK       I    between atoms: N_11  and  C_12 
REMARK    5  A    between atoms: C_12  and  C_13 
REMARK    6  A    between atoms: C_13  and  N_14 
REMARK    7  A    between atoms: N_18  and  C_19 
ROOT
HETATM    1  N   UNL     1      42.155 -12.983   3.785  1.00  0.00    -0.323 N 
HETATM    2  C   UNL     1      42.785 -11.986   3.084  1.00  0.00     0.248 C 
HETATM    3  O   UNL     1      43.984 -11.711   3.074  1.00  0.00    -0.271 OA
HETATM    4  H   UNL     1      41.152 -12.903   3.968  1.00  0.00     0.169 HD
ENDROOT
BRANCH   1   5
HETATM    5  C   UNL     1      42.776 -14.010   4.492  1.00  0.00     0.080 A 
HETATM    6  C   UNL     1      43.181 -13.818   5.806  1.00  0.00     0.137 A 
HETATM    7  N   UNL     1      43.782 -14.979   6.224  1.00  0.00    -0.349 N 
HETATM    8  H   UNL     1      44.186 -15.113   7.143  1.00  0.00     0.166 HD
HETATM    9  C   UNL     1      43.702 -15.948   5.255  1.00  0.00     0.048 A 
HETATM   10  C   UNL     1      43.066 -15.372   4.141  1.00  0.00     0.023 A 
HETATM   11  C   UNL     1      44.134 -17.284   5.306  1.00  0.00     0.070 A 
HETATM   12  C   UNL     1      42.818 -16.202   3.021  1.00  0.00     0.055 A 
HETATM   13  C   UNL     1      43.237 -17.520   3.084  1.00  0.00     0.106 A 
HETATM   14  C   UNL     1      43.873 -18.037   4.179  1.00  0.00     0.107 A 
HETATM   15  O   UNL     1      43.061 -18.443   2.098  1.00  0.00    -0.323 OA
HETATM   16  O   UNL     1      44.184 -19.352   4.027  1.00  0.00    -0.323 OA
HETATM   17  C   UNL     1      43.667 -19.605   2.705  1.00  0.00     0.352 A 
BRANCH   6  18
HETATM   18  C   UNL     1      43.038 -12.638   6.624  1.00  0.00     0.312 C 
HETATM   19  O   UNL     1      42.126 -11.829   6.497  1.00  0.00    -0.258 OA
BRANCH  18  20
HETATM   20  O   UNL     1      44.044 -12.586   7.536  1.00  0.00    -0.317 OA
BRANCH  20  21
HETATM   21  C   UNL     1      44.745 -11.338   7.655  1.00  0.00     0.175 C 
HETATM   22  C   UNL     1      45.816 -11.274   6.583  1.00  0.00     0.034 C 
ENDBRANCH  20  21
ENDBRANCH  18  20
ENDBRANCH   6  18
ENDBRANCH   1   5
BRANCH   2  23
HETATM   23  C   UNL     1      41.849 -11.131   2.224  1.00  0.00     0.337 C 
BRANCH  23  24
HETATM   24  N   UNL     1      41.386 -11.928   1.008  1.00  0.00    -0.060 N 
HETATM   25  H   UNL     1      42.125 -12.639   0.869  1.00  0.00     0.280 HD
HETATM   26  C   UNL     1      40.110 -12.726   1.275  1.00  0.00     0.255 C 
HETATM   27  C   UNL     1      39.777 -13.624   0.067  1.00  0.00     0.150 C 
HETATM   28  N   UNL     1      39.770 -12.875  -1.201  1.00  0.00    -0.377 N 
HETATM   29  C   UNL     1      40.941 -12.016  -1.464  1.00  0.00     0.150 C 
HETATM   30  C   UNL     1      41.261 -11.106  -0.259  1.00  0.00     0.255 C 
BRANCH  28  31
HETATM   31  C   UNL     1      38.563 -12.485  -1.781  1.00  0.00     0.037 A 
HETATM   32  C   UNL     1      37.887 -13.331  -2.692  1.00  0.00    -0.035 A 
HETATM   33  C   UNL     1      38.383 -14.714  -3.033  1.00  0.00     0.050 C 
HETATM   34  C   UNL     1      36.694 -12.903  -3.309  1.00  0.00     0.011 A 
HETATM   35  C   UNL     1      36.137 -11.665  -3.004  1.00  0.00     0.024 A 
HETATM   36  C   UNL     1      36.771 -10.848  -2.081  1.00  0.00     0.036 A 
HETATM   37 CL   UNL     1      36.096  -9.317  -1.683  1.00  0.00    -0.084 Cl
HETATM   38  C   UNL     1      37.964 -11.251  -1.474  1.00  0.00     0.053 A 
ENDBRANCH  28  31
ENDBRANCH  23  24
ENDBRANCH   2  23
TORSDOF 7
ENDMDL
MODEL 2
REMARK VINA RESULT:      -8.7      5.730      9.537
REMARK  7 active torsions:
REMARK  status: ('A' for Active; 'I' for Inactive)
REMARK    1  A    between atoms: C_2  and  O_3 
REMARK    2  A    between atoms: O_3  and  C_4 
REMARK    3  A    between atoms: C_4  and  C_5 
REMARK    4  A    between atoms: C_10  and  N_11 
REMARK       I    between atoms: N_11  and  C_12 
REMARK    5  A    between atoms: C_12  and  C_13 
REMARK    6  A    between atoms: C_13  and  N_14 
REMARK    7  A    between atoms: N_18  and  C_19 
ROOT
HETATM    1  N   UNL     1      41.445 -10.034   8.459  1.00  0.00    -0.323 N 
HETATM    2  C   UNL     1      41.827  -9.482   7.263  1.00  0.00     0.248 C 
HETATM    3  O   UNL     1      42.279  -8.356   7.060  1.00  0.00    -0.271 OA
HETATM    4  H   UNL     1      40.795 -10.823   8.456  1.00  0.00     0.169 HD
ENDROOT
BRANCH   1   5
HETATM    5  C   UNL     1      41.665  -9.490   9.723  1.00  0.00     0.080 A 
HETATM    6  C   UNL     1      42.911  -9.592  10.328  1.00  0.00     0.137 A 
HETATM    7  N   UNL     1      42.816  -8.999  11.563  1.00  0.00    -0.349 N 
HETATM    8  H   UNL     1      43.577  -8.945  12.229  1.00  0.00     0.166 HD
HETATM    9  C   UNL     1      41.577  -8.437  11.743  1.00  0.00     0.048 A 
HETATM   10  C   UNL     1      40.819  -8.724  10.594  1.00  0.00     0.023 A 
HETATM   11  C   UNL     1      41.097  -7.690  12.832  1.00  0.00     0.070 A 
HETATM   12  C   UNL     1      39.507  -8.196  10.521  1.00  0.00     0.055 A 
HETATM   13  C   UNL     1      39.046  -7.452  11.593  1.00  0.00     0.106 A 
HETATM   14  C   UNL     1      39.808  -7.213  12.704  1.00  0.00     0.107 A 
HETATM   15  O   UNL     1      37.817  -6.868  11.669  1.00  0.00    -0.323 OA
HETATM   16  O   UNL     1      39.160  -6.452  13.626  1.00  0.00    -0.323 OA
HETATM   17  C   UNL     1      37.897  -6.236  12.964  1.00  0.00     0.352 A 
BRANCH   6  18
HETATM   18  C   UNL     1      44.109 -10.208   9.813  1.00  0.00     0.312 C 
HETATM   19  O   UNL     1      44.163 -11.369   9.423  1.00  0.00    -0.258 OA
BRANCH  18  20
HETATM   20  O   UNL     1      45.129  -9.310   9.821  1.00  0.00    -0.317 OA
BRANCH  20  21
HETATM   21  C   UNL     1      45.402  -8.631   8.586  1.00  0.00     0.175 C 
HETATM   22  C   UNL     1      46.520  -9.358   7.864  1.00  0.00     0.034 C 
ENDBRANCH  20  21
ENDBRANCH  18  20
ENDBRANCH   6  18
ENDBRANCH   1   5
BRANCH   2  23
HETATM   23  C   UNL     1      41.650 -10.409   6.055  1.00  0.00     0.337 C 
BRANCH  23  24
HETATM   24  N   UNL     1      41.906 -11.856   6.468  1.00  0.00    -0.060 N 
HETATM   25  H   UNL     1      41.737 -11.866   7.490  1.00  0.00     0.280 HD
HETATM   26  C   UNL     1      40.881 -12.827   5.884  1.00  0.00     0.255 C 
HETATM   27  C   UNL     1      41.099 -14.243   6.454  1.00  0.00     0.150 C 
HETATM   28  N   UNL     1      42.497 -14.687   6.327  1.00  0.00    -0.377 N 
HETATM   29  C   UNL     1      43.532 -13.744   6.794  1.00  0.00     0.150 C 
HETATM   30  C   UNL     1      43.321 -12.332   6.207  1.00  0.00     0.255 C 
BRANCH  28  31
HETATM   31  C   UNL     1      42.865 -15.570   5.312  1.00  0.00     0.037 A 
HETATM   32  C   UNL     1      43.292 -16.886   5.613  1.00  0.00    -0.035 A 
HETATM   33  C   UNL     1      43.307 -17.430   7.020  1.00  0.00     0.050 C 
HETATM   34  C   UNL     1      43.709 -17.751   4.582  1.00  0.00     0.011 A 
HETATM   35  C   UNL     1      43.669 -17.347   3.251  1.00  0.00     0.024 A 
HETATM   36  C   UNL     1      43.213 -16.074   2.944  1.00  0.00     0.036 A 
HETATM   37 CL   UNL     1      43.148 -15.556   1.306  1.00  0.00    -0.084 Cl
HETATM   38  C   UNL     1      42.813 -15.198   3.958  1.00  0.00     0.053 A 
ENDBRANCH  28  31
ENDBRANCH  23  24
ENDBRANCH   2  23
TORSDOF 7
ENDMDL
MODEL 3
REMARK VINA RESULT:      -8.7      2.217      3.645
REMARK  7 active torsions:
REMARK  status: ('A' for Active; 'I' for Inactive)
REMARK    1  A    between atoms: C_2  and  O_3 
REMARK    2  A    between atoms: O_3  and  C_4 
REMARK    3  A    between atoms: C_4  and  C_5 
REMARK    4  A    between atoms: C_10  and  N_11 
REMARK       I    between atoms: N_11  and  C_12 
REMARK    5  A    between atoms: C_12  and  C_13 
REMARK    6  A    between atoms: C_13  and  N_14 
REMARK    7  A    between atoms: N_18  and  C_19 
ROOT
HETATM    1  N   UNL     1      41.738 -15.332   1.067  1.00  0.00    -0.323 N 
HETATM    2  C   UNL     1      40.374 -15.289   0.921  1.00  0.00     0.248 C 
HETATM    3  O   UNL     1      39.518 -15.721   1.691  1.00  0.00    -0.271 OA
HETATM    4  H   UNL     1      42.328 -15.247   0.237  1.00  0.00     0.169 HD
ENDROOT
BRANCH   1   5
HETATM    5  C   UNL     1      42.430 -15.715   2.214  1.00  0.00     0.080 A 
HETATM    6  C   UNL     1      42.710 -14.791   3.212  1.00  0.00     0.137 A 
HETATM    7  N   UNL     1      43.419 -15.445   4.189  1.00  0.00    -0.349 N 
HETATM    8  H   UNL     1      43.769 -15.004   5.030  1.00  0.00     0.166 HD
HETATM    9  C   UNL     1      43.533 -16.782   3.900  1.00  0.00     0.048 A 
HETATM   10  C   UNL     1      42.913 -16.994   2.656  1.00  0.00     0.023 A 
HETATM   11  C   UNL     1      44.124 -17.802   4.664  1.00  0.00     0.070 A 
HETATM   12  C   UNL     1      42.854 -18.321   2.166  1.00  0.00     0.055 A 
HETATM   13  C   UNL     1      43.429 -19.321   2.930  1.00  0.00     0.106 A 
HETATM   14  C   UNL     1      44.043 -19.070   4.128  1.00  0.00     0.107 A 
HETATM   15  O   UNL     1      43.443 -20.644   2.604  1.00  0.00    -0.323 OA
HETATM   16  O   UNL     1      44.527 -20.200   4.710  1.00  0.00    -0.323 OA
HETATM   17  C   UNL     1      44.144 -21.195   3.740  1.00  0.00     0.352 A 
BRANCH   6  18
HETATM   18  C   UNL     1      42.360 -13.392   3.261  1.00  0.00     0.312 C 
HETATM   19  O   UNL     1      41.229 -12.982   3.494  1.00  0.00    -0.258 OA
BRANCH  18  20
HETATM   20  O   UNL     1      43.463 -12.634   3.026  1.00  0.00    -0.317 OA
BRANCH  20  21
HETATM   21  C   UNL     1      43.547 -11.382   3.724  1.00  0.00     0.175 C 
HETATM   22  C   UNL     1      44.142 -11.625   5.098  1.00  0.00     0.034 C 
ENDBRANCH  20  21
ENDBRANCH  18  20
ENDBRANCH   6  18
ENDBRANCH   1   5
BRANCH   2  23
HETATM   23  C   UNL     1      39.899 -14.617  -0.371  1.00  0.00     0.337 C 
BRANCH  23  24
HETATM   24  N   UNL     1      40.684 -13.330  -0.608  1.00  0.00    -0.060 N 
HETATM   25  H   UNL     1      41.672 -13.599  -0.456  1.00  0.00     0.280 HD
HETATM   26  C   UNL     1      40.618 -12.855  -2.059  1.00  0.00     0.255 C 
HETATM   27  C   UNL     1      41.547 -11.644  -2.269  1.00  0.00     0.150 C 
HETATM   28  N   UNL     1      41.317 -10.584  -1.272  1.00  0.00    -0.377 N 
HETATM   29  C   UNL     1      41.280 -11.006   0.142  1.00  0.00     0.150 C 
HETATM   30  C   UNL     1      40.336 -12.209   0.351  1.00  0.00     0.255 C 
BRANCH  28  31
HETATM   31  C   UNL     1      40.574  -9.452  -1.608  1.00  0.00     0.037 A 
HETATM   32  C   UNL     1      41.193  -8.183  -1.720  1.00  0.00    -0.035 A 
HETATM   33  C   UNL     1      42.680  -7.991  -1.558  1.00  0.00     0.050 C 
HETATM   34  C   UNL     1      40.422  -7.040  -2.011  1.00  0.00     0.011 A 
HETATM   35  C   UNL     1      39.052  -7.140  -2.233  1.00  0.00     0.024 A 
HETATM   36  C   UNL     1      38.446  -8.385  -2.167  1.00  0.00     0.036 A 
HETATM   37 CL   UNL     1      36.755  -8.533  -2.447  1.00  0.00    -0.084 Cl
HETATM   38  C   UNL     1      39.194  -9.526  -1.862  1.00  0.00     0.053 A 
ENDBRANCH  28  31
ENDBRANCH  23  24
ENDBRANCH   2  23
TORSDOF 7
ENDMDL
MODEL 4
REMARK VINA RESULT:      -8.5      2.000      2.523
REMARK  7 active torsions:
REMARK  status: ('A' for Active; 'I' for Inactive)
REMARK    1  A    between atoms: C_2  and  O_3 
REMARK    2  A    between atoms: O_3  and  C_4 
REMARK    3  A    between atoms: C_4  and  C_5 
REMARK    4  A    between atoms: C_10  and  N_11 
REMARK       I    between atoms: N_11  and  C_12 
REMARK    5  A    between atoms: C_12  and  C_13 
REMARK    6  A    between atoms: C_13  and  N_14 
REMARK    7  A    between atoms: N_18  and  C_19 
ROOT
HETATM    1  N   UNL     1      42.652 -14.296   4.052  1.00  0.00    -0.323 N 
HETATM    2  C   UNL     1      41.330 -14.081   3.754  1.00  0.00     0.248 C 
HETATM    3  O   UNL     1      40.409 -14.896   3.775  1.00  0.00    -0.271 OA
HETATM    4  H   UNL     1      43.355 -13.649   3.687  1.00  0.00     0.169 HD
ENDROOT
BRANCH   1   5
HETATM    5  C   UNL     1      43.190 -15.449   4.621  1.00  0.00     0.080 A 
HETATM    6  C   UNL     1      43.590 -15.460   5.950  1.00  0.00     0.137 A 
HETATM    7  N   UNL     1      44.101 -16.707   6.214  1.00  0.00    -0.349 N 
HETATM    8  H   UNL     1      44.483 -16.989   7.108  1.00  0.00     0.166 HD
HETATM    9  C   UNL     1      43.964 -17.532   5.126  1.00  0.00     0.048 A 
HETATM   10  C   UNL     1      43.386 -16.771   4.095  1.00  0.00     0.023 A 
HETATM   11  C   UNL     1      44.299 -18.892   5.002  1.00  0.00     0.070 A 
HETATM   12  C   UNL     1      43.093 -17.427   2.875  1.00  0.00     0.055 A 
HETATM   13  C   UNL     1      43.416 -18.769   2.765  1.00  0.00     0.106 A 
HETATM   14  C   UNL     1      43.999 -19.470   3.786  1.00  0.00     0.107 A 
HETATM   15  O   UNL     1      43.188 -19.540   1.666  1.00  0.00    -0.323 OA
HETATM   16  O   UNL     1      44.217 -20.773   3.463  1.00  0.00    -0.323 OA
HETATM   17  C   UNL     1      43.701 -20.812   2.117  1.00  0.00     0.352 A 
BRANCH   6  18
HETATM   18  C   UNL     1      43.522 -14.390   6.916  1.00  0.00     0.312 C 
HETATM   19  O   UNL     1      43.198 -14.551   8.087  1.00  0.00    -0.258 OA
BRANCH  18  20
HETATM   20  O   UNL     1      43.878 -13.217   6.330  1.00  0.00    -0.317 OA
BRANCH  20  21
HETATM   21  C   UNL     1      44.140 -12.110   7.206  1.00  0.00     0.175 C 
HETATM   22  C   UNL     1      45.471 -11.490   6.829  1.00  0.00     0.034 C 
ENDBRANCH  20  21
ENDBRANCH  18  20
ENDBRANCH   6  18
ENDBRANCH   1   5
BRANCH   2  23
HETATM   23  C   UNL     1      41.002 -12.641   3.346  1.00  0.00     0.337 C 
BRANCH  23  24
HETATM   24  N   UNL     1      40.094 -12.643   2.119  1.00  0.00    -0.060 N 
HETATM   25  H   UNL     1      39.387 -13.372   2.322  1.00  0.00     0.280 HD
HETATM   26  C   UNL     1      39.297 -11.347   1.972  1.00  0.00     0.255 C 
HETATM   27  C   UNL     1      38.292 -11.465   0.809  1.00  0.00     0.150 C 
HETATM   28  N   UNL     1      38.929 -11.931  -0.434  1.00  0.00    -0.377 N 
HETATM   29  C   UNL     1      39.785 -13.129  -0.327  1.00  0.00     0.150 C 
HETATM   30  C   UNL     1      40.801 -13.000   0.828  1.00  0.00     0.255 C 
BRANCH  28  31
HETATM   31  C   UNL     1      39.245 -11.023  -1.446  1.00  0.00     0.037 A 
HETATM   32  C   UNL     1      38.402 -10.870  -2.574  1.00  0.00    -0.035 A 
HETATM   33  C   UNL     1      37.097 -11.612  -2.716  1.00  0.00     0.050 C 
HETATM   34  C   UNL     1      38.759  -9.986  -3.612  1.00  0.00     0.011 A 
HETATM   35  C   UNL     1      39.917  -9.220  -3.531  1.00  0.00     0.024 A 
HETATM   36  C   UNL     1      40.726  -9.333  -2.411  1.00  0.00     0.036 A 
HETATM   37 CL   UNL     1      42.158  -8.390  -2.286  1.00  0.00    -0.084 Cl
HETATM   38  C   UNL     1      40.395 -10.219  -1.381  1.00  0.00     0.053 A 
ENDBRANCH  28  31
ENDBRANCH  23  24
ENDBRANCH   2  23
TORSDOF 7
ENDMDL
MODEL 5
REMARK VINA RESULT:      -8.5      4.175      9.781
REMARK  7 active torsions:
REMARK  status: ('A' for Active; 'I' for Inactive)
REMARK    1  A    between atoms: C_2  and  O_3 
REMARK    2  A    between atoms: O_3  and  C_4 
REMARK    3  A    between atoms: C_4  and  C_5 
REMARK    4  A    between atoms: C_10  and  N_11 
REMARK       I    between atoms: N_11  and  C_12 
REMARK    5  A    between atoms: C_12  and  C_13 
REMARK    6  A    between atoms: C_13  and  N_14 
REMARK    7  A    between atoms: N_18  and  C_19 
ROOT
HETATM    1  N   UNL     1      41.440 -11.853   0.326  1.00  0.00    -0.323 N 
HETATM    2  C   UNL     1      40.644 -11.592   1.413  1.00  0.00     0.248 C 
HETATM    3  O   UNL     1      39.682 -10.828   1.479  1.00  0.00    -0.271 OA
HETATM    4  H   UNL     1      42.377 -12.233   0.478  1.00  0.00     0.169 HD
ENDROOT
BRANCH   1   5
HETATM    5  C   UNL     1      41.204 -11.440  -0.983  1.00  0.00     0.080 A 
HETATM    6  C   UNL     1      40.680 -12.322  -1.918  1.00  0.00     0.137 A 
HETATM    7  N   UNL     1      40.589 -11.649  -3.112  1.00  0.00    -0.349 N 
HETATM    8  H   UNL     1      40.252 -12.060  -3.973  1.00  0.00     0.166 HD
HETATM    9  C   UNL     1      40.953 -10.335  -2.961  1.00  0.00     0.048 A 
HETATM   10  C   UNL     1      41.347 -10.161  -1.622  1.00  0.00     0.023 A 
HETATM   11  C   UNL     1      40.943  -9.301  -3.913  1.00  0.00     0.070 A 
HETATM   12  C   UNL     1      41.719  -8.860  -1.207  1.00  0.00     0.055 A 
HETATM   13  C   UNL     1      41.695  -7.846  -2.149  1.00  0.00     0.106 A 
HETATM   14  C   UNL     1      41.326  -8.060  -3.449  1.00  0.00     0.107 A 
HETATM   15  O   UNL     1      42.011  -6.544  -1.904  1.00  0.00    -0.323 OA
HETATM   16  O   UNL     1      41.365  -6.923  -4.194  1.00  0.00    -0.323 OA
HETATM   17  C   UNL     1      41.800  -5.964  -3.209  1.00  0.00     0.352 A 
BRANCH   6  18
HETATM   18  C   UNL     1      40.298 -13.701  -1.733  1.00  0.00     0.312 C 
HETATM   19  O   UNL     1      40.324 -14.274  -0.650  1.00  0.00    -0.258 OA
BRANCH  18  20
HETATM   20  O   UNL     1      39.906 -14.234  -2.920  1.00  0.00    -0.317 OA
BRANCH  20  21
HETATM   21  C   UNL     1      38.739 -15.071  -2.899  1.00  0.00     0.175 C 
HETATM   22  C   UNL     1      37.887 -14.756  -4.113  1.00  0.00     0.034 C 
ENDBRANCH  20  21
ENDBRANCH  18  20
ENDBRANCH   6  18
ENDBRANCH   1   5
BRANCH   2  23
HETATM   23  C   UNL     1      41.035 -12.359   2.680  1.00  0.00     0.337 C 
BRANCH  23  24
HETATM   24  N   UNL     1      41.491 -13.769   2.315  1.00  0.00    -0.060 N 
HETATM   25  H   UNL     1      41.319 -13.840   1.296  1.00  0.00     0.280 HD
HETATM   26  C   UNL     1      42.998 -13.964   2.480  1.00  0.00     0.255 C 
HETATM   27  C   UNL     1      43.418 -15.352   1.955  1.00  0.00     0.150 C 
HETATM   28  N   UNL     1      42.600 -16.436   2.523  1.00  0.00    -0.377 N 
HETATM   29  C   UNL     1      41.136 -16.252   2.471  1.00  0.00     0.150 C 
HETATM   30  C   UNL     1      40.717 -14.869   3.014  1.00  0.00     0.255 C 
BRANCH  28  31
HETATM   31  C   UNL     1      43.097 -17.221   3.564  1.00  0.00     0.037 A 
HETATM   32  C   UNL     1      43.463 -18.571   3.345  1.00  0.00    -0.035 A 
HETATM   33  C   UNL     1      43.408 -19.214   1.982  1.00  0.00     0.050 C 
HETATM   34  C   UNL     1      43.916 -19.367   4.416  1.00  0.00     0.011 A 
HETATM   35  C   UNL     1      44.052 -18.834   5.694  1.00  0.00     0.024 A 
HETATM   36  C   UNL     1      43.736 -17.501   5.908  1.00  0.00     0.036 A 
HETATM   37 CL   UNL     1      43.904 -16.819   7.478  1.00  0.00    -0.084 Cl
HETATM   38  C   UNL     1      43.268 -16.703   4.860  1.00  0.00     0.053 A 
ENDBRANCH  28  31
ENDBRANCH  23  24
ENDBRANCH   2  23
TORSDOF 7
ENDMDL
MODEL 6
REMARK VINA RESULT:      -8.5      2.509      3.913
REMARK  7 active torsions:
REMARK  status: ('A' for Active; 'I' for Inactive)
REMARK    1  A    between atoms: C_2  and  O_3 
REMARK    2  A    between atoms: O_3  and  C_4 
REMARK    3  A    between atoms: C_4  and  C_5 
REMARK    4  A    between atoms: C_10  and  N_11 
REMARK       I    between atoms: N_11  and  C_12 
REMARK    5  A    between atoms: C_12  and  C_13 
REMARK    6  A    between atoms: C_13  and  N_14 
REMARK    7  A    between atoms: N_18  and  C_19 
ROOT
HETATM    1  N   UNL     1      41.981 -15.255   1.175  1.00  0.00    -0.323 N 
HETATM    2  C   UNL     1      40.630 -15.203   0.941  1.00  0.00     0.248 C 
HETATM    3  O   UNL     1      39.725 -15.673   1.630  1.00  0.00    -0.271 OA
HETATM    4  H   UNL     1      42.625 -15.129   0.391  1.00  0.00     0.169 HD
ENDROOT
BRANCH   1   5
HETATM    5  C   UNL     1      42.596 -15.696   2.345  1.00  0.00     0.080 A 
HETATM    6  C   UNL     1      42.832 -14.817   3.393  1.00  0.00     0.137 A 
HETATM    7  N   UNL     1      43.470 -15.522   4.384  1.00  0.00    -0.349 N 
HETATM    8  H   UNL     1      43.777 -15.121   5.262  1.00  0.00     0.166 HD
HETATM    9  C   UNL     1      43.577 -16.848   4.050  1.00  0.00     0.048 A 
HETATM   10  C   UNL     1      43.030 -17.000   2.763  1.00  0.00     0.023 A 
HETATM   11  C   UNL     1      44.104 -17.909   4.806  1.00  0.00     0.070 A 
HETATM   12  C   UNL     1      42.977 -18.306   2.218  1.00  0.00     0.055 A 
HETATM   13  C   UNL     1      43.487 -19.346   2.975  1.00  0.00     0.106 A 
HETATM   14  C   UNL     1      44.033 -19.154   4.215  1.00  0.00     0.107 A 
HETATM   15  O   UNL     1      43.498 -20.655   2.597  1.00  0.00    -0.323 OA
HETATM   16  O   UNL     1      44.461 -20.315   4.780  1.00  0.00    -0.323 OA
HETATM   17  C   UNL     1      44.120 -21.264   3.750  1.00  0.00     0.352 A 
BRANCH   6  18
HETATM   18  C   UNL     1      42.505 -13.414   3.477  1.00  0.00     0.312 C 
HETATM   19  O   UNL     1      42.884 -12.579   2.665  1.00  0.00    -0.258 OA
BRANCH  18  20
HETATM   20  O   UNL     1      41.722 -13.188   4.564  1.00  0.00    -0.317 OA
BRANCH  20  21
HETATM   21  C   UNL     1      40.326 -13.498   4.430  1.00  0.00     0.175 C 
HETATM   22  C   UNL     1      39.512 -12.308   4.897  1.00  0.00     0.034 C 
ENDBRANCH  20  21
ENDBRANCH  18  20
ENDBRANCH   6  18
ENDBRANCH   1   5
BRANCH   2  23
HETATM   23  C   UNL     1      40.240 -14.467  -0.345  1.00  0.00     0.337 C 
BRANCH  23  24
HETATM   24  N   UNL     1      39.267 -13.337  -0.022  1.00  0.00    -0.060 N 
HETATM   25  H   UNL     1      38.517 -13.791   0.528  1.00  0.00     0.280 HD
HETATM   26  C   UNL     1      39.868 -12.288   0.913  1.00  0.00     0.255 C 
HETATM   27  C   UNL     1      38.796 -11.258   1.321  1.00  0.00     0.150 C 
HETATM   28  N   UNL     1      38.086 -10.699   0.159  1.00  0.00    -0.377 N 
HETATM   29  C   UNL     1      37.565 -11.670  -0.824  1.00  0.00     0.150 C 
HETATM   30  C   UNL     1      38.646 -12.689  -1.244  1.00  0.00     0.255 C 
BRANCH  28  31
HETATM   31  C   UNL     1      38.417  -9.433  -0.326  1.00  0.00     0.037 A 
HETATM   32  C   UNL     1      37.546  -8.333  -0.138  1.00  0.00    -0.035 A 
HETATM   33  C   UNL     1      36.262  -8.441   0.646  1.00  0.00     0.050 C 
HETATM   34  C   UNL     1      37.869  -7.071  -0.676  1.00  0.00     0.011 A 
HETATM   35  C   UNL     1      39.063  -6.871  -1.362  1.00  0.00     0.024 A 
HETATM   36  C   UNL     1      39.940  -7.934  -1.514  1.00  0.00     0.036 A 
HETATM   37 CL   UNL     1      41.426  -7.708  -2.351  1.00  0.00    -0.084 Cl
HETATM   38  C   UNL     1      39.626  -9.196  -1.001  1.00  0.00     0.053 A 
ENDBRANCH  28  31
ENDBRANCH  23  24
ENDBRANCH   2  23
TORSDOF 7
ENDMDL
MODEL 7
REMARK VINA RESULT:      -8.5      3.758      8.699
REMARK  7 active torsions:
REMARK  status: ('A' for Active; 'I' for Inactive)
REMARK    1  A    between atoms: C_2  and  O_3 
REMARK    2  A    between atoms: O_3  and  C_4 
REMARK    3  A    between atoms: C_4  and  C_5 
REMARK    4  A    between atoms: C_10  and  N_11 
REMARK       I    between atoms: N_11  and  C_12 
REMARK    5  A    between atoms: C_12  and  C_13 
REMARK    6  A    between atoms: C_13  and  N_14 
REMARK    7  A    between atoms: N_18  and  C_19 
ROOT
HETATM    1  N   UNL     1      41.352 -12.663   3.666  1.00  0.00    -0.323 N 
HETATM    2  C   UNL     1      42.111 -11.526   3.782  1.00  0.00     0.248 C 
HETATM    3  O   UNL     1      43.246 -11.329   3.351  1.00  0.00    -0.271 OA
HETATM    4  H   UNL     1      40.589 -12.820   4.329  1.00  0.00     0.169 HD
ENDROOT
BRANCH   1   5
HETATM    5  C   UNL     1      41.645 -13.770   2.873  1.00  0.00     0.080 A 
HETATM    6  C   UNL     1      41.330 -13.773   1.520  1.00  0.00     0.137 A 
HETATM    7  N   UNL     1      41.705 -14.994   1.015  1.00  0.00    -0.349 N 
HETATM    8  H   UNL     1      41.575 -15.276   0.051  1.00  0.00     0.166 HD
HETATM    9  C   UNL     1      42.333 -15.749   1.973  1.00  0.00     0.048 A 
HETATM   10  C   UNL     1      42.319 -15.005   3.166  1.00  0.00     0.023 A 
HETATM   11  C   UNL     1      42.918 -17.021   1.852  1.00  0.00     0.070 A 
HETATM   12  C   UNL     1      42.964 -15.559   4.298  1.00  0.00     0.055 A 
HETATM   13  C   UNL     1      43.547 -16.807   4.166  1.00  0.00     0.106 A 
HETATM   14  C   UNL     1      43.520 -17.510   2.992  1.00  0.00     0.107 A 
HETATM   15  O   UNL     1      44.214 -17.467   5.154  1.00  0.00    -0.323 OA
HETATM   16  O   UNL     1      44.163 -18.705   3.087  1.00  0.00    -0.323 OA
HETATM   17  C   UNL     1      44.601 -18.673   4.461  1.00  0.00     0.352 A 
BRANCH   6  18
HETATM   18  C   UNL     1      40.711 -12.728   0.742  1.00  0.00     0.312 C 
HETATM   19  O   UNL     1      41.262 -11.668   0.467  1.00  0.00    -0.258 OA
BRANCH  18  20
HETATM   20  O   UNL     1      39.463 -13.111   0.367  1.00  0.00    -0.317 OA
BRANCH  20  21
HETATM   21  C   UNL     1      39.164 -13.056  -1.036  1.00  0.00     0.175 C 
HETATM   22  C   UNL     1      39.206 -14.462  -1.602  1.00  0.00     0.034 C 
ENDBRANCH  20  21
ENDBRANCH  18  20
ENDBRANCH   6  18
ENDBRANCH   1   5
BRANCH   2  23
HETATM   23  C   UNL     1      41.430 -10.388   4.549  1.00  0.00     0.337 C 
BRANCH  23  24
HETATM   24  N   UNL     1      42.346  -9.893   5.665  1.00  0.00    -0.060 N 
HETATM   25  H   UNL     1      43.159  -9.485   5.170  1.00  0.00     0.280 HD
HETATM   26  C   UNL     1      41.740  -8.734   6.457  1.00  0.00     0.255 C 
HETATM   27  C   UNL     1      42.766  -8.180   7.465  1.00  0.00     0.150 C 
HETATM   28  N   UNL     1      43.359  -9.240   8.298  1.00  0.00    -0.377 N 
HETATM   29  C   UNL     1      43.878 -10.424   7.586  1.00  0.00     0.150 C 
HETATM   30  C   UNL     1      42.841 -10.987   6.589  1.00  0.00     0.255 C 
BRANCH  28  31
HETATM   31  C   UNL     1      42.915  -9.439   9.606  1.00  0.00     0.037 A 
HETATM   32  C   UNL     1      43.829  -9.721  10.649  1.00  0.00    -0.035 A 
HETATM   33  C   UNL     1      45.322  -9.751  10.431  1.00  0.00     0.050 C 
HETATM   34  C   UNL     1      43.362  -9.969  11.955  1.00  0.00     0.011 A 
HETATM   35  C   UNL     1      42.005  -9.902  12.253  1.00  0.00     0.024 A 
HETATM   36  C   UNL     1      41.107  -9.585  11.246  1.00  0.00     0.036 A 
HETATM   37 CL   UNL     1      39.425  -9.489  11.593  1.00  0.00    -0.084 Cl
HETATM   38  C   UNL     1      41.553  -9.354   9.941  1.00  0.00     0.053 A 
ENDBRANCH  28  31
ENDBRANCH  23  24
ENDBRANCH   2  23
TORSDOF 7
ENDMDL
MODEL 8
REMARK VINA RESULT:      -8.2      5.047      9.365
REMARK  7 active torsions:
REMARK  status: ('A' for Active; 'I' for Inactive)
REMARK    1  A    between atoms: C_2  and  O_3 
REMARK    2  A    between atoms: O_3  and  C_4 
REMARK    3  A    between atoms: C_4  and  C_5 
REMARK    4  A    between atoms: C_10  and  N_11 
REMARK       I    between atoms: N_11  and  C_12 
REMARK    5  A    between atoms: C_12  and  C_13 
REMARK    6  A    between atoms: C_13  and  N_14 
REMARK    7  A    between atoms: N_18  and  C_19 
ROOT
HETATM    1  N   UNL     1      42.746 -12.841   6.875  1.00  0.00    -0.323 N 
HETATM    2  C   UNL     1      43.662 -11.852   6.617  1.00  0.00     0.248 C 
HETATM    3  O   UNL     1      44.034 -11.433   5.522  1.00  0.00    -0.271 OA
HETATM    4  H   UNL     1      42.769 -13.314   7.780  1.00  0.00     0.169 HD
ENDROOT
BRANCH   1   5
HETATM    5  C   UNL     1      41.910 -13.449   5.941  1.00  0.00     0.080 A 
HETATM    6  C   UNL     1      40.660 -12.915   5.659  1.00  0.00     0.137 A 
HETATM    7  N   UNL     1      40.061 -13.737   4.737  1.00  0.00    -0.349 N 
HETATM    8  H   UNL     1      39.131 -13.593   4.364  1.00  0.00     0.166 HD
HETATM    9  C   UNL     1      40.915 -14.737   4.345  1.00  0.00     0.048 A 
HETATM   10  C   UNL     1      42.101 -14.586   5.084  1.00  0.00     0.023 A 
HETATM   11  C   UNL     1      40.716 -15.741   3.382  1.00  0.00     0.070 A 
HETATM   12  C   UNL     1      43.166 -15.479   4.814  1.00  0.00     0.055 A 
HETATM   13  C   UNL     1      42.965 -16.458   3.856  1.00  0.00     0.106 A 
HETATM   14  C   UNL     1      41.786 -16.586   3.173  1.00  0.00     0.107 A 
HETATM   15  O   UNL     1      43.892 -17.380   3.474  1.00  0.00    -0.323 OA
HETATM   16  O   UNL     1      41.815 -17.607   2.274  1.00  0.00    -0.323 OA
HETATM   17  C   UNL     1      43.153 -18.107   2.470  1.00  0.00     0.352 A 
BRANCH   6  18
HETATM   18  C   UNL     1      40.045 -11.732   6.211  1.00  0.00     0.312 C 
HETATM   19  O   UNL     1      39.141 -11.758   7.037  1.00  0.00    -0.258 OA
BRANCH  18  20
HETATM   20  O   UNL     1      40.630 -10.623   5.688  1.00  0.00    -0.317 OA
BRANCH  20  21
HETATM   21  C   UNL     1      39.760  -9.532   5.348  1.00  0.00     0.175 C 
HETATM   22  C   UNL     1      39.047  -9.859   4.050  1.00  0.00     0.034 C 
ENDBRANCH  20  21
ENDBRANCH  18  20
ENDBRANCH   6  18
ENDBRANCH   1   5
BRANCH   2  23
HETATM   23  C   UNL     1      44.278 -11.221   7.870  1.00  0.00     0.337 C 
BRANCH  23  24
HETATM   24  N   UNL     1      43.782  -9.785   8.026  1.00  0.00    -0.060 N 
HETATM   25  H   UNL     1      43.715  -9.429   7.057  1.00  0.00     0.280 HD
HETATM   26  C   UNL     1      42.359  -9.709   8.579  1.00  0.00     0.255 C 
HETATM   27  C   UNL     1      41.860  -8.250   8.571  1.00  0.00     0.150 C 
HETATM   28  N   UNL     1      42.812  -7.331   9.217  1.00  0.00    -0.377 N 
HETATM   29  C   UNL     1      44.220  -7.429   8.784  1.00  0.00     0.150 C 
HETATM   30  C   UNL     1      44.721  -8.889   8.808  1.00  0.00     0.255 C 
BRANCH  28  31
HETATM   31  C   UNL     1      42.587  -6.886  10.521  1.00  0.00     0.037 A 
HETATM   32  C   UNL     1      42.297  -5.526  10.784  1.00  0.00    -0.035 A 
HETATM   33  C   UNL     1      42.143  -4.503   9.686  1.00  0.00     0.050 C 
HETATM   34  C   UNL     1      42.121  -5.081  12.110  1.00  0.00     0.011 A 
HETATM   35  C   UNL     1      42.188  -5.971  13.177  1.00  0.00     0.024 A 
HETATM   36  C   UNL     1      42.431  -7.313  12.923  1.00  0.00     0.036 A 
HETATM   37 CL   UNL     1      42.509  -8.433  14.226  1.00  0.00    -0.084 Cl
HETATM   38  C   UNL     1      42.625  -7.766  11.615  1.00  0.00     0.053 A 
ENDBRANCH  28  31
ENDBRANCH  23  24
ENDBRANCH   2  23
TORSDOF 7
ENDMDL
MODEL 9
REMARK VINA RESULT:      -8.2      4.318      9.937
REMARK  7 active torsions:
REMARK  status: ('A' for Active; 'I' for Inactive)
REMARK    1  A    between atoms: C_2  and  O_3 
REMARK    2  A    between atoms: O_3  and  C_4 
REMARK    3  A    between atoms: C_4  and  C_5 
REMARK    4  A    between atoms: C_10  and  N_11 
REMARK       I    between atoms: N_11  and  C_12 
REMARK    5  A    between atoms: C_12  and  C_13 
REMARK    6  A    between atoms: C_13  and  N_14 
REMARK    7  A    between atoms: N_18  and  C_19 
ROOT
HETATM    1  N   UNL     1      38.963 -12.504   0.425  1.00  0.00    -0.323 N 
HETATM    2  C   UNL     1      39.943 -11.786   1.064  1.00  0.00     0.248 C 
HETATM    3  O   UNL     1      40.438 -10.713   0.722  1.00  0.00    -0.271 OA
HETATM    4  H   UNL     1      38.877 -13.504   0.617  1.00  0.00     0.169 HD
ENDROOT
BRANCH   1   5
HETATM    5  C   UNL     1      38.196 -12.068  -0.653  1.00  0.00     0.080 A 
HETATM    6  C   UNL     1      38.339 -12.655  -1.904  1.00  0.00     0.137 A 
HETATM    7  N   UNL     1      37.486 -12.004  -2.761  1.00  0.00    -0.349 N 
HETATM    8  H   UNL     1      37.396 -12.218  -3.747  1.00  0.00     0.166 HD
HETATM    9  C   UNL     1      36.731 -11.075  -2.090  1.00  0.00     0.048 A 
HETATM   10  C   UNL     1      37.149 -11.089  -0.748  1.00  0.00     0.023 A 
HETATM   11  C   UNL     1      35.706 -10.249  -2.582  1.00  0.00     0.070 A 
HETATM   12  C   UNL     1      36.472 -10.244   0.164  1.00  0.00     0.055 A 
HETATM   13  C   UNL     1      35.457  -9.441  -0.327  1.00  0.00     0.106 A 
HETATM   14  C   UNL     1      35.093  -9.441  -1.647  1.00  0.00     0.107 A 
HETATM   15  O   UNL     1      34.705  -8.586   0.421  1.00  0.00    -0.323 OA
HETATM   16  O   UNL     1      34.068  -8.585  -1.903  1.00  0.00    -0.323 OA
HETATM   17  C   UNL     1      33.825  -8.045  -0.588  1.00  0.00     0.352 A 
BRANCH   6  18
HETATM   18  C   UNL     1      39.212 -13.735  -2.293  1.00  0.00     0.312 C 
HETATM   19  O   UNL     1      39.213 -14.836  -1.755  1.00  0.00    -0.258 OA
BRANCH  18  20
HETATM   20  O   UNL     1      39.998 -13.342  -3.329  1.00  0.00    -0.317 OA
BRANCH  20  21
HETATM   21  C   UNL     1      41.179 -12.595  -2.999  1.00  0.00     0.175 C 
HETATM   22  C   UNL     1      40.954 -11.138  -3.356  1.00  0.00     0.034 C 
ENDBRANCH  20  21
ENDBRANCH  18  20
ENDBRANCH   6  18
ENDBRANCH   1   5
BRANCH   2  23
HETATM   23  C   UNL     1      40.460 -12.433   2.353  1.00  0.00     0.337 C 
BRANCH  23  24
HETATM   24  N   UNL     1      41.089 -13.787   2.039  1.00  0.00    -0.060 N 
HETATM   25  H   UNL     1      40.973 -13.895   1.016  1.00  0.00     0.280 HD
HETATM   26  C   UNL     1      42.600 -13.806   2.273  1.00  0.00     0.255 C 
HETATM   27  C   UNL     1      43.198 -15.145   1.797  1.00  0.00     0.150 C 
HETATM   28  N   UNL     1      42.484 -16.305   2.354  1.00  0.00    -0.377 N 
HETATM   29  C   UNL     1      41.012 -16.292   2.236  1.00  0.00     0.150 C 
HETATM   30  C   UNL     1      40.415 -14.956   2.728  1.00  0.00     0.255 C 
BRANCH  28  31
HETATM   31  C   UNL     1      43.019 -17.010   3.433  1.00  0.00     0.037 A 
HETATM   32  C   UNL     1      43.448 -18.351   3.284  1.00  0.00    -0.035 A 
HETATM   33  C   UNL     1      43.420 -19.067   1.956  1.00  0.00     0.050 C 
HETATM   34  C   UNL     1      43.940 -19.067   4.393  1.00  0.00     0.011 A 
HETATM   35  C   UNL     1      44.054 -18.462   5.641  1.00  0.00     0.024 A 
HETATM   36  C   UNL     1      43.675 -17.136   5.785  1.00  0.00     0.036 A 
HETATM   37 CL   UNL     1      43.815 -16.365   7.316  1.00  0.00    -0.084 Cl
HETATM   38  C   UNL     1      43.168 -16.418   4.698  1.00  0.00     0.053 A 
ENDBRANCH  28  31
ENDBRANCH  23  24
ENDBRANCH   2  23
TORSDOF 7
ENDMDL
MODEL 10
REMARK VINA RESULT:      -8.2      5.074      9.301
REMARK  7 active torsions:
REMARK  status: ('A' for Active; 'I' for Inactive)
REMARK    1  A    between atoms: C_2  and  O_3 
REMARK    2  A    between atoms: O_3  and  C_4 
REMARK    3  A    between atoms: C_4  and  C_5 
REMARK    4  A    between atoms: C_10  and  N_11 
REMARK       I    between atoms: N_11  and  C_12 
REMARK    5  A    between atoms: C_12  and  C_13 
REMARK    6  A    between atoms: C_13  and  N_14 
REMARK    7  A    between atoms: N_18  and  C_19 
ROOT
HETATM    1  N   UNL     1      42.421 -12.160   6.748  1.00  0.00    -0.323 N 
HETATM    2  C   UNL     1      43.454 -11.335   6.380  1.00  0.00     0.248 C 
HETATM    3  O   UNL     1      43.960 -11.210   5.265  1.00  0.00    -0.271 OA
HETATM    4  H   UNL     1      42.317 -12.414   7.733  1.00  0.00     0.169 HD
ENDROOT
BRANCH   1   5
HETATM    5  C   UNL     1      41.609 -12.895   5.888  1.00  0.00     0.080 A 
HETATM    6  C   UNL     1      40.310 -12.484   5.620  1.00  0.00     0.137 A 
HETATM    7  N   UNL     1      39.753 -13.412   4.774  1.00  0.00    -0.349 N 
HETATM    8  H   UNL     1      38.802 -13.369   4.428  1.00  0.00     0.166 HD
HETATM    9  C   UNL     1      40.675 -14.362   4.415  1.00  0.00     0.048 A 
HETATM   10  C   UNL     1      41.868 -14.066   5.098  1.00  0.00     0.023 A 
HETATM   11  C   UNL     1      40.529 -15.441   3.525  1.00  0.00     0.070 A 
HETATM   12  C   UNL     1      42.995 -14.885   4.844  1.00  0.00     0.055 A 
HETATM   13  C   UNL     1      42.845 -15.938   3.958  1.00  0.00     0.106 A 
HETATM   14  C   UNL     1      41.660 -16.207   3.329  1.00  0.00     0.107 A 
HETATM   15  O   UNL     1      43.834 -16.805   3.601  1.00  0.00    -0.323 OA
HETATM   16  O   UNL     1      41.745 -17.279   2.496  1.00  0.00    -0.323 OA
HETATM   17  C   UNL     1      43.126 -17.655   2.672  1.00  0.00     0.352 A 
BRANCH   6  18
HETATM   18  C   UNL     1      39.617 -11.321   6.119  1.00  0.00     0.312 C 
HETATM   19  O   UNL     1      38.698 -11.373   6.927  1.00  0.00    -0.258 OA
BRANCH  18  20
HETATM   20  O   UNL     1      40.148 -10.198   5.569  1.00  0.00    -0.317 OA
BRANCH  20  21
HETATM   21  C   UNL     1      39.226  -9.274   4.970  1.00  0.00     0.175 C 
HETATM   22  C   UNL     1      38.607  -9.922   3.747  1.00  0.00     0.034 C 
ENDBRANCH  20  21
ENDBRANCH  18  20
ENDBRANCH   6  18
ENDBRANCH   1   5
BRANCH   2  23
HETATM   23  C   UNL     1      44.022 -10.486   7.521  1.00  0.00     0.337 C 
BRANCH  23  24
HETATM   24  N   UNL     1      42.941 -10.230   8.567  1.00  0.00    -0.060 N 
HETATM   25  H   UNL     1      42.409 -11.117   8.611  1.00  0.00     0.280 HD
HETATM   26  C   UNL     1      43.511 -10.035   9.972  1.00  0.00     0.255 C 
HETATM   27  C   UNL     1      42.369  -9.932  11.003  1.00  0.00     0.150 C 
HETATM   28  N   UNL     1      41.356  -8.937  10.617  1.00  0.00    -0.377 N 
HETATM   29  C   UNL     1      40.839  -9.025   9.237  1.00  0.00     0.150 C 
HETATM   30  C   UNL     1      41.985  -9.111   8.206  1.00  0.00     0.255 C 
BRANCH  28  31
HETATM   31  C   UNL     1      41.347  -7.674  11.210  1.00  0.00     0.037 A 
HETATM   32  C   UNL     1      40.555  -7.414  12.354  1.00  0.00    -0.035 A 
HETATM   33  C   UNL     1      39.741  -8.485  13.036  1.00  0.00     0.050 C 
HETATM   34  C   UNL     1      40.518  -6.121  12.914  1.00  0.00     0.011 A 
HETATM   35  C   UNL     1      41.286  -5.090  12.381  1.00  0.00     0.024 A 
HETATM   36  C   UNL     1      42.096  -5.347  11.286  1.00  0.00     0.036 A 
HETATM   37 CL   UNL     1      43.060  -4.090  10.617  1.00  0.00    -0.084 Cl
HETATM   38  C   UNL     1      42.131  -6.620  10.709  1.00  0.00     0.053 A 
ENDBRANCH  28  31
ENDBRANCH  23  24
ENDBRANCH   2  23
TORSDOF 7
ENDMDL
