MODEL 1
REMARK VINA RESULT:      -9.1      0.000      0.000
REMARK  3 active torsions:
REMARK  status: ('A' for Active; 'I' for Inactive)
REMARK    1  A    between atoms: N_4  and  C_5 
REMARK    2  A    between atoms: C_15  and  C_16 
REMARK       I    between atoms: C_16  and  N_17 
REMARK    3  A    between atoms: N_17  and  C_18 
ROOT
HETATM    1  C   UNL     1      41.771 -10.095   3.968  1.00  0.00     0.073 C 
HETATM    2  C   UNL     1      42.281 -10.673   5.235  1.00  0.00     0.069 A 
HETATM    3  N   UNL     1      42.809  -9.881   6.179  1.00  0.00    -0.170 NA
HETATM    4  N   UNL     1      43.132 -10.713   7.217  1.00  0.00    -0.216 N 
HETATM    5  C   UNL     1      42.930 -12.034   6.846  1.00  0.00     0.145 A 
HETATM    6  C   UNL     1      42.343 -12.029   5.603  1.00  0.00     0.087 A 
HETATM    7  N   UNL     1      43.271 -13.181   7.484  1.00  0.00    -0.349 N 
HETATM    8  C   UNL     1      43.025 -14.383   6.841  1.00  0.00     0.111 A 
HETATM    9  C   UNL     1      42.416 -14.509   5.640  1.00  0.00     0.098 A 
HETATM   10  C   UNL     1      41.984 -13.257   4.925  1.00  0.00     0.205 A 
HETATM   11  O   UNL     1      41.393 -13.289   3.849  1.00  0.00    -0.286 OA
HETATM   12  H   UNL     1      43.917 -13.216   8.272  1.00  0.00     0.167 HD
ENDROOT
BRANCH   9  13
HETATM   13  C   UNL     1      42.242 -15.885   5.076  1.00  0.00     0.261 C 
HETATM   14  N   UNL     1      43.413 -16.495   4.679  1.00  0.00    -0.323 N 
HETATM   15  H   UNL     1      44.271 -15.949   4.772  1.00  0.00     0.169 HD
HETATM   16  O   UNL     1      41.118 -16.373   4.999  1.00  0.00    -0.267 OA
BRANCH  14  17
HETATM   17  C   UNL     1      43.582 -17.797   4.165  1.00  0.00     0.035 A 
HETATM   18  C   UNL     1      43.340 -18.153   2.835  1.00  0.00     0.032 A 
HETATM   19  C   UNL     1      43.517 -19.475   2.414  1.00  0.00     0.044 A 
HETATM   20  C   UNL     1      43.941 -20.437   3.321  1.00  0.00     0.116 A 
HETATM   21  F   UNL     1      44.109 -21.703   2.915  1.00  0.00    -0.206 F 
HETATM   22  C   UNL     1      44.189 -20.104   4.645  1.00  0.00     0.044 A 
HETATM   23  C   UNL     1      44.007 -18.785   5.067  1.00  0.00     0.032 A 
ENDBRANCH  14  17
ENDBRANCH   9  13
BRANCH   4  24
HETATM   24  C   UNL     1      43.586 -10.167   8.451  1.00  0.00     0.060 A 
HETATM   25  C   UNL     1      44.903 -10.341   8.896  1.00  0.00     0.031 A 
HETATM   26  C   UNL     1      45.311  -9.787  10.112  1.00  0.00     0.002 A 
HETATM   27  C   UNL     1      44.411  -9.067  10.894  1.00  0.00     0.000 A 
HETATM   28  C   UNL     1      43.093  -8.910  10.472  1.00  0.00     0.002 A 
HETATM   29  C   UNL     1      42.677  -9.465   9.260  1.00  0.00     0.031 A 
ENDBRANCH   4  24
TORSDOF 3
ENDMDL
MODEL 2
REMARK VINA RESULT:      -8.8      3.946      9.038
REMARK  3 active torsions:
REMARK  status: ('A' for Active; 'I' for Inactive)
REMARK    1  A    between atoms: N_4  and  C_5 
REMARK    2  A    between atoms: C_15  and  C_16 
REMARK       I    between atoms: C_16  and  N_17 
REMARK    3  A    between atoms: N_17  and  C_18 
ROOT
HETATM    1  C   UNL     1      39.717 -12.597   3.977  1.00  0.00     0.073 C 
HETATM    2  C   UNL     1      40.932 -13.360   4.356  1.00  0.00     0.069 A 
HETATM    3  N   UNL     1      41.109 -14.615   3.922  1.00  0.00    -0.170 NA
HETATM    4  N   UNL     1      42.328 -15.002   4.408  1.00  0.00    -0.216 N 
HETATM    5  C   UNL     1      42.830 -14.030   5.259  1.00  0.00     0.145 A 
HETATM    6  C   UNL     1      41.978 -12.953   5.204  1.00  0.00     0.087 A 
HETATM    7  N   UNL     1      43.908 -14.062   6.082  1.00  0.00    -0.349 N 
HETATM    8  C   UNL     1      44.136 -12.968   6.900  1.00  0.00     0.111 A 
HETATM    9  C   UNL     1      43.397 -11.836   6.906  1.00  0.00     0.098 A 
HETATM   10  C   UNL     1      42.220 -11.750   5.973  1.00  0.00     0.205 A 
HETATM   11  O   UNL     1      41.521 -10.743   5.893  1.00  0.00    -0.286 OA
HETATM   12  H   UNL     1      44.404 -14.919   6.326  1.00  0.00     0.167 HD
ENDROOT
BRANCH   9  13
HETATM   13  C   UNL     1      43.771 -10.752   7.869  1.00  0.00     0.261 C 
HETATM   14  N   UNL     1      42.794 -10.438   8.789  1.00  0.00    -0.323 N 
HETATM   15  H   UNL     1      41.908 -10.941   8.709  1.00  0.00     0.169 HD
HETATM   16  O   UNL     1      44.876 -10.223   7.789  1.00  0.00    -0.267 OA
BRANCH  14  17
HETATM   17  C   UNL     1      42.864  -9.510   9.847  1.00  0.00     0.035 A 
HETATM   18  C   UNL     1      42.713  -8.129   9.691  1.00  0.00     0.032 A 
HETATM   19  C   UNL     1      42.816  -7.277  10.795  1.00  0.00     0.044 A 
HETATM   20  C   UNL     1      43.065  -7.807  12.054  1.00  0.00     0.116 A 
HETATM   21  F   UNL     1      43.163  -6.988  13.110  1.00  0.00    -0.206 F 
HETATM   22  C   UNL     1      43.215  -9.175  12.232  1.00  0.00     0.044 A 
HETATM   23  C   UNL     1      43.118 -10.025  11.128  1.00  0.00     0.032 A 
ENDBRANCH  14  17
ENDBRANCH   9  13
BRANCH   4  24
HETATM   24  C   UNL     1      42.892 -16.246   4.005  1.00  0.00     0.060 A 
HETATM   25  C   UNL     1      43.676 -17.018   4.872  1.00  0.00     0.031 A 
HETATM   26  C   UNL     1      44.209 -18.235   4.440  1.00  0.00     0.002 A 
HETATM   27  C   UNL     1      43.973 -18.685   3.142  1.00  0.00     0.000 A 
HETATM   28  C   UNL     1      43.215 -17.913   2.265  1.00  0.00     0.002 A 
HETATM   29  C   UNL     1      42.684 -16.693   2.689  1.00  0.00     0.031 A 
ENDBRANCH   4  24
TORSDOF 3
ENDMDL
MODEL 3
REMARK VINA RESULT:      -8.7      3.627      9.020
REMARK  3 active torsions:
REMARK  status: ('A' for Active; 'I' for Inactive)
REMARK    1  A    between atoms: N_4  and  C_5 
REMARK    2  A    between atoms: C_15  and  C_16 
REMARK       I    between atoms: C_16  and  N_17 
REMARK    3  A    between atoms: N_17  and  C_18 
ROOT
HETATM    1  C   UNL     1      41.603 -14.123   1.778  1.00  0.00     0.073 C 
HETATM    2  C   UNL     1      42.261 -15.078   2.703  1.00  0.00     0.069 A 
HETATM    3  N   UNL     1      42.292 -16.387   2.418  1.00  0.00    -0.170 NA
HETATM    4  N   UNL     1      43.002 -16.967   3.435  1.00  0.00    -0.216 N 
HETATM    5  C   UNL     1      43.281 -16.026   4.415  1.00  0.00     0.145 A 
HETATM    6  C   UNL     1      42.858 -14.804   3.947  1.00  0.00     0.087 A 
HETATM    7  N   UNL     1      43.804 -16.187   5.656  1.00  0.00    -0.349 N 
HETATM    8  C   UNL     1      43.897 -15.073   6.474  1.00  0.00     0.111 A 
HETATM    9  C   UNL     1      43.557 -13.815   6.112  1.00  0.00     0.098 A 
HETATM   10  C   UNL     1      43.014 -13.594   4.726  1.00  0.00     0.205 A 
HETATM   11  O   UNL     1      42.716 -12.477   4.311  1.00  0.00    -0.286 OA
HETATM   12  H   UNL     1      43.893 -17.092   6.116  1.00  0.00     0.167 HD
ENDROOT
BRANCH   9  13
HETATM   13  C   UNL     1      43.704 -12.724   7.127  1.00  0.00     0.261 C 
HETATM   14  N   UNL     1      43.962 -11.477   6.597  1.00  0.00    -0.323 N 
HETATM   15  H   UNL     1      44.061 -11.420   5.582  1.00  0.00     0.169 HD
HETATM   16  O   UNL     1      43.596 -12.986   8.322  1.00  0.00    -0.267 OA
BRANCH  14  17
HETATM   17  C   UNL     1      44.097 -10.254   7.284  1.00  0.00     0.035 A 
HETATM   18  C   UNL     1      45.282  -9.816   7.883  1.00  0.00     0.032 A 
HETATM   19  C   UNL     1      45.322  -8.593   8.561  1.00  0.00     0.044 A 
HETATM   20  C   UNL     1      44.179  -7.808   8.634  1.00  0.00     0.116 A 
HETATM   21  F   UNL     1      44.221  -6.638   9.285  1.00  0.00    -0.206 F 
HETATM   22  C   UNL     1      42.993  -8.222   8.045  1.00  0.00     0.044 A 
HETATM   23  C   UNL     1      42.952  -9.446   7.373  1.00  0.00     0.032 A 
ENDBRANCH  14  17
ENDBRANCH   9  13
BRANCH   4  24
HETATM   24  C   UNL     1      43.349 -18.346   3.365  1.00  0.00     0.060 A 
HETATM   25  C   UNL     1      43.861 -19.037   4.471  1.00  0.00     0.031 A 
HETATM   26  C   UNL     1      44.187 -20.391   4.362  1.00  0.00     0.002 A 
HETATM   27  C   UNL     1      44.014 -21.061   3.152  1.00  0.00     0.000 A 
HETATM   28  C   UNL     1      43.529 -20.376   2.041  1.00  0.00     0.002 A 
HETATM   29  C   UNL     1      43.206 -19.021   2.141  1.00  0.00     0.031 A 
ENDBRANCH   4  24
TORSDOF 3
ENDMDL
MODEL 4
REMARK VINA RESULT:      -8.7      4.145      5.382
REMARK  3 active torsions:
REMARK  status: ('A' for Active; 'I' for Inactive)
REMARK    1  A    between atoms: N_4  and  C_5 
REMARK    2  A    between atoms: C_15  and  C_16 
REMARK       I    between atoms: C_16  and  N_17 
REMARK    3  A    between atoms: N_17  and  C_18 
ROOT
HETATM    1  C   UNL     1      42.831 -15.666   7.548  1.00  0.00     0.073 C 
HETATM    2  C   UNL     1      43.220 -14.350   6.984  1.00  0.00     0.069 A 
HETATM    3  N   UNL     1      43.599 -13.350   7.791  1.00  0.00    -0.170 NA
HETATM    4  N   UNL     1      43.928 -12.313   6.960  1.00  0.00    -0.216 N 
HETATM    5  C   UNL     1      43.613 -12.637   5.649  1.00  0.00     0.145 A 
HETATM    6  C   UNL     1      43.203 -13.950   5.635  1.00  0.00     0.087 A 
HETATM    7  N   UNL     1      43.611 -11.864   4.536  1.00  0.00    -0.349 N 
HETATM    8  C   UNL     1      43.163 -12.426   3.352  1.00  0.00     0.111 A 
HETATM    9  C   UNL     1      42.777 -13.714   3.203  1.00  0.00     0.098 A 
HETATM   10  C   UNL     1      42.810 -14.612   4.409  1.00  0.00     0.205 A 
HETATM   11  O   UNL     1      42.510 -15.801   4.348  1.00  0.00    -0.286 OA
HETATM   12  H   UNL     1      43.667 -10.846   4.558  1.00  0.00     0.167 HD
ENDROOT
BRANCH   9  13
HETATM   13  C   UNL     1      42.303 -14.158   1.853  1.00  0.00     0.261 C 
HETATM   14  N   UNL     1      41.242 -13.434   1.350  1.00  0.00    -0.323 N 
HETATM   15  H   UNL     1      40.864 -12.697   1.948  1.00  0.00     0.169 HD
HETATM   16  O   UNL     1      42.855 -15.101   1.295  1.00  0.00    -0.267 OA
BRANCH  14  17
HETATM   17  C   UNL     1      40.615 -13.573   0.096  1.00  0.00     0.035 A 
HETATM   18  C   UNL     1      39.833 -14.672  -0.272  1.00  0.00     0.032 A 
HETATM   19  C   UNL     1      39.260 -14.737  -1.546  1.00  0.00     0.044 A 
HETATM   20  C   UNL     1      39.465 -13.701  -2.448  1.00  0.00     0.116 A 
HETATM   21  F   UNL     1      38.915 -13.766  -3.668  1.00  0.00    -0.206 F 
HETATM   22  C   UNL     1      40.234 -12.599  -2.102  1.00  0.00     0.044 A 
HETATM   23  C   UNL     1      40.811 -12.538  -0.831  1.00  0.00     0.032 A 
ENDBRANCH  14  17
ENDBRANCH   9  13
BRANCH   4  24
HETATM   24  C   UNL     1      44.516 -11.132   7.495  1.00  0.00     0.060 A 
HETATM   25  C   UNL     1      45.874 -10.836   7.316  1.00  0.00     0.031 A 
HETATM   26  C   UNL     1      46.413  -9.665   7.855  1.00  0.00     0.002 A 
HETATM   27  C   UNL     1      45.608  -8.789   8.581  1.00  0.00     0.000 A 
HETATM   28  C   UNL     1      44.263  -9.088   8.786  1.00  0.00     0.002 A 
HETATM   29  C   UNL     1      43.719 -10.259   8.254  1.00  0.00     0.031 A 
ENDBRANCH   4  24
TORSDOF 3
ENDMDL
MODEL 5
REMARK VINA RESULT:      -8.6      4.667      8.846
REMARK  3 active torsions:
REMARK  status: ('A' for Active; 'I' for Inactive)
REMARK    1  A    between atoms: N_4  and  C_5 
REMARK    2  A    between atoms: C_15  and  C_16 
REMARK       I    between atoms: C_16  and  N_17 
REMARK    3  A    between atoms: N_17  and  C_18 
ROOT
HETATM    1  C   UNL     1      43.576 -14.341   6.455  1.00  0.00     0.073 C 
HETATM    2  C   UNL     1      43.395 -15.291   5.329  1.00  0.00     0.069 A 
HETATM    3  N   UNL     1      43.843 -16.550   5.423  1.00  0.00    -0.170 NA
HETATM    4  N   UNL     1      43.478 -17.158   4.253  1.00  0.00    -0.216 N 
HETATM    5  C   UNL     1      42.930 -16.225   3.385  1.00  0.00     0.145 A 
HETATM    6  C   UNL     1      42.824 -15.037   4.069  1.00  0.00     0.087 A 
HETATM    7  N   UNL     1      42.592 -16.343   2.077  1.00  0.00    -0.349 N 
HETATM    8  C   UNL     1      42.139 -15.213   1.416  1.00  0.00     0.111 A 
HETATM    9  C   UNL     1      41.951 -14.003   1.990  1.00  0.00     0.098 A 
HETATM   10  C   UNL     1      42.274 -13.849   3.451  1.00  0.00     0.205 A 
HETATM   11  O   UNL     1      42.096 -12.793   4.052  1.00  0.00    -0.286 OA
HETATM   12  H   UNL     1      42.886 -17.122   1.488  1.00  0.00     0.167 HD
ENDROOT
BRANCH   9  13
HETATM   13  C   UNL     1      41.470 -12.879   1.125  1.00  0.00     0.261 C 
HETATM   14  N   UNL     1      40.896 -13.274  -0.065  1.00  0.00    -0.323 N 
HETATM   15  H   UNL     1      40.883 -14.276  -0.258  1.00  0.00     0.169 HD
HETATM   16  O   UNL     1      41.609 -11.719   1.503  1.00  0.00    -0.267 OA
BRANCH  14  17
HETATM   17  C   UNL     1      40.306 -12.462  -1.055  1.00  0.00     0.035 A 
HETATM   18  C   UNL     1      38.935 -12.202  -1.142  1.00  0.00     0.032 A 
HETATM   19  C   UNL     1      38.431 -11.398  -2.169  1.00  0.00     0.044 A 
HETATM   20  C   UNL     1      39.300 -10.851  -3.104  1.00  0.00     0.116 A 
HETATM   21  F   UNL     1      38.815 -10.081  -4.088  1.00  0.00    -0.206 F 
HETATM   22  C   UNL     1      40.664 -11.094  -3.035  1.00  0.00     0.044 A 
HETATM   23  C   UNL     1      41.166 -11.902  -2.012  1.00  0.00     0.032 A 
ENDBRANCH  14  17
ENDBRANCH   9  13
BRANCH   4  24
HETATM   24  C   UNL     1      43.677 -18.558   4.086  1.00  0.00     0.060 A 
HETATM   25  C   UNL     1      43.574 -19.175   2.833  1.00  0.00     0.031 A 
HETATM   26  C   UNL     1      43.779 -20.552   2.710  1.00  0.00     0.002 A 
HETATM   27  C   UNL     1      44.078 -21.321   3.832  1.00  0.00     0.000 A 
HETATM   28  C   UNL     1      44.158 -20.720   5.087  1.00  0.00     0.002 A 
HETATM   29  C   UNL     1      43.949 -19.346   5.217  1.00  0.00     0.031 A 
ENDBRANCH   4  24
TORSDOF 3
ENDMDL
MODEL 6
REMARK VINA RESULT:      -8.6      5.488      7.224
REMARK  3 active torsions:
REMARK  status: ('A' for Active; 'I' for Inactive)
REMARK    1  A    between atoms: N_4  and  C_5 
REMARK    2  A    between atoms: C_15  and  C_16 
REMARK       I    between atoms: C_16  and  N_17 
REMARK    3  A    between atoms: N_17  and  C_18 
ROOT
HETATM    1  C   UNL     1      38.684 -14.155  -2.885  1.00  0.00     0.073 C 
HETATM    2  C   UNL     1      39.441 -13.246  -1.989  1.00  0.00     0.069 A 
HETATM    3  N   UNL     1      39.710 -11.989  -2.367  1.00  0.00    -0.170 NA
HETATM    4  N   UNL     1      40.367 -11.421  -1.309  1.00  0.00    -0.216 N 
HETATM    5  C   UNL     1      40.624 -12.379  -0.341  1.00  0.00     0.145 A 
HETATM    6  C   UNL     1      40.001 -13.540  -0.733  1.00  0.00     0.087 A 
HETATM    7  N   UNL     1      41.386 -12.306   0.778  1.00  0.00    -0.349 N 
HETATM    8  C   UNL     1      41.544 -13.455   1.536  1.00  0.00     0.111 A 
HETATM    9  C   UNL     1      40.948 -14.641   1.278  1.00  0.00     0.098 A 
HETATM   10  C   UNL     1      40.060 -14.745   0.068  1.00  0.00     0.205 A 
HETATM   11  O   UNL     1      39.455 -15.776  -0.213  1.00  0.00    -0.286 OA
HETATM   12  H   UNL     1      42.048 -11.553   0.960  1.00  0.00     0.167 HD
ENDROOT
BRANCH   9  13
HETATM   13  C   UNL     1      41.240 -15.792   2.192  1.00  0.00     0.261 C 
HETATM   14  N   UNL     1      42.469 -16.385   1.995  1.00  0.00    -0.323 N 
HETATM   15  H   UNL     1      43.042 -16.013   1.235  1.00  0.00     0.169 HD
HETATM   16  O   UNL     1      40.406 -16.133   3.026  1.00  0.00    -0.267 OA
BRANCH  14  17
HETATM   17  C   UNL     1      43.048 -17.443   2.723  1.00  0.00     0.035 A 
HETATM   18  C   UNL     1      43.176 -18.749   2.243  1.00  0.00     0.032 A 
HETATM   19  C   UNL     1      43.749 -19.744   3.041  1.00  0.00     0.044 A 
HETATM   20  C   UNL     1      44.199 -19.430   4.317  1.00  0.00     0.116 A 
HETATM   21  F   UNL     1      44.747 -20.385   5.080  1.00  0.00    -0.206 F 
HETATM   22  C   UNL     1      44.085 -18.138   4.812  1.00  0.00     0.044 A 
HETATM   23  C   UNL     1      43.507 -17.147   4.017  1.00  0.00     0.032 A 
ENDBRANCH  14  17
ENDBRANCH   9  13
BRANCH   4  24
HETATM   24  C   UNL     1      40.671 -10.030  -1.325  1.00  0.00     0.060 A 
HETATM   25  C   UNL     1      41.991  -9.562  -1.356  1.00  0.00     0.031 A 
HETATM   26  C   UNL     1      42.249  -8.189  -1.373  1.00  0.00     0.002 A 
HETATM   27  C   UNL     1      41.197  -7.276  -1.351  1.00  0.00     0.000 A 
HETATM   28  C   UNL     1      39.881  -7.731  -1.295  1.00  0.00     0.002 A 
HETATM   29  C   UNL     1      39.618  -9.102  -1.272  1.00  0.00     0.031 A 
ENDBRANCH   4  24
TORSDOF 3
ENDMDL
MODEL 7
REMARK VINA RESULT:      -8.0      2.952      4.313
REMARK  3 active torsions:
REMARK  status: ('A' for Active; 'I' for Inactive)
REMARK    1  A    between atoms: N_4  and  C_5 
REMARK    2  A    between atoms: C_15  and  C_16 
REMARK       I    between atoms: C_16  and  N_17 
REMARK    3  A    between atoms: N_17  and  C_18 
ROOT
HETATM    1  C   UNL     1      40.054  -7.243   7.263  1.00  0.00     0.073 C 
HETATM    2  C   UNL     1      40.896  -7.999   8.223  1.00  0.00     0.069 A 
HETATM    3  N   UNL     1      41.003  -7.596   9.497  1.00  0.00    -0.170 NA
HETATM    4  N   UNL     1      41.801  -8.524  10.109  1.00  0.00    -0.216 N 
HETATM    5  C   UNL     1      42.298  -9.416   9.170  1.00  0.00     0.145 A 
HETATM    6  C   UNL     1      41.696  -9.128   7.968  1.00  0.00     0.087 A 
HETATM    7  N   UNL     1      43.245 -10.378   9.296  1.00  0.00    -0.349 N 
HETATM    8  C   UNL     1      43.619 -11.078   8.160  1.00  0.00     0.111 A 
HETATM    9  C   UNL     1      43.070 -10.916   6.935  1.00  0.00     0.098 A 
HETATM   10  C   UNL     1      41.985  -9.887   6.770  1.00  0.00     0.205 A 
HETATM   11  O   UNL     1      41.413  -9.706   5.698  1.00  0.00    -0.286 OA
HETATM   12  H   UNL     1      43.874 -10.446  10.095  1.00  0.00     0.167 HD
ENDROOT
BRANCH   9  13
HETATM   13  C   UNL     1      43.604 -11.744   5.807  1.00  0.00     0.261 C 
HETATM   14  N   UNL     1      42.745 -12.723   5.356  1.00  0.00    -0.323 N 
HETATM   15  H   UNL     1      41.853 -12.814   5.846  1.00  0.00     0.169 HD
HETATM   16  O   UNL     1      44.729 -11.520   5.367  1.00  0.00    -0.267 OA
BRANCH  14  17
HETATM   17  C   UNL     1      42.936 -13.618   4.284  1.00  0.00     0.035 A 
HETATM   18  C   UNL     1      43.015 -13.230   2.943  1.00  0.00     0.032 A 
HETATM   19  C   UNL     1      43.188 -14.188   1.939  1.00  0.00     0.044 A 
HETATM   20  C   UNL     1      43.289 -15.531   2.277  1.00  0.00     0.116 A 
HETATM   21  F   UNL     1      43.454 -16.447   1.313  1.00  0.00    -0.206 F 
HETATM   22  C   UNL     1      43.216 -15.937   3.602  1.00  0.00     0.044 A 
HETATM   23  C   UNL     1      43.036 -14.981   4.604  1.00  0.00     0.032 A 
ENDBRANCH  14  17
ENDBRANCH   9  13
BRANCH   4  24
HETATM   24  C   UNL     1      41.999  -8.473  11.518  1.00  0.00     0.060 A 
HETATM   25  C   UNL     1      43.048  -7.743  12.091  1.00  0.00     0.031 A 
HETATM   26  C   UNL     1      43.207  -7.716  13.479  1.00  0.00     0.002 A 
HETATM   27  C   UNL     1      42.331  -8.421  14.302  1.00  0.00     0.000 A 
HETATM   28  C   UNL     1      41.299  -9.169  13.739  1.00  0.00     0.002 A 
HETATM   29  C   UNL     1      41.138  -9.205  12.353  1.00  0.00     0.031 A 
ENDBRANCH   4  24
TORSDOF 3
ENDMDL
MODEL 8
REMARK VINA RESULT:      -7.9      5.816      9.393
REMARK  3 active torsions:
REMARK  status: ('A' for Active; 'I' for Inactive)
REMARK    1  A    between atoms: N_4  and  C_5 
REMARK    2  A    between atoms: C_15  and  C_16 
REMARK       I    between atoms: C_16  and  N_17 
REMARK    3  A    between atoms: N_17  and  C_18 
ROOT
HETATM    1  C   UNL     1      39.998 -13.182   5.529  1.00  0.00     0.073 C 
HETATM    2  C   UNL     1      40.616 -14.049   4.496  1.00  0.00     0.069 A 
HETATM    3  N   UNL     1      41.479 -15.012   4.846  1.00  0.00    -0.170 NA
HETATM    4  N   UNL     1      41.817 -15.643   3.679  1.00  0.00    -0.216 N 
HETATM    5  C   UNL     1      41.267 -14.969   2.599  1.00  0.00     0.145 A 
HETATM    6  C   UNL     1      40.458 -13.976   3.100  1.00  0.00     0.087 A 
HETATM    7  N   UNL     1      41.475 -15.134   1.270  1.00  0.00    -0.349 N 
HETATM    8  C   UNL     1      40.854 -14.255   0.398  1.00  0.00     0.111 A 
HETATM    9  C   UNL     1      40.005 -13.269   0.766  1.00  0.00     0.098 A 
HETATM   10  C   UNL     1      39.717 -13.087   2.231  1.00  0.00     0.205 A 
HETATM   11  O   UNL     1      38.929 -12.239   2.643  1.00  0.00    -0.286 OA
HETATM   12  H   UNL     1      42.243 -15.683   0.885  1.00  0.00     0.167 HD
ENDROOT
BRANCH   9  13
HETATM   13  C   UNL     1      39.432 -12.394  -0.306  1.00  0.00     0.261 C 
HETATM   14  N   UNL     1      38.078 -12.158  -0.192  1.00  0.00    -0.323 N 
HETATM   15  H   UNL     1      37.593 -12.621   0.578  1.00  0.00     0.169 HD
HETATM   16  O   UNL     1      40.163 -11.956  -1.189  1.00  0.00    -0.267 OA
BRANCH  14  17
HETATM   17  C   UNL     1      37.269 -11.340  -1.006  1.00  0.00     0.035 A 
HETATM   18  C   UNL     1      37.026 -11.577  -2.362  1.00  0.00     0.032 A 
HETATM   19  C   UNL     1      36.223 -10.702  -3.101  1.00  0.00     0.044 A 
HETATM   20  C   UNL     1      35.660  -9.595  -2.481  1.00  0.00     0.116 A 
HETATM   21  F   UNL     1      34.891  -8.758  -3.191  1.00  0.00    -0.206 F 
HETATM   22  C   UNL     1      35.885  -9.342  -1.135  1.00  0.00     0.044 A 
HETATM   23  C   UNL     1      36.692 -10.213  -0.400  1.00  0.00     0.032 A 
ENDBRANCH  14  17
ENDBRANCH   9  13
BRANCH   4  24
HETATM   24  C   UNL     1      42.615 -16.822   3.713  1.00  0.00     0.060 A 
HETATM   25  C   UNL     1      42.731 -17.668   2.603  1.00  0.00     0.031 A 
HETATM   26  C   UNL     1      43.526 -18.815   2.675  1.00  0.00     0.002 A 
HETATM   27  C   UNL     1      44.202 -19.129   3.853  1.00  0.00     0.000 A 
HETATM   28  C   UNL     1      44.073 -18.306   4.969  1.00  0.00     0.002 A 
HETATM   29  C   UNL     1      43.276 -17.162   4.905  1.00  0.00     0.031 A 
ENDBRANCH   4  24
TORSDOF 3
ENDMDL
MODEL 9
REMARK VINA RESULT:      -7.9      4.690      9.180
REMARK  3 active torsions:
REMARK  status: ('A' for Active; 'I' for Inactive)
REMARK    1  A    between atoms: N_4  and  C_5 
REMARK    2  A    between atoms: C_15  and  C_16 
REMARK       I    between atoms: C_16  and  N_17 
REMARK    3  A    between atoms: N_17  and  C_18 
ROOT
HETATM    1  C   UNL     1      39.857 -13.327   0.906  1.00  0.00     0.073 C 
HETATM    2  C   UNL     1      40.468 -13.962   2.099  1.00  0.00     0.069 A 
HETATM    3  N   UNL     1      41.136 -15.118   1.986  1.00  0.00    -0.170 NA
HETATM    4  N   UNL     1      41.603 -15.397   3.243  1.00  0.00    -0.216 N 
HETATM    5  C   UNL     1      41.095 -14.479   4.151  1.00  0.00     0.145 A 
HETATM    6  C   UNL     1      40.407 -13.528   3.436  1.00  0.00     0.087 A 
HETATM    7  N   UNL     1      41.153 -14.469   5.505  1.00  0.00    -0.349 N 
HETATM    8  C   UNL     1      40.477 -13.465   6.179  1.00  0.00     0.111 A 
HETATM    9  C   UNL     1      39.804 -12.452   5.588  1.00  0.00     0.098 A 
HETATM   10  C   UNL     1      39.758 -12.408   4.085  1.00  0.00     0.205 A 
HETATM   11  O   UNL     1      39.199 -11.502   3.474  1.00  0.00    -0.286 OA
HETATM   12  H   UNL     1      41.434 -15.276   6.062  1.00  0.00     0.167 HD
ENDROOT
BRANCH   9  13
HETATM   13  C   UNL     1      39.113 -11.456   6.467  1.00  0.00     0.261 C 
HETATM   14  N   UNL     1      39.958 -10.617   7.161  1.00  0.00    -0.323 N 
HETATM   15  H   UNL     1      40.961 -10.772   7.040  1.00  0.00     0.169 HD
HETATM   16  O   UNL     1      37.886 -11.443   6.523  1.00  0.00    -0.267 OA
BRANCH  14  17
HETATM   17  C   UNL     1      39.613  -9.552   8.017  1.00  0.00     0.035 A 
HETATM   18  C   UNL     1      39.345  -9.697   9.382  1.00  0.00     0.032 A 
HETATM   19  C   UNL     1      38.992  -8.587  10.155  1.00  0.00     0.044 A 
HETATM   20  C   UNL     1      38.913  -7.333   9.565  1.00  0.00     0.116 A 
HETATM   21  F   UNL     1      38.573  -6.271  10.308  1.00  0.00    -0.206 F 
HETATM   22  C   UNL     1      39.177  -7.166   8.213  1.00  0.00     0.044 A 
HETATM   23  C   UNL     1      39.524  -8.276   7.439  1.00  0.00     0.032 A 
ENDBRANCH  14  17
ENDBRANCH   9  13
BRANCH   4  24
HETATM   24  C   UNL     1      42.486 -16.494   3.447  1.00  0.00     0.060 A 
HETATM   25  C   UNL     1      42.586 -17.544   2.525  1.00  0.00     0.031 A 
HETATM   26  C   UNL     1      43.468 -18.602   2.760  1.00  0.00     0.002 A 
HETATM   27  C   UNL     1      44.247 -18.625   3.915  1.00  0.00     0.000 A 
HETATM   28  C   UNL     1      44.137 -17.598   4.849  1.00  0.00     0.002 A 
HETATM   29  C   UNL     1      43.253 -16.541   4.623  1.00  0.00     0.031 A 
ENDBRANCH   4  24
TORSDOF 3
ENDMDL
MODEL 10
REMARK VINA RESULT:      -7.8      3.115      4.412
REMARK  3 active torsions:
REMARK  status: ('A' for Active; 'I' for Inactive)
REMARK    1  A    between atoms: N_4  and  C_5 
REMARK    2  A    between atoms: C_15  and  C_16 
REMARK       I    between atoms: C_16  and  N_17 
REMARK    3  A    between atoms: N_17  and  C_18 
ROOT
HETATM    1  C   UNL     1      47.194 -10.407   7.675  1.00  0.00     0.073 C 
HETATM    2  C   UNL     1      45.798 -10.113   8.083  1.00  0.00     0.069 A 
HETATM    3  N   UNL     1      45.538  -9.602   9.294  1.00  0.00    -0.170 NA
HETATM    4  N   UNL     1      44.183  -9.412   9.328  1.00  0.00    -0.216 N 
HETATM    5  C   UNL     1      43.601  -9.942   8.186  1.00  0.00     0.145 A 
HETATM    6  C   UNL     1      44.618 -10.352   7.357  1.00  0.00     0.087 A 
HETATM    7  N   UNL     1      42.293 -10.127   7.879  1.00  0.00    -0.349 N 
HETATM    8  C   UNL     1      41.987 -10.767   6.690  1.00  0.00     0.111 A 
HETATM    9  C   UNL     1      42.894 -11.177   5.774  1.00  0.00     0.098 A 
HETATM   10  C   UNL     1      44.353 -10.946   6.063  1.00  0.00     0.205 A 
HETATM   11  O   UNL     1      45.235 -11.256   5.266  1.00  0.00    -0.286 OA
HETATM   12  H   UNL     1      41.540 -10.065   8.564  1.00  0.00     0.167 HD
ENDROOT
BRANCH   9  13
HETATM   13  C   UNL     1      42.394 -11.870   4.545  1.00  0.00     0.261 C 
HETATM   14  N   UNL     1      41.970 -13.167   4.748  1.00  0.00    -0.323 N 
HETATM   15  H   UNL     1      42.067 -13.538   5.695  1.00  0.00     0.169 HD
HETATM   16  O   UNL     1      42.391 -11.276   3.470  1.00  0.00    -0.267 OA
BRANCH  14  17
HETATM   17  C   UNL     1      41.403 -14.051   3.810  1.00  0.00     0.035 A 
HETATM   18  C   UNL     1      42.000 -15.246   3.396  1.00  0.00     0.032 A 
HETATM   19  C   UNL     1      41.374 -16.058   2.445  1.00  0.00     0.044 A 
HETATM   20  C   UNL     1      40.149 -15.676   1.913  1.00  0.00     0.116 A 
HETATM   21  F   UNL     1      39.552 -16.455   1.001  1.00  0.00    -0.206 F 
HETATM   22  C   UNL     1      39.537 -14.496   2.311  1.00  0.00     0.044 A 
HETATM   23  C   UNL     1      40.166 -13.683   3.257  1.00  0.00     0.032 A 
ENDBRANCH  14  17
ENDBRANCH   9  13
BRANCH   4  24
HETATM   24  C   UNL     1      43.587  -8.739  10.432  1.00  0.00     0.060 A 
HETATM   25  C   UNL     1      43.514  -9.325  11.702  1.00  0.00     0.031 A 
HETATM   26  C   UNL     1      42.923  -8.631  12.762  1.00  0.00     0.002 A 
HETATM   27  C   UNL     1      42.395  -7.357  12.560  1.00  0.00     0.000 A 
HETATM   28  C   UNL     1      42.441  -6.777  11.295  1.00  0.00     0.002 A 
HETATM   29  C   UNL     1      43.025  -7.467  10.231  1.00  0.00     0.031 A 
ENDBRANCH   4  24
TORSDOF 3
ENDMDL
