MODEL 1
REMARK VINA RESULT:      -8.3      0.000      0.000
REMARK  3 active torsions:
REMARK  status: ('A' for Active; 'I' for Inactive)
REMARK    1  A    between atoms: C_9  and  C_10 
REMARK    2  A    between atoms: C_16  and  C_17 
REMARK       I    between atoms: C_17  and  N_18 
REMARK    3  A    between atoms: N_18  and  C_19 
ROOT
HETATM    1  C   UNL     1      42.958 -15.641   8.051  1.00  0.00     0.070 C 
HETATM    2  C   UNL     1      43.027 -14.603   6.958  1.00  0.00     0.037 C 
HETATM    3  N   UNL     1      43.384 -13.321   7.369  1.00  0.00    -0.191 N 
HETATM    4  C   UNL     1      43.735 -12.349   6.501  1.00  0.00     0.735 A 
HETATM    5  N   UNL     1      43.588 -12.564   5.159  1.00  0.00    -0.092 N 
HETATM    6  N   UNL     1      44.069 -11.521   4.466  1.00  0.00     0.012 NA
HETATM    7  N   UNL     1      44.460 -10.655   5.397  1.00  0.00     0.033 NA
HETATM    8  N   UNL     1      44.260 -11.159   6.669  1.00  0.00     0.030 NA
HETATM    9  C   UNL     1      43.038 -13.781   4.571  1.00  0.00     0.198 C 
HETATM   10  C   UNL     1      42.839 -14.856   5.638  1.00  0.00     0.062 C 
HETATM   11  H   UNL     1      43.609 -13.189   8.353  1.00  0.00     0.184 HD
ENDROOT
BRANCH  10  12
HETATM   12  C   UNL     1      42.550 -16.205   5.088  1.00  0.00     0.256 C 
HETATM   13  N   UNL     1      43.677 -16.914   4.741  1.00  0.00    -0.322 N 
HETATM   14  H   UNL     1      44.575 -16.493   4.944  1.00  0.00     0.169 HD
HETATM   15  O   UNL     1      41.387 -16.581   5.026  1.00  0.00    -0.267 OA
BRANCH  13  16
HETATM   16  C   UNL     1      43.710 -18.178   4.112  1.00  0.00     0.052 A 
HETATM   17  C   UNL     1      44.076 -19.372   4.726  1.00  0.00     0.145 A 
HETATM   18  N   UNL     1      44.071 -20.581   4.106  1.00  0.00    -0.271 NA
HETATM   19  C   UNL     1      43.685 -20.604   2.815  1.00  0.00     0.116 A 
HETATM   20  C   UNL     1      43.305 -19.474   2.111  1.00  0.00     0.021 A 
HETATM   21  C   UNL     1      43.322 -18.246   2.771  1.00  0.00     0.032 A 
ENDBRANCH  13  16
ENDBRANCH  10  12
BRANCH   9  22
HETATM   22  C   UNL     1      41.740 -13.476   3.828  1.00  0.00    -0.029 A 
HETATM   23  C   UNL     1      41.660 -13.711   2.445  1.00  0.00     0.009 A 
HETATM   24  C   UNL     1      40.484 -13.445   1.743  1.00  0.00     0.001 A 
HETATM   25  C   UNL     1      39.369 -12.946   2.413  1.00  0.00     0.000 A 
HETATM   26  C   UNL     1      39.426 -12.721   3.787  1.00  0.00     0.001 A 
HETATM   27  C   UNL     1      40.599 -12.988   4.492  1.00  0.00     0.009 A 
ENDBRANCH   9  22
TORSDOF 3
ENDMDL
MODEL 2
REMARK VINA RESULT:      -8.0      3.405      6.116
REMARK  3 active torsions:
REMARK  status: ('A' for Active; 'I' for Inactive)
REMARK    1  A    between atoms: C_9  and  C_10 
REMARK    2  A    between atoms: C_16  and  C_17 
REMARK       I    between atoms: C_17  and  N_18 
REMARK    3  A    between atoms: N_18  and  C_19 
ROOT
HETATM    1  C   UNL     1      41.525 -10.046   1.282  1.00  0.00     0.070 C 
HETATM    2  C   UNL     1      41.884 -11.110   2.290  1.00  0.00     0.037 C 
HETATM    3  N   UNL     1      42.915 -10.782   3.166  1.00  0.00    -0.191 N 
HETATM    4  C   UNL     1      43.187 -11.503   4.274  1.00  0.00     0.735 A 
HETATM    5  N   UNL     1      42.541 -12.691   4.475  1.00  0.00    -0.092 N 
HETATM    6  N   UNL     1      42.882 -13.211   5.664  1.00  0.00     0.012 NA
HETATM    7  N   UNL     1      43.774 -12.356   6.157  1.00  0.00     0.033 NA
HETATM    8  N   UNL     1      43.972 -11.287   5.302  1.00  0.00     0.030 NA
HETATM    9  C   UNL     1      41.577 -13.276   3.548  1.00  0.00     0.198 C 
HETATM   10  C   UNL     1      41.235 -12.293   2.430  1.00  0.00     0.062 C 
HETATM   11  H   UNL     1      43.316  -9.849   3.093  1.00  0.00     0.184 HD
ENDROOT
BRANCH  10  12
HETATM   12  C   UNL     1      40.064 -12.696   1.610  1.00  0.00     0.256 C 
HETATM   13  N   UNL     1      40.367 -12.926   0.288  1.00  0.00    -0.322 N 
HETATM   14  H   UNL     1      41.340 -12.864   0.014  1.00  0.00     0.169 HD
HETATM   15  O   UNL     1      38.977 -12.827   2.158  1.00  0.00    -0.267 OA
BRANCH  13  16
HETATM   16  C   UNL     1      39.448 -13.229  -0.740  1.00  0.00     0.052 A 
HETATM   17  C   UNL     1      38.404 -12.405  -1.153  1.00  0.00     0.145 A 
HETATM   18  N   UNL     1      37.550 -12.707  -2.165  1.00  0.00    -0.271 NA
HETATM   19  C   UNL     1      37.743 -13.881  -2.798  1.00  0.00     0.116 A 
HETATM   20  C   UNL     1      38.747 -14.773  -2.465  1.00  0.00     0.021 A 
HETATM   21  C   UNL     1      39.609 -14.440  -1.419  1.00  0.00     0.032 A 
ENDBRANCH  13  16
ENDBRANCH  10  12
BRANCH   9  22
HETATM   22  C   UNL     1      42.101 -14.599   2.996  1.00  0.00    -0.029 A 
HETATM   23  C   UNL     1      41.541 -15.808   3.443  1.00  0.00     0.009 A 
HETATM   24  C   UNL     1      42.000 -17.031   2.951  1.00  0.00     0.001 A 
HETATM   25  C   UNL     1      43.019 -17.064   2.001  1.00  0.00     0.000 A 
HETATM   26  C   UNL     1      43.575 -15.874   1.536  1.00  0.00     0.001 A 
HETATM   27  C   UNL     1      43.117 -14.650   2.025  1.00  0.00     0.009 A 
ENDBRANCH   9  22
TORSDOF 3
ENDMDL
MODEL 3
REMARK VINA RESULT:      -8.0      2.766      4.277
REMARK  3 active torsions:
REMARK  status: ('A' for Active; 'I' for Inactive)
REMARK    1  A    between atoms: C_9  and  C_10 
REMARK    2  A    between atoms: C_16  and  C_17 
REMARK       I    between atoms: C_17  and  N_18 
REMARK    3  A    between atoms: N_18  and  C_19 
ROOT
HETATM    1  C   UNL     1      39.845 -15.470   0.894  1.00  0.00     0.070 C 
HETATM    2  C   UNL     1      39.908 -14.323   1.872  1.00  0.00     0.037 C 
HETATM    3  N   UNL     1      39.303 -13.141   1.450  1.00  0.00    -0.191 N 
HETATM    4  C   UNL     1      39.049 -12.114   2.287  1.00  0.00     0.735 A 
HETATM    5  N   UNL     1      39.538 -12.152   3.563  1.00  0.00    -0.092 N 
HETATM    6  N   UNL     1      39.108 -11.088   4.258  1.00  0.00     0.012 NA
HETATM    7  N   UNL     1      38.399 -10.383   3.382  1.00  0.00     0.033 NA
HETATM    8  N   UNL     1      38.352 -11.011   2.150  1.00  0.00     0.030 NA
HETATM    9  C   UNL     1      40.363 -13.230   4.101  1.00  0.00     0.198 C 
HETATM   10  C   UNL     1      40.437 -14.397   3.119  1.00  0.00     0.062 C 
HETATM   11  H   UNL     1      38.834 -13.150   0.547  1.00  0.00     0.184 HD
ENDROOT
BRANCH  10  12
HETATM   12  C   UNL     1      41.017 -15.636   3.698  1.00  0.00     0.256 C 
HETATM   13  N   UNL     1      42.214 -16.005   3.127  1.00  0.00    -0.322 N 
HETATM   14  H   UNL     1      42.609 -15.386   2.431  1.00  0.00     0.169 HD
HETATM   15  O   UNL     1      40.435 -16.185   4.625  1.00  0.00    -0.267 OA
BRANCH  13  16
HETATM   16  C   UNL     1      42.946 -17.179   3.407  1.00  0.00     0.052 A 
HETATM   17  C   UNL     1      43.624 -17.439   4.595  1.00  0.00     0.145 A 
HETATM   18  N   UNL     1      44.299 -18.591   4.851  1.00  0.00    -0.271 NA
HETATM   19  C   UNL     1      44.299 -19.527   3.882  1.00  0.00     0.116 A 
HETATM   20  C   UNL     1      43.660 -19.367   2.665  1.00  0.00     0.021 A 
HETATM   21  C   UNL     1      42.977 -18.174   2.426  1.00  0.00     0.032 A 
ENDBRANCH  13  16
ENDBRANCH  10  12
BRANCH   9  22
HETATM   22  C   UNL     1      41.751 -12.709   4.464  1.00  0.00    -0.029 A 
HETATM   23  C   UNL     1      42.556 -12.128   3.470  1.00  0.00     0.009 A 
HETATM   24  C   UNL     1      43.827 -11.641   3.777  1.00  0.00     0.001 A 
HETATM   25  C   UNL     1      44.309 -11.719   5.082  1.00  0.00     0.000 A 
HETATM   26  C   UNL     1      43.518 -12.279   6.084  1.00  0.00     0.001 A 
HETATM   27  C   UNL     1      42.246 -12.765   5.780  1.00  0.00     0.009 A 
ENDBRANCH   9  22
TORSDOF 3
ENDMDL
MODEL 4
REMARK VINA RESULT:      -7.5      3.912      6.894
REMARK  3 active torsions:
REMARK  status: ('A' for Active; 'I' for Inactive)
REMARK    1  A    between atoms: C_9  and  C_10 
REMARK    2  A    between atoms: C_16  and  C_17 
REMARK       I    between atoms: C_17  and  N_18 
REMARK    3  A    between atoms: N_18  and  C_19 
ROOT
HETATM    1  C   UNL     1      38.967 -10.638   2.749  1.00  0.00     0.070 C 
HETATM    2  C   UNL     1      39.491 -11.690   1.803  1.00  0.00     0.037 C 
HETATM    3  N   UNL     1      38.609 -12.089   0.802  1.00  0.00    -0.191 N 
HETATM    4  C   UNL     1      38.999 -12.821  -0.263  1.00  0.00     0.735 A 
HETATM    5  N   UNL     1      40.267 -13.331  -0.298  1.00  0.00    -0.092 N 
HETATM    6  N   UNL     1      40.487 -13.950  -1.467  1.00  0.00     0.012 NA
HETATM    7  N   UNL     1      39.331 -13.854  -2.118  1.00  0.00     0.033 NA
HETATM    8  N   UNL     1      38.396 -13.151  -1.380  1.00  0.00     0.030 NA
HETATM    9  C   UNL     1      41.252 -13.172   0.768  1.00  0.00     0.198 C 
HETATM   10  C   UNL     1      40.750 -12.194   1.828  1.00  0.00     0.062 C 
HETATM   11  H   UNL     1      37.707 -11.621   0.756  1.00  0.00     0.184 HD
ENDROOT
BRANCH  10  12
HETATM   12  C   UNL     1      41.794 -11.764   2.793  1.00  0.00     0.256 C 
HETATM   13  N   UNL     1      41.680 -12.353   4.031  1.00  0.00    -0.322 N 
HETATM   14  H   UNL     1      40.957 -13.051   4.151  1.00  0.00     0.169 HD
HETATM   15  O   UNL     1      42.661 -10.985   2.417  1.00  0.00    -0.267 OA
BRANCH  13  16
HETATM   16  C   UNL     1      42.467 -12.069   5.168  1.00  0.00     0.052 A 
HETATM   17  C   UNL     1      42.363 -10.922   5.951  1.00  0.00     0.145 A 
HETATM   18  N   UNL     1      43.113 -10.684   7.059  1.00  0.00    -0.271 NA
HETATM   19  C   UNL     1      44.008 -11.631   7.405  1.00  0.00     0.116 A 
HETATM   20  C   UNL     1      44.192 -12.804   6.695  1.00  0.00     0.021 A 
HETATM   21  C   UNL     1      43.411 -13.021   5.559  1.00  0.00     0.032 A 
ENDBRANCH  13  16
ENDBRANCH  10  12
BRANCH   9  22
HETATM   22  C   UNL     1      41.608 -14.528   1.372  1.00  0.00    -0.029 A 
HETATM   23  C   UNL     1      42.943 -14.965   1.359  1.00  0.00     0.009 A 
HETATM   24  C   UNL     1      43.295 -16.198   1.909  1.00  0.00     0.001 A 
HETATM   25  C   UNL     1      42.320 -17.009   2.487  1.00  0.00     0.000 A 
HETATM   26  C   UNL     1      40.994 -16.584   2.523  1.00  0.00     0.001 A 
HETATM   27  C   UNL     1      40.639 -15.351   1.975  1.00  0.00     0.009 A 
ENDBRANCH   9  22
TORSDOF 3
ENDMDL
MODEL 5
REMARK VINA RESULT:      -7.2     15.998     17.375
REMARK  3 active torsions:
REMARK  status: ('A' for Active; 'I' for Inactive)
REMARK    1  A    between atoms: C_9  and  C_10 
REMARK    2  A    between atoms: C_16  and  C_17 
REMARK       I    between atoms: C_17  and  N_18 
REMARK    3  A    between atoms: N_18  and  C_19 
ROOT
HETATM    1  C   UNL     1      59.384  -8.532  -0.701  1.00  0.00     0.070 C 
HETATM    2  C   UNL     1      59.526  -9.553   0.401  1.00  0.00     0.037 C 
HETATM    3  N   UNL     1      60.657  -9.417   1.203  1.00  0.00    -0.191 N 
HETATM    4  C   UNL     1      60.805 -10.077   2.370  1.00  0.00     0.735 A 
HETATM    5  N   UNL     1      59.897 -11.038   2.717  1.00  0.00    -0.092 N 
HETATM    6  N   UNL     1      60.168 -11.514   3.942  1.00  0.00     0.012 NA
HETATM    7  N   UNL     1      61.272 -10.871   4.312  1.00  0.00     0.033 NA
HETATM    8  N   UNL     1      61.679  -9.972   3.342  1.00  0.00     0.030 NA
HETATM    9  C   UNL     1      58.764 -11.443   1.890  1.00  0.00     0.198 C 
HETATM   10  C   UNL     1      58.612 -10.514   0.687  1.00  0.00     0.062 C 
HETATM   11  H   UNL     1      61.272  -8.628   1.018  1.00  0.00     0.184 HD
ENDROOT
BRANCH  10  12
HETATM   12  C   UNL     1      57.331 -10.682  -0.046  1.00  0.00     0.256 C 
HETATM   13  N   UNL     1      57.490 -10.893  -1.396  1.00  0.00    -0.322 N 
HETATM   14  H   UNL     1      58.435 -10.975  -1.748  1.00  0.00     0.169 HD
HETATM   15  O   UNL     1      56.283 -10.661   0.586  1.00  0.00    -0.267 OA
BRANCH  13  16
HETATM   16  C   UNL     1      56.457 -10.992  -2.354  1.00  0.00     0.052 A 
HETATM   17  C   UNL     1      55.561 -12.052  -2.461  1.00  0.00     0.145 A 
HETATM   18  N   UNL     1      54.556 -12.111  -3.374  1.00  0.00    -0.271 NA
HETATM   19  C   UNL     1      54.436 -11.068  -4.219  1.00  0.00     0.116 A 
HETATM   20  C   UNL     1      55.276  -9.968  -4.198  1.00  0.00     0.021 A 
HETATM   21  C   UNL     1      56.301  -9.934  -3.253  1.00  0.00     0.032 A 
ENDBRANCH  13  16
ENDBRANCH  10  12
BRANCH   9  22
HETATM   22  C   UNL     1      58.908 -12.901   1.463  1.00  0.00    -0.029 A 
HETATM   23  C   UNL     1      59.987 -13.282   0.649  1.00  0.00     0.009 A 
HETATM   24  C   UNL     1      60.144 -14.610   0.249  1.00  0.00     0.001 A 
HETATM   25  C   UNL     1      59.230 -15.577   0.662  1.00  0.00     0.000 A 
HETATM   26  C   UNL     1      58.161 -15.219   1.482  1.00  0.00     0.001 A 
HETATM   27  C   UNL     1      58.003 -13.893   1.885  1.00  0.00     0.009 A 
ENDBRANCH   9  22
TORSDOF 3
ENDMDL
MODEL 6
REMARK VINA RESULT:      -7.1     15.179     16.978
REMARK  3 active torsions:
REMARK  status: ('A' for Active; 'I' for Inactive)
REMARK    1  A    between atoms: C_9  and  C_10 
REMARK    2  A    between atoms: C_16  and  C_17 
REMARK       I    between atoms: C_17  and  N_18 
REMARK    3  A    between atoms: N_18  and  C_19 
ROOT
HETATM    1  C   UNL     1      46.356 -32.808   1.903  1.00  0.00     0.070 C 
HETATM    2  C   UNL     1      45.427 -31.736   1.388  1.00  0.00     0.037 C 
HETATM    3  N   UNL     1      44.078 -31.921   1.680  1.00  0.00    -0.191 N 
HETATM    4  C   UNL     1      43.158 -30.947   1.520  1.00  0.00     0.735 A 
HETATM    5  N   UNL     1      43.516 -29.782   0.900  1.00  0.00    -0.092 N 
HETATM    6  N   UNL     1      42.494 -28.914   0.914  1.00  0.00     0.012 NA
HETATM    7  N   UNL     1      41.502 -29.578   1.500  1.00  0.00     0.033 NA
HETATM    8  N   UNL     1      41.903 -30.845   1.884  1.00  0.00     0.030 NA
HETATM    9  C   UNL     1      44.843 -29.509   0.354  1.00  0.00     0.198 C 
HETATM   10  C   UNL     1      45.826 -30.610   0.746  1.00  0.00     0.062 C 
HETATM   11  H   UNL     1      43.826 -32.729   2.246  1.00  0.00     0.184 HD
ENDROOT
BRANCH  10  12
HETATM   12  C   UNL     1      47.247 -30.274   0.472  1.00  0.00     0.256 C 
HETATM   13  N   UNL     1      47.828 -31.067  -0.490  1.00  0.00    -0.322 N 
HETATM   14  H   UNL     1      47.238 -31.745  -0.955  1.00  0.00     0.169 HD
HETATM   15  O   UNL     1      47.757 -29.333   1.067  1.00  0.00    -0.267 OA
BRANCH  13  16
HETATM   16  C   UNL     1      49.182 -31.042  -0.889  1.00  0.00     0.052 A 
HETATM   17  C   UNL     1      49.720 -30.192  -1.852  1.00  0.00     0.145 A 
HETATM   18  N   UNL     1      51.034 -30.167  -2.198  1.00  0.00    -0.271 NA
HETATM   19  C   UNL     1      51.851 -31.026  -1.557  1.00  0.00     0.116 A 
HETATM   20  C   UNL     1      51.418 -31.913  -0.587  1.00  0.00     0.021 A 
HETATM   21  C   UNL     1      50.063 -31.920  -0.253  1.00  0.00     0.032 A 
ENDBRANCH  13  16
ENDBRANCH  10  12
BRANCH   9  22
HETATM   22  C   UNL     1      44.770 -29.329  -1.160  1.00  0.00    -0.029 A 
HETATM   23  C   UNL     1      44.246 -30.359  -1.957  1.00  0.00     0.009 A 
HETATM   24  C   UNL     1      44.165 -30.217  -3.343  1.00  0.00     0.001 A 
HETATM   25  C   UNL     1      44.599 -29.042  -3.951  1.00  0.00     0.000 A 
HETATM   26  C   UNL     1      45.109 -28.003  -3.174  1.00  0.00     0.001 A 
HETATM   27  C   UNL     1      45.189 -28.142  -1.788  1.00  0.00     0.009 A 
ENDBRANCH   9  22
TORSDOF 3
ENDMDL
MODEL 7
REMARK VINA RESULT:      -7.0      3.945      5.682
REMARK  3 active torsions:
REMARK  status: ('A' for Active; 'I' for Inactive)
REMARK    1  A    between atoms: C_9  and  C_10 
REMARK    2  A    between atoms: C_16  and  C_17 
REMARK       I    between atoms: C_17  and  N_18 
REMARK    3  A    between atoms: N_18  and  C_19 
ROOT
HETATM    1  C   UNL     1      40.325 -11.007   3.470  1.00  0.00     0.070 C 
HETATM    2  C   UNL     1      40.517 -11.002   1.974  1.00  0.00     0.037 C 
HETATM    3  N   UNL     1      40.523  -9.745   1.374  1.00  0.00    -0.191 N 
HETATM    4  C   UNL     1      40.931  -9.546   0.103  1.00  0.00     0.735 A 
HETATM    5  N   UNL     1      41.200 -10.626  -0.691  1.00  0.00    -0.092 N 
HETATM    6  N   UNL     1      41.669 -10.222  -1.881  1.00  0.00     0.012 NA
HETATM    7  N   UNL     1      41.635  -8.894  -1.820  1.00  0.00     0.033 NA
HETATM    8  N   UNL     1      41.178  -8.460  -0.588  1.00  0.00     0.030 NA
HETATM    9  C   UNL     1      41.048 -12.017  -0.275  1.00  0.00     0.198 C 
HETATM   10  C   UNL     1      40.747 -12.106   1.220  1.00  0.00     0.062 C 
HETATM   11  H   UNL     1      40.441  -8.933   1.983  1.00  0.00     0.184 HD
ENDROOT
BRANCH  10  12
HETATM   12  C   UNL     1      40.855 -13.479   1.776  1.00  0.00     0.256 C 
HETATM   13  N   UNL     1      42.133 -13.824   2.153  1.00  0.00    -0.322 N 
HETATM   14  H   UNL     1      42.849 -13.113   2.079  1.00  0.00     0.169 HD
HETATM   15  O   UNL     1      39.839 -14.152   1.888  1.00  0.00    -0.267 OA
BRANCH  13  16
HETATM   16  C   UNL     1      42.553 -15.087   2.624  1.00  0.00     0.052 A 
HETATM   17  C   UNL     1      42.614 -15.465   3.963  1.00  0.00     0.145 A 
HETATM   18  N   UNL     1      42.995 -16.698   4.389  1.00  0.00    -0.271 NA
HETATM   19  C   UNL     1      43.330 -17.596   3.442  1.00  0.00     0.116 A 
HETATM   20  C   UNL     1      43.307 -17.321   2.086  1.00  0.00     0.021 A 
HETATM   21  C   UNL     1      42.915 -16.047   1.675  1.00  0.00     0.032 A 
ENDBRANCH  13  16
ENDBRANCH  10  12
BRANCH   9  22
HETATM   22  C   UNL     1      39.975 -12.710  -1.110  1.00  0.00    -0.029 A 
HETATM   23  C   UNL     1      38.667 -12.198  -1.122  1.00  0.00     0.009 A 
HETATM   24  C   UNL     1      37.668 -12.811  -1.880  1.00  0.00     0.001 A 
HETATM   25  C   UNL     1      37.963 -13.939  -2.642  1.00  0.00     0.000 A 
HETATM   26  C   UNL     1      39.259 -14.452  -2.654  1.00  0.00     0.001 A 
HETATM   27  C   UNL     1      40.260 -13.840  -1.898  1.00  0.00     0.009 A 
ENDBRANCH   9  22
TORSDOF 3
ENDMDL
MODEL 8
REMARK VINA RESULT:      -6.8      4.733      8.020
REMARK  3 active torsions:
REMARK  status: ('A' for Active; 'I' for Inactive)
REMARK    1  A    between atoms: C_9  and  C_10 
REMARK    2  A    between atoms: C_16  and  C_17 
REMARK       I    between atoms: C_17  and  N_18 
REMARK    3  A    between atoms: N_18  and  C_19 
ROOT
HETATM    1  C   UNL     1      37.144 -10.803   0.970  1.00  0.00     0.070 C 
HETATM    2  C   UNL     1      38.105 -11.758   0.306  1.00  0.00     0.037 C 
HETATM    3  N   UNL     1      37.626 -12.391  -0.840  1.00  0.00    -0.191 N 
HETATM    4  C   UNL     1      38.429 -13.069  -1.686  1.00  0.00     0.735 A 
HETATM    5  N   UNL     1      39.733 -13.290  -1.342  1.00  0.00    -0.092 N 
HETATM    6  N   UNL     1      40.382 -13.901  -2.344  1.00  0.00     0.012 NA
HETATM    7  N   UNL     1      39.452 -14.093  -3.274  1.00  0.00     0.033 NA
HETATM    8  N   UNL     1      38.231 -13.578  -2.878  1.00  0.00     0.030 NA
HETATM    9  C   UNL     1      40.339 -12.866  -0.083  1.00  0.00     0.198 C 
HETATM   10  C   UNL     1      39.384 -11.972   0.705  1.00  0.00     0.062 C 
HETATM   11  H   UNL     1      36.696 -12.135  -1.164  1.00  0.00     0.184 HD
ENDROOT
BRANCH  10  12
HETATM   12  C   UNL     1      40.018 -11.276   1.854  1.00  0.00     0.256 C 
HETATM   13  N   UNL     1      39.684 -11.810   3.077  1.00  0.00    -0.322 N 
HETATM   14  H   UNL     1      39.105 -12.640   3.082  1.00  0.00     0.169 HD
HETATM   15  O   UNL     1      40.787 -10.349   1.631  1.00  0.00    -0.267 OA
BRANCH  13  16
HETATM   16  C   UNL     1      40.058 -11.303   4.341  1.00  0.00     0.052 A 
HETATM   17  C   UNL     1      41.318 -11.436   4.918  1.00  0.00     0.145 A 
HETATM   18  N   UNL     1      41.662 -10.914   6.125  1.00  0.00    -0.271 NA
HETATM   19  C   UNL     1      40.710 -10.227   6.787  1.00  0.00     0.116 A 
HETATM   20  C   UNL     1      39.427 -10.040   6.303  1.00  0.00     0.021 A 
HETATM   21  C   UNL     1      39.099 -10.589   5.064  1.00  0.00     0.032 A 
ENDBRANCH  13  16
ENDBRANCH  10  12
BRANCH   9  22
HETATM   22  C   UNL     1      40.779 -14.079   0.733  1.00  0.00    -0.029 A 
HETATM   23  C   UNL     1      39.841 -15.070   1.063  1.00  0.00     0.009 A 
HETATM   24  C   UNL     1      40.219 -16.191   1.804  1.00  0.00     0.001 A 
HETATM   25  C   UNL     1      41.540 -16.341   2.219  1.00  0.00     0.000 A 
HETATM   26  C   UNL     1      42.488 -15.374   1.887  1.00  0.00     0.001 A 
HETATM   27  C   UNL     1      42.113 -14.254   1.145  1.00  0.00     0.009 A 
ENDBRANCH   9  22
TORSDOF 3
ENDMDL
MODEL 9
REMARK VINA RESULT:      -6.8     15.190     16.949
REMARK  3 active torsions:
REMARK  status: ('A' for Active; 'I' for Inactive)
REMARK    1  A    between atoms: C_9  and  C_10 
REMARK    2  A    between atoms: C_16  and  C_17 
REMARK       I    between atoms: C_17  and  N_18 
REMARK    3  A    between atoms: N_18  and  C_19 
ROOT
HETATM    1  C   UNL     1      47.209 -28.461   2.273  1.00  0.00     0.070 C 
HETATM    2  C   UNL     1      47.450 -29.084   0.920  1.00  0.00     0.037 C 
HETATM    3  N   UNL     1      48.751 -28.981   0.435  1.00  0.00    -0.191 N 
HETATM    4  C   UNL     1      49.192 -29.693  -0.624  1.00  0.00     0.735 A 
HETATM    5  N   UNL     1      48.301 -30.425  -1.357  1.00  0.00    -0.092 N 
HETATM    6  N   UNL     1      48.942 -31.123  -2.306  1.00  0.00     0.012 NA
HETATM    7  N   UNL     1      50.218 -30.770  -2.174  1.00  0.00     0.033 NA
HETATM    8  N   UNL     1      50.388 -29.881  -1.129  1.00  0.00     0.030 NA
HETATM    9  C   UNL     1      46.865 -30.479  -1.101  1.00  0.00     0.198 C 
HETATM   10  C   UNL     1      46.522 -29.774   0.210  1.00  0.00     0.062 C 
HETATM   11  H   UNL     1      49.444 -28.539   1.036  1.00  0.00     0.184 HD
ENDROOT
BRANCH  10  12
HETATM   12  C   UNL     1      45.136 -30.022   0.683  1.00  0.00     0.256 C 
HETATM   13  N   UNL     1      44.958 -31.263   1.250  1.00  0.00    -0.322 N 
HETATM   14  H   UNL     1      45.775 -31.852   1.349  1.00  0.00     0.169 HD
HETATM   15  O   UNL     1      44.306 -29.128   0.573  1.00  0.00    -0.267 OA
BRANCH  13  16
HETATM   16  C   UNL     1      43.737 -31.809   1.701  1.00  0.00     0.052 A 
HETATM   17  C   UNL     1      43.283 -31.784   3.017  1.00  0.00     0.145 A 
HETATM   18  N   UNL     1      42.088 -32.292   3.420  1.00  0.00    -0.271 NA
HETATM   19  C   UNL     1      41.310 -32.850   2.472  1.00  0.00     0.116 A 
HETATM   20  C   UNL     1      41.669 -32.929   1.138  1.00  0.00     0.021 A 
HETATM   21  C   UNL     1      42.901 -32.402   0.751  1.00  0.00     0.032 A 
ENDBRANCH  13  16
ENDBRANCH  10  12
BRANCH   9  22
HETATM   22  C   UNL     1      46.090 -29.891  -2.278  1.00  0.00    -0.029 A 
HETATM   23  C   UNL     1      45.341 -30.740  -3.109  1.00  0.00     0.009 A 
HETATM   24  C   UNL     1      44.621 -30.227  -4.188  1.00  0.00     0.001 A 
HETATM   25  C   UNL     1      44.633 -28.858  -4.449  1.00  0.00     0.000 A 
HETATM   26  C   UNL     1      45.359 -28.000  -3.625  1.00  0.00     0.001 A 
HETATM   27  C   UNL     1      46.078 -28.509  -2.544  1.00  0.00     0.009 A 
ENDBRANCH   9  22
TORSDOF 3
ENDMDL
MODEL 10
REMARK VINA RESULT:      -6.7      2.876      6.348
REMARK  3 active torsions:
REMARK  status: ('A' for Active; 'I' for Inactive)
REMARK    1  A    between atoms: C_9  and  C_10 
REMARK    2  A    between atoms: C_16  and  C_17 
REMARK       I    between atoms: C_17  and  N_18 
REMARK    3  A    between atoms: N_18  and  C_19 
ROOT
HETATM    1  C   UNL     1      43.283 -12.031   7.060  1.00  0.00     0.070 C 
HETATM    2  C   UNL     1      43.024 -13.381   6.439  1.00  0.00     0.037 C 
HETATM    3  N   UNL     1      44.039 -14.321   6.600  1.00  0.00    -0.191 N 
HETATM    4  C   UNL     1      43.867 -15.633   6.334  1.00  0.00     0.735 A 
HETATM    5  N   UNL     1      42.711 -16.049   5.734  1.00  0.00    -0.092 N 
HETATM    6  N   UNL     1      42.695 -17.386   5.633  1.00  0.00     0.012 NA
HETATM    7  N   UNL     1      43.867 -17.771   6.129  1.00  0.00     0.033 NA
HETATM    8  N   UNL     1      44.606 -16.689   6.571  1.00  0.00     0.030 NA
HETATM    9  C   UNL     1      41.629 -15.161   5.317  1.00  0.00     0.198 C 
HETATM   10  C   UNL     1      41.870 -13.740   5.821  1.00  0.00     0.062 C 
HETATM   11  H   UNL     1      44.850 -14.047   7.150  1.00  0.00     0.184 HD
ENDROOT
BRANCH  10  12
HETATM   12  C   UNL     1      40.693 -12.844   5.683  1.00  0.00     0.256 C 
HETATM   13  N   UNL     1      40.859 -11.852   4.744  1.00  0.00    -0.322 N 
HETATM   14  H   UNL     1      41.715 -11.860   4.204  1.00  0.00     0.169 HD
HETATM   15  O   UNL     1      39.696 -13.072   6.356  1.00  0.00    -0.267 OA
BRANCH  13  16
HETATM   16  C   UNL     1      39.954 -10.806   4.464  1.00  0.00     0.052 A 
HETATM   17  C   UNL     1      39.127 -10.738   3.345  1.00  0.00     0.145 A 
HETATM   18  N   UNL     1      38.242  -9.733   3.113  1.00  0.00    -0.271 NA
HETATM   19  C   UNL     1      38.176  -8.751   4.034  1.00  0.00     0.116 A 
HETATM   20  C   UNL     1      38.955  -8.723   5.177  1.00  0.00     0.021 A 
HETATM   21  C   UNL     1      39.857  -9.765   5.390  1.00  0.00     0.032 A 
ENDBRANCH  13  16
ENDBRANCH  10  12
BRANCH   9  22
HETATM   22  C   UNL     1      41.460 -15.202   3.800  1.00  0.00    -0.029 A 
HETATM   23  C   UNL     1      42.489 -14.720   2.974  1.00  0.00     0.009 A 
HETATM   24  C   UNL     1      42.361 -14.750   1.585  1.00  0.00     0.001 A 
HETATM   25  C   UNL     1      41.206 -15.267   1.001  1.00  0.00     0.000 A 
HETATM   26  C   UNL     1      40.182 -15.763   1.805  1.00  0.00     0.001 A 
HETATM   27  C   UNL     1      40.308 -15.736   3.194  1.00  0.00     0.009 A 
ENDBRANCH   9  22
TORSDOF 3
ENDMDL
