MODEL 1
REMARK VINA RESULT:      -7.6      0.000      0.000
REMARK  4 active torsions:
REMARK  status: ('A' for Active; 'I' for Inactive)
REMARK    1  A    between atoms: C_5  and  N_6 
REMARK    2  A    between atoms: N_9  and  C_11 
REMARK    3  A    between atoms: C_11  and  C_12 
REMARK    4  A    between atoms: C_13  and  O_14 
ROOT
HETATM    1  N   UNL     1      41.779 -15.302   4.965  1.00  0.00    -0.363 N 
HETATM    2  C   UNL     1      41.796 -14.066   4.172  1.00  0.00     0.152 C 
HETATM    3  C   UNL     1      43.095 -13.244   4.294  1.00  0.00     0.255 C 
HETATM    4  N   UNL     1      43.190 -12.656   5.698  1.00  0.00    -0.066 N 
HETATM    5  H   UNL     1      42.228 -12.618   6.051  1.00  0.00     0.280 HD
HETATM    6  C   UNL     1      43.945 -13.510   6.681  1.00  0.00     0.237 C 
HETATM    7  C   UNL     1      43.535 -14.981   6.686  1.00  0.00     0.047 C 
HETATM    8  C   UNL     1      42.061 -15.261   6.403  1.00  0.00     0.126 C 
ENDROOT
BRANCH   4   9
HETATM    9  C   UNL     1      43.605 -11.195   5.735  1.00  0.00     0.276 C 
BRANCH   9  10
HETATM   10  C   UNL     1      44.223 -10.684   7.008  1.00  0.00     0.002 A 
HETATM   11  C   UNL     1      43.423 -10.313   8.099  1.00  0.00     0.091 A 
HETATM   12  C   UNL     1      43.991  -9.793   9.267  1.00  0.00     0.044 A 
HETATM   13 BR   UNL     1      42.900  -9.289  10.731  1.00  0.00    -0.048 Br
HETATM   14  C   UNL     1      45.370  -9.640   9.362  1.00  0.00     0.022 A 
HETATM   15  C   UNL     1      46.180 -10.007   8.289  1.00  0.00     0.002 A 
HETATM   16  C   UNL     1      45.613 -10.526   7.121  1.00  0.00     0.012 A 
BRANCH  11  17
HETATM   17  O   UNL     1      42.066 -10.474   7.985  1.00  0.00    -0.359 OA
HETATM   18  H   UNL     1      41.804 -11.171   8.622  1.00  0.00     0.218 HD
ENDBRANCH  11  17
ENDBRANCH   9  10
ENDBRANCH   4   9
BRANCH   1  19
HETATM   19  C   UNL     1      42.257 -16.427   4.270  1.00  0.00     0.147 A 
HETATM   20  N   UNL     1      43.074 -17.305   4.890  1.00  0.00    -0.132 NA
HETATM   21  N   UNL     1      43.585 -18.398   4.229  1.00  0.00    -0.153 NA
HETATM   22  C   UNL     1      43.282 -18.603   2.932  1.00  0.00     0.053 A 
HETATM   23  C   UNL     1      43.901 -19.775   2.239  1.00  0.00     0.072 C 
HETATM   24  C   UNL     1      42.446 -17.734   2.256  1.00  0.00     0.032 A 
HETATM   25  C   UNL     1      41.926 -16.636   2.937  1.00  0.00     0.054 A 
ENDBRANCH   1  19
TORSDOF 4
ENDMDL
MODEL 2
REMARK VINA RESULT:      -7.6      5.202      8.102
REMARK  4 active torsions:
REMARK  status: ('A' for Active; 'I' for Inactive)
REMARK    1  A    between atoms: C_5  and  N_6 
REMARK    2  A    between atoms: N_9  and  C_11 
REMARK    3  A    between atoms: C_11  and  C_12 
REMARK    4  A    between atoms: C_13  and  O_14 
ROOT
HETATM    1  N   UNL     1      39.293 -11.751   0.065  1.00  0.00    -0.363 N 
HETATM    2  C   UNL     1      39.421 -12.077   1.491  1.00  0.00     0.152 C 
HETATM    3  C   UNL     1      40.306 -13.304   1.791  1.00  0.00     0.255 C 
HETATM    4  N   UNL     1      39.605 -14.565   1.296  1.00  0.00    -0.066 N 
HETATM    5  H   UNL     1      38.606 -14.335   1.263  1.00  0.00     0.280 HD
HETATM    6  C   UNL     1      39.971 -14.969  -0.107  1.00  0.00     0.237 C 
HETATM    7  C   UNL     1      39.924 -13.833  -1.125  1.00  0.00     0.047 C 
HETATM    8  C   UNL     1      38.852 -12.772  -0.890  1.00  0.00     0.126 C 
ENDROOT
BRANCH   4   9
HETATM    9  C   UNL     1      39.637 -15.723   2.279  1.00  0.00     0.276 C 
BRANCH   9  10
HETATM   10  C   UNL     1      40.954 -16.037   2.934  1.00  0.00     0.002 A 
HETATM   11  C   UNL     1      41.132 -15.859   4.314  1.00  0.00     0.091 A 
HETATM   12  C   UNL     1      42.369 -16.105   4.920  1.00  0.00     0.044 A 
HETATM   13 BR   UNL     1      42.599 -15.856   6.783  1.00  0.00    -0.048 Br
HETATM   14  C   UNL     1      43.447 -16.536   4.153  1.00  0.00     0.022 A 
HETATM   15  C   UNL     1      43.286 -16.721   2.781  1.00  0.00     0.002 A 
HETATM   16  C   UNL     1      42.050 -16.474   2.175  1.00  0.00     0.012 A 
BRANCH  11  17
HETATM   17  O   UNL     1      40.056 -15.436   5.052  1.00  0.00    -0.359 OA
HETATM   18  H   UNL     1      40.377 -14.727   5.648  1.00  0.00     0.218 HD
ENDBRANCH  11  17
ENDBRANCH   9  10
ENDBRANCH   4   9
BRANCH   1  19
HETATM   19  C   UNL     1      40.265 -10.847  -0.399  1.00  0.00     0.147 A 
HETATM   20  N   UNL     1      41.221 -10.397   0.441  1.00  0.00    -0.132 NA
HETATM   21  N   UNL     1      42.167  -9.487   0.027  1.00  0.00    -0.153 NA
HETATM   22  C   UNL     1      42.144  -9.017  -1.235  1.00  0.00     0.053 A 
HETATM   23  C   UNL     1      43.160  -7.991  -1.626  1.00  0.00     0.072 C 
HETATM   24  C   UNL     1      41.186  -9.453  -2.134  1.00  0.00     0.032 A 
HETATM   25  C   UNL     1      40.240 -10.381  -1.707  1.00  0.00     0.054 A 
ENDBRANCH   1  19
TORSDOF 4
ENDMDL
MODEL 3
REMARK VINA RESULT:      -7.5      3.109      3.969
REMARK  4 active torsions:
REMARK  status: ('A' for Active; 'I' for Inactive)
REMARK    1  A    between atoms: C_5  and  N_6 
REMARK    2  A    between atoms: N_9  and  C_11 
REMARK    3  A    between atoms: C_11  and  C_12 
REMARK    4  A    between atoms: C_13  and  O_14 
ROOT
HETATM    1  N   UNL     1      43.015 -15.693   2.905  1.00  0.00    -0.363 N 
HETATM    2  C   UNL     1      42.821 -14.647   3.917  1.00  0.00     0.152 C 
HETATM    3  C   UNL     1      41.365 -14.484   4.400  1.00  0.00     0.255 C 
HETATM    4  N   UNL     1      40.518 -13.913   3.267  1.00  0.00    -0.066 N 
HETATM    5  H   UNL     1      41.174 -13.429   2.644  1.00  0.00     0.280 HD
HETATM    6  C   UNL     1      39.845 -14.952   2.410  1.00  0.00     0.237 C 
HETATM    7  C   UNL     1      40.761 -16.082   1.947  1.00  0.00     0.047 C 
HETATM    8  C   UNL     1      42.212 -15.693   1.678  1.00  0.00     0.126 C 
ENDROOT
BRANCH   4   9
HETATM    9  C   UNL     1      39.585 -12.792   3.690  1.00  0.00     0.276 C 
BRANCH   9  10
HETATM   10  C   UNL     1      40.192 -11.625   4.418  1.00  0.00     0.002 A 
HETATM   11  C   UNL     1      39.772 -11.287   5.713  1.00  0.00     0.091 A 
HETATM   12  C   UNL     1      40.301 -10.174   6.376  1.00  0.00     0.044 A 
HETATM   13 BR   UNL     1      39.721  -9.723   8.122  1.00  0.00    -0.048 Br
HETATM   14  C   UNL     1      41.262  -9.383   5.753  1.00  0.00     0.022 A 
HETATM   15  C   UNL     1      41.693  -9.708   4.468  1.00  0.00     0.002 A 
HETATM   16  C   UNL     1      41.164 -10.820   3.805  1.00  0.00     0.012 A 
BRANCH  11  17
HETATM   17  O   UNL     1      38.826 -12.080   6.310  1.00  0.00    -0.359 OA
HETATM   18  H   UNL     1      38.682 -11.726   7.212  1.00  0.00     0.218 HD
ENDBRANCH  11  17
ENDBRANCH   9  10
ENDBRANCH   4   9
BRANCH   1  19
HETATM   19  C   UNL     1      43.321 -16.954   3.446  1.00  0.00     0.147 A 
HETATM   20  N   UNL     1      43.394 -17.113   4.785  1.00  0.00    -0.132 NA
HETATM   21  N   UNL     1      43.722 -18.326   5.345  1.00  0.00    -0.153 NA
HETATM   22  C   UNL     1      43.991 -19.383   4.554  1.00  0.00     0.053 A 
HETATM   23  C   UNL     1      44.394 -20.668   5.205  1.00  0.00     0.072 C 
HETATM   24  C   UNL     1      43.924 -19.271   3.177  1.00  0.00     0.032 A 
HETATM   25  C   UNL     1      43.581 -18.041   2.621  1.00  0.00     0.054 A 
ENDBRANCH   1  19
TORSDOF 4
ENDMDL
MODEL 4
REMARK VINA RESULT:      -7.4      4.668      6.062
REMARK  4 active torsions:
REMARK  status: ('A' for Active; 'I' for Inactive)
REMARK    1  A    between atoms: C_5  and  N_6 
REMARK    2  A    between atoms: N_9  and  C_11 
REMARK    3  A    between atoms: C_11  and  C_12 
REMARK    4  A    between atoms: C_13  and  O_14 
ROOT
HETATM    1  N   UNL     1      43.099 -15.695   2.860  1.00  0.00    -0.363 N 
HETATM    2  C   UNL     1      42.848 -14.640   3.852  1.00  0.00     0.152 C 
HETATM    3  C   UNL     1      41.367 -14.476   4.251  1.00  0.00     0.255 C 
HETATM    4  N   UNL     1      40.585 -13.916   3.068  1.00  0.00    -0.066 N 
HETATM    5  H   UNL     1      41.273 -13.436   2.479  1.00  0.00     0.280 HD
HETATM    6  C   UNL     1      39.961 -14.962   2.184  1.00  0.00     0.237 C 
HETATM    7  C   UNL     1      40.902 -16.094   1.782  1.00  0.00     0.047 C 
HETATM    8  C   UNL     1      42.366 -15.706   1.591  1.00  0.00     0.126 C 
ENDROOT
BRANCH   4   9
HETATM    9  C   UNL     1      39.628 -12.792   3.429  1.00  0.00     0.276 C 
BRANCH   9  10
HETATM   10  C   UNL     1      39.350 -11.756   2.375  1.00  0.00     0.002 A 
HETATM   11  C   UNL     1      40.398 -11.150   1.666  1.00  0.00     0.091 A 
HETATM   12  C   UNL     1      40.146 -10.152   0.718  1.00  0.00     0.044 A 
HETATM   13 BR   UNL     1      41.569  -9.337  -0.229  1.00  0.00    -0.048 Br
HETATM   14  C   UNL     1      38.840  -9.747   0.464  1.00  0.00     0.022 A 
HETATM   15  C   UNL     1      37.786 -10.340   1.157  1.00  0.00     0.002 A 
HETATM   16  C   UNL     1      38.038 -11.338   2.105  1.00  0.00     0.012 A 
BRANCH  11  17
HETATM   17  O   UNL     1      41.678 -11.566   1.930  1.00  0.00    -0.359 OA
HETATM   18  H   UNL     1      41.976 -11.086   2.730  1.00  0.00     0.218 HD
ENDBRANCH  11  17
ENDBRANCH   9  10
ENDBRANCH   4   9
BRANCH   1  19
HETATM   19  C   UNL     1      43.375 -16.951   3.429  1.00  0.00     0.147 A 
HETATM   20  N   UNL     1      43.488 -17.075   4.768  1.00  0.00    -0.132 NA
HETATM   21  N   UNL     1      43.789 -18.283   5.353  1.00  0.00    -0.153 NA
HETATM   22  C   UNL     1      43.991 -19.372   4.585  1.00  0.00     0.053 A 
HETATM   23  C   UNL     1      44.367 -20.653   5.260  1.00  0.00     0.072 C 
HETATM   24  C   UNL     1      43.881 -19.296   3.208  1.00  0.00     0.032 A 
HETATM   25  C   UNL     1      43.566 -18.070   2.627  1.00  0.00     0.054 A 
ENDBRANCH   1  19
TORSDOF 4
ENDMDL
MODEL 5
REMARK VINA RESULT:      -7.4      5.263      7.441
REMARK  4 active torsions:
REMARK  status: ('A' for Active; 'I' for Inactive)
REMARK    1  A    between atoms: C_5  and  N_6 
REMARK    2  A    between atoms: N_9  and  C_11 
REMARK    3  A    between atoms: C_11  and  C_12 
REMARK    4  A    between atoms: C_13  and  O_14 
ROOT
HETATM    1  N   UNL     1      42.053 -15.853   3.830  1.00  0.00    -0.363 N 
HETATM    2  C   UNL     1      40.625 -15.806   3.487  1.00  0.00     0.152 C 
HETATM    3  C   UNL     1      40.327 -15.338   2.048  1.00  0.00     0.255 C 
HETATM    4  N   UNL     1      40.677 -13.860   1.915  1.00  0.00    -0.066 N 
HETATM    5  H   UNL     1      40.638 -13.476   2.865  1.00  0.00     0.280 HD
HETATM    6  C   UNL     1      42.079 -13.595   1.433  1.00  0.00     0.237 C 
HETATM    7  C   UNL     1      43.159 -14.392   2.160  1.00  0.00     0.047 C 
HETATM    8  C   UNL     1      42.898 -14.671   3.638  1.00  0.00     0.126 C 
ENDROOT
BRANCH   4   9
HETATM    9  C   UNL     1      39.630 -13.034   1.188  1.00  0.00     0.276 C 
BRANCH   9  10
HETATM   10  C   UNL     1      39.708 -12.985  -0.313  1.00  0.00     0.002 A 
HETATM   11  C   UNL     1      40.011 -11.788  -0.980  1.00  0.00     0.091 A 
HETATM   12  C   UNL     1      40.038 -11.728  -2.377  1.00  0.00     0.044 A 
HETATM   13 BR   UNL     1      40.442 -10.105  -3.267  1.00  0.00    -0.048 Br
HETATM   14  C   UNL     1      39.765 -12.866  -3.130  1.00  0.00     0.022 A 
HETATM   15  C   UNL     1      39.466 -14.064  -2.483  1.00  0.00     0.002 A 
HETATM   16  C   UNL     1      39.437 -14.125  -1.086  1.00  0.00     0.012 A 
BRANCH  11  17
HETATM   17  O   UNL     1      40.279 -10.679  -0.220  1.00  0.00    -0.359 OA
HETATM   18  H   UNL     1      39.527 -10.061  -0.337  1.00  0.00     0.218 HD
ENDBRANCH  11  17
ENDBRANCH   9  10
ENDBRANCH   4   9
BRANCH   1  19
HETATM   19  C   UNL     1      42.656 -17.097   3.571  1.00  0.00     0.147 A 
HETATM   20  N   UNL     1      42.346 -17.774   2.445  1.00  0.00    -0.132 NA
HETATM   21  N   UNL     1      42.894 -19.008   2.178  1.00  0.00    -0.153 NA
HETATM   22  C   UNL     1      43.750 -19.569   3.054  1.00  0.00     0.053 A 
HETATM   23  C   UNL     1      44.281 -20.934   2.748  1.00  0.00     0.072 C 
HETATM   24  C   UNL     1      44.102 -18.911   4.219  1.00  0.00     0.032 A 
HETATM   25  C   UNL     1      43.549 -17.658   4.474  1.00  0.00     0.054 A 
ENDBRANCH   1  19
TORSDOF 4
ENDMDL
MODEL 6
REMARK VINA RESULT:      -7.3      5.332      7.304
REMARK  4 active torsions:
REMARK  status: ('A' for Active; 'I' for Inactive)
REMARK    1  A    between atoms: C_5  and  N_6 
REMARK    2  A    between atoms: N_9  and  C_11 
REMARK    3  A    between atoms: C_11  and  C_12 
REMARK    4  A    between atoms: C_13  and  O_14 
ROOT
HETATM    1  N   UNL     1      40.690 -15.266   3.131  1.00  0.00    -0.363 N 
HETATM    2  C   UNL     1      40.547 -14.959   1.701  1.00  0.00     0.152 C 
HETATM    3  C   UNL     1      41.451 -13.816   1.197  1.00  0.00     0.255 C 
HETATM    4  N   UNL     1      40.978 -12.496   1.797  1.00  0.00    -0.066 N 
HETATM    5  H   UNL     1      39.992 -12.637   2.041  1.00  0.00     0.280 HD
HETATM    6  C   UNL     1      41.661 -12.119   3.085  1.00  0.00     0.237 C 
HETATM    7  C   UNL     1      41.730 -13.242   4.117  1.00  0.00     0.047 C 
HETATM    8  C   UNL     1      40.546 -14.205   4.132  1.00  0.00     0.126 C 
ENDROOT
BRANCH   4   9
HETATM    9  C   UNL     1      40.905 -11.350   0.803  1.00  0.00     0.276 C 
BRANCH   9  10
HETATM   10  C   UNL     1      40.519 -11.686  -0.612  1.00  0.00     0.002 A 
HETATM   11  C   UNL     1      39.253 -12.211  -0.908  1.00  0.00     0.091 A 
HETATM   12  C   UNL     1      38.907 -12.568  -2.215  1.00  0.00     0.044 A 
HETATM   13 BR   UNL     1      37.197 -13.283  -2.602  1.00  0.00    -0.048 Br
HETATM   14  C   UNL     1      39.824 -12.401  -3.249  1.00  0.00     0.022 A 
HETATM   15  C   UNL     1      41.085 -11.877  -2.973  1.00  0.00     0.002 A 
HETATM   16  C   UNL     1      41.432 -11.521  -1.665  1.00  0.00     0.012 A 
BRANCH  11  17
HETATM   17  O   UNL     1      38.363 -12.365   0.125  1.00  0.00    -0.359 OA
HETATM   18  H   UNL     1      38.102 -11.467   0.416  1.00  0.00     0.218 HD
ENDBRANCH  11  17
ENDBRANCH   9  10
ENDBRANCH   4   9
BRANCH   1  19
HETATM   19  C   UNL     1      41.657 -16.250   3.404  1.00  0.00     0.147 A 
HETATM   20  N   UNL     1      42.064 -16.460   4.674  1.00  0.00    -0.132 NA
HETATM   21  N   UNL     1      43.031 -17.393   4.971  1.00  0.00    -0.153 NA
HETATM   22  C   UNL     1      43.602 -18.110   3.983  1.00  0.00     0.053 A 
HETATM   23  C   UNL     1      44.685 -19.075   4.346  1.00  0.00     0.072 C 
HETATM   24  C   UNL     1      43.214 -17.933   2.667  1.00  0.00     0.032 A 
HETATM   25  C   UNL     1      42.228 -16.993   2.379  1.00  0.00     0.054 A 
ENDBRANCH   1  19
TORSDOF 4
ENDMDL
MODEL 7
REMARK VINA RESULT:      -7.2      2.373      2.818
REMARK  4 active torsions:
REMARK  status: ('A' for Active; 'I' for Inactive)
REMARK    1  A    between atoms: C_5  and  N_6 
REMARK    2  A    between atoms: N_9  and  C_11 
REMARK    3  A    between atoms: C_11  and  C_12 
REMARK    4  A    between atoms: C_13  and  O_14 
ROOT
HETATM    1  N   UNL     1      40.921 -13.690   6.000  1.00  0.00    -0.363 N 
HETATM    2  C   UNL     1      40.747 -12.233   6.061  1.00  0.00     0.152 C 
HETATM    3  C   UNL     1      42.006 -11.422   5.696  1.00  0.00     0.255 C 
HETATM    4  N   UNL     1      43.059 -11.606   6.784  1.00  0.00    -0.066 N 
HETATM    5  H   UNL     1      42.544 -11.875   7.629  1.00  0.00     0.280 HD
HETATM    6  C   UNL     1      44.026 -12.731   6.528  1.00  0.00     0.237 C 
HETATM    7  C   UNL     1      43.372 -14.046   6.115  1.00  0.00     0.047 C 
HETATM    8  C   UNL     1      42.009 -14.337   6.739  1.00  0.00     0.126 C 
ENDROOT
BRANCH   4   9
HETATM    9  C   UNL     1      43.740 -10.319   7.217  1.00  0.00     0.276 C 
BRANCH   9  10
HETATM   10  C   UNL     1      43.775 -10.017   8.689  1.00  0.00     0.002 A 
HETATM   11  C   UNL     1      42.597  -9.726   9.393  1.00  0.00     0.091 A 
HETATM   12  C   UNL     1      42.630  -9.398  10.753  1.00  0.00     0.044 A 
HETATM   13 BR   UNL     1      41.034  -9.002  11.691  1.00  0.00    -0.048 Br
HETATM   14  C   UNL     1      43.845  -9.359  11.430  1.00  0.00     0.022 A 
HETATM   15  C   UNL     1      45.025  -9.649  10.747  1.00  0.00     0.002 A 
HETATM   16  C   UNL     1      44.992  -9.976   9.387  1.00  0.00     0.012 A 
BRANCH  11  17
HETATM   17  O   UNL     1      41.410  -9.772   8.707  1.00  0.00    -0.359 OA
HETATM   18  H   UNL     1      41.592  -9.457   7.798  1.00  0.00     0.218 HD
ENDBRANCH  11  17
ENDBRANCH   9  10
ENDBRANCH   4   9
BRANCH   1  19
HETATM   19  C   UNL     1      40.607 -14.245   4.746  1.00  0.00     0.147 A 
HETATM   20  N   UNL     1      40.848 -15.552   4.508  1.00  0.00    -0.132 NA
HETATM   21  N   UNL     1      40.581 -16.118   3.283  1.00  0.00    -0.153 NA
HETATM   22  C   UNL     1      40.081 -15.362   2.285  1.00  0.00     0.053 A 
HETATM   23  C   UNL     1      39.856 -16.007   0.955  1.00  0.00     0.072 C 
HETATM   24  C   UNL     1      39.813 -14.019   2.483  1.00  0.00     0.032 A 
HETATM   25  C   UNL     1      40.077 -13.459   3.731  1.00  0.00     0.054 A 
ENDBRANCH   1  19
TORSDOF 4
ENDMDL
MODEL 8
REMARK VINA RESULT:      -6.9     17.080     19.182
REMARK  4 active torsions:
REMARK  status: ('A' for Active; 'I' for Inactive)
REMARK    1  A    between atoms: C_5  and  N_6 
REMARK    2  A    between atoms: N_9  and  C_11 
REMARK    3  A    between atoms: C_11  and  C_12 
REMARK    4  A    between atoms: C_13  and  O_14 
ROOT
HETATM    1  N   UNL     1      48.080 -31.037   2.153  1.00  0.00    -0.363 N 
HETATM    2  C   UNL     1      48.631 -31.154   0.797  1.00  0.00     0.152 C 
HETATM    3  C   UNL     1      48.998 -29.810   0.136  1.00  0.00     0.255 C 
HETATM    4  N   UNL     1      47.722 -29.032  -0.167  1.00  0.00    -0.066 N 
HETATM    5  H   UNL     1      46.974 -29.731  -0.225  1.00  0.00     0.280 HD
HETATM    6  C   UNL     1      47.300 -28.083   0.924  1.00  0.00     0.237 C 
HETATM    7  C   UNL     1      47.301 -28.689   2.325  1.00  0.00     0.047 C 
HETATM    8  C   UNL     1      46.928 -30.167   2.410  1.00  0.00     0.126 C 
ENDROOT
BRANCH   4   9
HETATM    9  C   UNL     1      47.687 -28.404  -1.550  1.00  0.00     0.276 C 
BRANCH   9  10
HETATM   10  C   UNL     1      46.598 -28.854  -2.485  1.00  0.00     0.002 A 
HETATM   11  C   UNL     1      46.629 -30.130  -3.066  1.00  0.00     0.091 A 
HETATM   12  C   UNL     1      45.643 -30.535  -3.973  1.00  0.00     0.044 A 
HETATM   13 BR   UNL     1      45.698 -32.258  -4.755  1.00  0.00    -0.048 Br
HETATM   14  C   UNL     1      44.609 -29.667  -4.310  1.00  0.00     0.022 A 
HETATM   15  C   UNL     1      44.562 -28.396  -3.740  1.00  0.00     0.002 A 
HETATM   16  C   UNL     1      45.547 -27.991  -2.834  1.00  0.00     0.012 A 
BRANCH  11  17
HETATM   17  O   UNL     1      47.655 -30.970  -2.718  1.00  0.00    -0.359 OA
HETATM   18  H   UNL     1      48.102 -30.573  -1.942  1.00  0.00     0.218 HD
ENDBRANCH  11  17
ENDBRANCH   9  10
ENDBRANCH   4   9
BRANCH   1  19
HETATM   19  C   UNL     1      49.054 -31.093   3.167  1.00  0.00     0.147 A 
HETATM   20  N   UNL     1      50.268 -30.540   2.965  1.00  0.00    -0.132 NA
HETATM   21  N   UNL     1      51.253 -30.606   3.924  1.00  0.00    -0.153 NA
HETATM   22  C   UNL     1      51.019 -31.243   5.088  1.00  0.00     0.053 A 
HETATM   23  C   UNL     1      52.135 -31.336   6.079  1.00  0.00     0.072 C 
HETATM   24  C   UNL     1      49.788 -31.821   5.342  1.00  0.00     0.032 A 
HETATM   25  C   UNL     1      48.795 -31.739   4.369  1.00  0.00     0.054 A 
ENDBRANCH   1  19
TORSDOF 4
ENDMDL
MODEL 9
REMARK VINA RESULT:      -6.9      5.360      7.187
REMARK  4 active torsions:
REMARK  status: ('A' for Active; 'I' for Inactive)
REMARK    1  A    between atoms: C_5  and  N_6 
REMARK    2  A    between atoms: N_9  and  C_11 
REMARK    3  A    between atoms: C_11  and  C_12 
REMARK    4  A    between atoms: C_13  and  O_14 
ROOT
HETATM    1  N   UNL     1      40.390 -15.329   2.824  1.00  0.00    -0.363 N 
HETATM    2  C   UNL     1      39.860 -15.608   1.483  1.00  0.00     0.152 C 
HETATM    3  C   UNL     1      40.580 -14.862   0.341  1.00  0.00     0.255 C 
HETATM    4  N   UNL     1      40.273 -13.371   0.440  1.00  0.00    -0.066 N 
HETATM    5  H   UNL     1      39.392 -13.301   0.960  1.00  0.00     0.280 HD
HETATM    6  C   UNL     1      41.275 -12.582   1.239  1.00  0.00     0.237 C 
HETATM    7  C   UNL     1      41.636 -13.198   2.588  1.00  0.00     0.047 C 
HETATM    8  C   UNL     1      40.511 -13.947   3.298  1.00  0.00     0.126 C 
ENDROOT
BRANCH   4   9
HETATM    9  C   UNL     1      39.918 -12.719  -0.885  1.00  0.00     0.276 C 
BRANCH   9  10
HETATM   10  C   UNL     1      39.343 -11.330  -0.840  1.00  0.00     0.002 A 
HETATM   11  C   UNL     1      38.090 -11.087  -0.259  1.00  0.00     0.091 A 
HETATM   12  C   UNL     1      37.531  -9.805  -0.257  1.00  0.00     0.044 A 
HETATM   13 BR   UNL     1      35.835  -9.491   0.525  1.00  0.00    -0.048 Br
HETATM   14  C   UNL     1      38.221  -8.743  -0.834  1.00  0.00     0.022 A 
HETATM   15  C   UNL     1      39.469  -8.966  -1.412  1.00  0.00     0.002 A 
HETATM   16  C   UNL     1      40.028 -10.248  -1.416  1.00  0.00     0.012 A 
BRANCH  11  17
HETATM   17  O   UNL     1      37.428 -12.147   0.306  1.00  0.00    -0.359 OA
HETATM   18  H   UNL     1      37.329 -11.949   1.261  1.00  0.00     0.218 HD
ENDBRANCH  11  17
ENDBRANCH   9  10
ENDBRANCH   4   9
BRANCH   1  19
HETATM   19  C   UNL     1      41.406 -16.215   3.226  1.00  0.00     0.147 A 
HETATM   20  N   UNL     1      41.774 -16.274   4.523  1.00  0.00    -0.132 NA
HETATM   21  N   UNL     1      42.786 -17.106   4.944  1.00  0.00    -0.153 NA
HETATM   22  C   UNL     1      43.441 -17.874   4.051  1.00  0.00     0.053 A 
HETATM   23  C   UNL     1      44.569 -18.725   4.545  1.00  0.00     0.072 C 
HETATM   24  C   UNL     1      43.097 -17.852   2.712  1.00  0.00     0.032 A 
HETATM   25  C   UNL     1      42.065 -17.013   2.299  1.00  0.00     0.054 A 
ENDBRANCH   1  19
TORSDOF 4
ENDMDL
MODEL 10
REMARK VINA RESULT:      -6.9      5.914      8.341
REMARK  4 active torsions:
REMARK  status: ('A' for Active; 'I' for Inactive)
REMARK    1  A    between atoms: C_5  and  N_6 
REMARK    2  A    between atoms: N_9  and  C_11 
REMARK    3  A    between atoms: C_11  and  C_12 
REMARK    4  A    between atoms: C_13  and  O_14 
ROOT
HETATM    1  N   UNL     1      40.175 -14.805   3.374  1.00  0.00    -0.363 N 
HETATM    2  C   UNL     1      39.795 -15.719   2.289  1.00  0.00     0.152 C 
HETATM    3  C   UNL     1      40.483 -15.433   0.939  1.00  0.00     0.255 C 
HETATM    4  N   UNL     1      39.956 -14.119   0.372  1.00  0.00    -0.066 N 
HETATM    5  H   UNL     1      39.037 -13.976   0.805  1.00  0.00     0.280 HD
HETATM    6  C   UNL     1      40.769 -12.909   0.748  1.00  0.00     0.237 C 
HETATM    7  C   UNL     1      41.111 -12.813   2.232  1.00  0.00     0.047 C 
HETATM    8  C   UNL     1      40.057 -13.355   3.194  1.00  0.00     0.126 C 
ENDROOT
BRANCH   4   9
HETATM    9  C   UNL     1      39.612 -14.171  -1.107  1.00  0.00     0.276 C 
BRANCH   9  10
HETATM   10  C   UNL     1      39.125 -12.901  -1.749  1.00  0.00     0.002 A 
HETATM   11  C   UNL     1      39.998 -12.082  -2.479  1.00  0.00     0.091 A 
HETATM   12  C   UNL     1      39.559 -10.876  -3.038  1.00  0.00     0.044 A 
HETATM   13 BR   UNL     1      40.749  -9.775  -4.016  1.00  0.00    -0.048 Br
HETATM   14  C   UNL     1      38.237 -10.474  -2.876  1.00  0.00     0.022 A 
HETATM   15  C   UNL     1      37.355 -11.278  -2.156  1.00  0.00     0.002 A 
HETATM   16  C   UNL     1      37.794 -12.483  -1.597  1.00  0.00     0.012 A 
BRANCH  11  17
HETATM   17  O   UNL     1      41.296 -12.498  -2.628  1.00  0.00    -0.359 OA
HETATM   18  H   UNL     1      41.456 -12.602  -3.589  1.00  0.00     0.218 HD
ENDBRANCH  11  17
ENDBRANCH   9  10
ENDBRANCH   4   9
BRANCH   1  19
HETATM   19  C   UNL     1      41.275 -15.250   4.128  1.00  0.00     0.147 A 
HETATM   20  N   UNL     1      41.722 -14.513   5.167  1.00  0.00    -0.132 NA
HETATM   21  N   UNL     1      42.815 -14.904   5.905  1.00  0.00    -0.153 NA
HETATM   22  C   UNL     1      43.472 -16.038   5.588  1.00  0.00     0.053 A 
HETATM   23  C   UNL     1      44.686 -16.397   6.385  1.00  0.00     0.072 C 
HETATM   24  C   UNL     1      43.048 -16.829   4.536  1.00  0.00     0.032 A 
HETATM   25  C   UNL     1      41.934 -16.428   3.802  1.00  0.00     0.054 A 
ENDBRANCH   1  19
TORSDOF 4
ENDMDL
