MODEL 1
REMARK VINA RESULT:      -8.3      0.000      0.000
REMARK  6 active torsions:
REMARK  status: ('A' for Active; 'I' for Inactive)
REMARK    1  A    between atoms: C_2  and  O_3 
REMARK    2  A    between atoms: O_3  and  C_4 
REMARK    3  A    between atoms: C_7  and  C_8 
REMARK    4  A    between atoms: C_8  and  N_9 
REMARK       I    between atoms: N_9  and  C_10 
REMARK    5  A    between atoms: C_10  and  C_11 
REMARK    6  A    between atoms: C_15  and  C_16 
ROOT
HETATM    1  N   UNL     1      44.286 -12.798   6.881  1.00  0.00    -0.347 N 
HETATM    2  C   UNL     1      43.306 -13.395   6.116  1.00  0.00     0.272 C 
HETATM    3  O   UNL     1      42.484 -12.768   5.453  1.00  0.00    -0.266 OA
HETATM    4  H   UNL     1      44.956 -13.438   7.295  1.00  0.00     0.163 HD
ENDROOT
BRANCH   2   5
HETATM    5  C   UNL     1      43.369 -14.864   6.108  1.00  0.00     0.146 A 
HETATM    6  N   UNL     1      43.514 -15.595   7.231  1.00  0.00    -0.169 NA
HETATM    7  N   UNL     1      43.597 -16.862   6.780  1.00  0.00    -0.277 N 
HETATM    8  H   UNL     1      43.742 -17.601   7.459  1.00  0.00     0.189 HD
HETATM    9  C   UNL     1      43.522 -16.990   5.417  1.00  0.00     0.063 A 
HETATM   10  C   UNL     1      43.353 -15.697   4.961  1.00  0.00     0.071 A 
BRANCH   9  11
HETATM   11  C   UNL     1      43.662 -18.255   4.694  1.00  0.00    -0.008 A 
HETATM   12  C   UNL     1      43.569 -18.319   3.297  1.00  0.00     0.014 A 
HETATM   13  C   UNL     1      43.694 -19.542   2.629  1.00  0.00     0.001 A 
HETATM   14  C   UNL     1      43.914 -20.714   3.348  1.00  0.00     0.000 A 
HETATM   15  C   UNL     1      44.015 -20.666   4.735  1.00  0.00     0.001 A 
HETATM   16  C   UNL     1      43.891 -19.444   5.402  1.00  0.00     0.014 A 
ENDBRANCH   9  11
ENDBRANCH   2   5
BRANCH   1  17
HETATM   17  C   UNL     1      44.609 -11.398   6.709  1.00  0.00     0.114 C 
HETATM   18  C   UNL     1      46.044 -11.231   6.195  1.00  0.00     0.037 C 
BRANCH  17  19
HETATM   19  C   UNL     1      44.403 -10.600   7.984  1.00  0.00    -0.036 A 
HETATM   20  C   UNL     1      43.155 -10.069   8.340  1.00  0.00     0.012 A 
HETATM   21  C   UNL     1      42.974  -9.418   9.569  1.00  0.00     0.037 A 
HETATM   22  C   UNL     1      44.037  -9.298  10.462  1.00  0.00     0.068 A 
HETATM   23  C   UNL     1      45.291  -9.790  10.100  1.00  0.00     0.037 A 
HETATM   24  C   UNL     1      45.474 -10.437   8.876  1.00  0.00     0.012 A 
BRANCH  22  25
HETATM   25  O   UNL     1      43.985  -8.724  11.702  1.00  0.00    -0.352 OA
BRANCH  25  26
HETATM   26  C   UNL     1      42.826  -8.998  12.489  1.00  0.00     0.171 C 
HETATM   27  C   UNL     1      42.813  -8.026  13.655  1.00  0.00     0.034 C 
ENDBRANCH  25  26
ENDBRANCH  22  25
ENDBRANCH  17  19
ENDBRANCH   1  17
TORSDOF 6
ENDMDL
MODEL 2
REMARK VINA RESULT:      -8.3      2.508      9.660
REMARK  6 active torsions:
REMARK  status: ('A' for Active; 'I' for Inactive)
REMARK    1  A    between atoms: C_2  and  O_3 
REMARK    2  A    between atoms: O_3  and  C_4 
REMARK    3  A    between atoms: C_7  and  C_8 
REMARK    4  A    between atoms: C_8  and  N_9 
REMARK       I    between atoms: N_9  and  C_10 
REMARK    5  A    between atoms: C_10  and  C_11 
REMARK    6  A    between atoms: C_15  and  C_16 
ROOT
HETATM    1  N   UNL     1      43.331 -12.539   5.162  1.00  0.00    -0.347 N 
HETATM    2  C   UNL     1      44.378 -11.643   5.228  1.00  0.00     0.272 C 
HETATM    3  O   UNL     1      44.996 -11.247   4.244  1.00  0.00    -0.266 OA
HETATM    4  H   UNL     1      42.849 -12.700   6.040  1.00  0.00     0.163 HD
ENDROOT
BRANCH   2   5
HETATM    5  C   UNL     1      44.651 -11.145   6.584  1.00  0.00     0.146 A 
HETATM    6  N   UNL     1      45.878 -11.179   7.141  1.00  0.00    -0.169 NA
HETATM    7  N   UNL     1      45.676 -10.706   8.387  1.00  0.00    -0.277 N 
HETATM    8  H   UNL     1      46.471 -10.666   9.015  1.00  0.00     0.189 HD
HETATM    9  C   UNL     1      44.376 -10.376   8.670  1.00  0.00     0.063 A 
HETATM   10  C   UNL     1      43.695 -10.637   7.498  1.00  0.00     0.071 A 
BRANCH   9  11
HETATM   11  C   UNL     1      43.905  -9.913   9.976  1.00  0.00    -0.008 A 
HETATM   12  C   UNL     1      43.653 -10.806  11.027  1.00  0.00     0.014 A 
HETATM   13  C   UNL     1      43.190 -10.341  12.263  1.00  0.00     0.001 A 
HETATM   14  C   UNL     1      42.975  -8.980  12.464  1.00  0.00     0.000 A 
HETATM   15  C   UNL     1      43.226  -8.080  11.433  1.00  0.00     0.001 A 
HETATM   16  C   UNL     1      43.689  -8.545  10.199  1.00  0.00     0.014 A 
ENDBRANCH   9  11
ENDBRANCH   2   5
BRANCH   1  17
HETATM   17  C   UNL     1      42.688 -12.836   3.900  1.00  0.00     0.114 C 
HETATM   18  C   UNL     1      41.202 -12.460   3.948  1.00  0.00     0.037 C 
BRANCH  17  19
HETATM   19  C   UNL     1      42.858 -14.289   3.496  1.00  0.00    -0.036 A 
HETATM   20  C   UNL     1      42.557 -15.347   4.366  1.00  0.00     0.012 A 
HETATM   21  C   UNL     1      42.635 -16.679   3.933  1.00  0.00     0.037 A 
HETATM   22  C   UNL     1      43.007 -16.969   2.621  1.00  0.00     0.068 A 
HETATM   23  C   UNL     1      43.345 -15.924   1.762  1.00  0.00     0.037 A 
HETATM   24  C   UNL     1      43.269 -14.597   2.191  1.00  0.00     0.012 A 
BRANCH  22  25
HETATM   25  O   UNL     1      43.084 -18.215   2.064  1.00  0.00    -0.352 OA
BRANCH  25  26
HETATM   26  C   UNL     1      43.890 -19.175   2.745  1.00  0.00     0.171 C 
HETATM   27  C   UNL     1      43.699 -20.516   2.059  1.00  0.00     0.034 C 
ENDBRANCH  25  26
ENDBRANCH  22  25
ENDBRANCH  17  19
ENDBRANCH   1  17
TORSDOF 6
ENDMDL
MODEL 3
REMARK VINA RESULT:      -8.3      2.015      9.804
REMARK  6 active torsions:
REMARK  status: ('A' for Active; 'I' for Inactive)
REMARK    1  A    between atoms: C_2  and  O_3 
REMARK    2  A    between atoms: O_3  and  C_4 
REMARK    3  A    between atoms: C_7  and  C_8 
REMARK    4  A    between atoms: C_8  and  N_9 
REMARK       I    between atoms: N_9  and  C_10 
REMARK    5  A    between atoms: C_10  and  C_11 
REMARK    6  A    between atoms: C_15  and  C_16 
ROOT
HETATM    1  N   UNL     1      43.283 -12.543   7.215  1.00  0.00    -0.347 N 
HETATM    2  C   UNL     1      44.112 -11.440   7.239  1.00  0.00     0.272 C 
HETATM    3  O   UNL     1      44.635 -10.961   6.237  1.00  0.00    -0.266 OA
HETATM    4  H   UNL     1      42.844 -12.768   8.101  1.00  0.00     0.163 HD
ENDROOT
BRANCH   2   5
HETATM    5  C   UNL     1      44.266 -10.840   8.573  1.00  0.00     0.146 A 
HETATM    6  N   UNL     1      45.441 -10.817   9.233  1.00  0.00    -0.169 NA
HETATM    7  N   UNL     1      45.130 -10.256  10.418  1.00  0.00    -0.277 N 
HETATM    8  H   UNL     1      45.868 -10.160  11.107  1.00  0.00     0.189 HD
HETATM    9  C   UNL     1      43.808  -9.923  10.565  1.00  0.00     0.063 A 
HETATM   10  C   UNL     1      43.231 -10.279   9.362  1.00  0.00     0.071 A 
BRANCH   9  11
HETATM   11  C   UNL     1      43.224  -9.371  11.788  1.00  0.00    -0.008 A 
HETATM   12  C   UNL     1      43.665  -8.157  12.334  1.00  0.00     0.014 A 
HETATM   13  C   UNL     1      43.099  -7.656  13.511  1.00  0.00     0.001 A 
HETATM   14  C   UNL     1      42.086  -8.361  14.157  1.00  0.00     0.000 A 
HETATM   15  C   UNL     1      41.632  -9.564  13.625  1.00  0.00     0.001 A 
HETATM   16  C   UNL     1      42.197 -10.064  12.448  1.00  0.00     0.014 A 
ENDBRANCH   9  11
ENDBRANCH   2   5
BRANCH   1  17
HETATM   17  C   UNL     1      42.726 -13.023   5.969  1.00  0.00     0.114 C 
HETATM   18  C   UNL     1      41.194 -13.004   6.018  1.00  0.00     0.037 C 
BRANCH  17  19
HETATM   19  C   UNL     1      43.231 -14.408   5.608  1.00  0.00    -0.036 A 
HETATM   20  C   UNL     1      43.987 -15.183   6.500  1.00  0.00     0.012 A 
HETATM   21  C   UNL     1      44.360 -16.495   6.174  1.00  0.00     0.037 A 
HETATM   22  C   UNL     1      43.974 -17.052   4.956  1.00  0.00     0.068 A 
HETATM   23  C   UNL     1      43.255 -16.275   4.049  1.00  0.00     0.037 A 
HETATM   24  C   UNL     1      42.884 -14.968   4.370  1.00  0.00     0.012 A 
BRANCH  22  25
HETATM   25  O   UNL     1      44.236 -18.326   4.535  1.00  0.00    -0.352 OA
BRANCH  25  26
HETATM   26  C   UNL     1      44.071 -18.589   3.142  1.00  0.00     0.171 C 
HETATM   27  C   UNL     1      43.769 -20.068   2.979  1.00  0.00     0.034 C 
ENDBRANCH  25  26
ENDBRANCH  22  25
ENDBRANCH  17  19
ENDBRANCH   1  17
TORSDOF 6
ENDMDL
MODEL 4
REMARK VINA RESULT:      -8.1      0.933      1.673
REMARK  6 active torsions:
REMARK  status: ('A' for Active; 'I' for Inactive)
REMARK    1  A    between atoms: C_2  and  O_3 
REMARK    2  A    between atoms: O_3  and  C_4 
REMARK    3  A    between atoms: C_7  and  C_8 
REMARK    4  A    between atoms: C_8  and  N_9 
REMARK       I    between atoms: N_9  and  C_10 
REMARK    5  A    between atoms: C_10  and  C_11 
REMARK    6  A    between atoms: C_15  and  C_16 
ROOT
HETATM    1  N   UNL     1      44.226 -12.278   7.337  1.00  0.00    -0.347 N 
HETATM    2  C   UNL     1      43.105 -12.668   6.634  1.00  0.00     0.272 C 
HETATM    3  O   UNL     1      42.272 -11.880   6.193  1.00  0.00    -0.266 OA
HETATM    4  H   UNL     1      44.877 -13.025   7.553  1.00  0.00     0.163 HD
ENDROOT
BRANCH   2   5
HETATM    5  C   UNL     1      43.024 -14.116   6.397  1.00  0.00     0.146 A 
HETATM    6  N   UNL     1      42.808 -15.008   7.385  1.00  0.00    -0.169 NA
HETATM    7  N   UNL     1      42.879 -16.200   6.761  1.00  0.00    -0.277 N 
HETATM    8  H   UNL     1      42.774 -17.038   7.322  1.00  0.00     0.189 HD
HETATM    9  C   UNL     1      43.139 -16.127   5.416  1.00  0.00     0.063 A 
HETATM   10  C   UNL     1      43.218 -14.774   5.156  1.00  0.00     0.071 A 
BRANCH   9  11
HETATM   11  C   UNL     1      43.333 -17.288   4.546  1.00  0.00    -0.008 A 
HETATM   12  C   UNL     1      43.972 -18.451   5.000  1.00  0.00     0.014 A 
HETATM   13  C   UNL     1      44.157 -19.543   4.146  1.00  0.00     0.001 A 
HETATM   14  C   UNL     1      43.706 -19.487   2.829  1.00  0.00     0.000 A 
HETATM   15  C   UNL     1      43.064 -18.343   2.365  1.00  0.00     0.001 A 
HETATM   16  C   UNL     1      42.879 -17.253   3.219  1.00  0.00     0.014 A 
ENDBRANCH   9  11
ENDBRANCH   2   5
BRANCH   1  17
HETATM   17  C   UNL     1      44.659 -10.897   7.335  1.00  0.00     0.114 C 
HETATM   18  C   UNL     1      46.180 -10.807   7.166  1.00  0.00     0.037 C 
BRANCH  17  19
HETATM   19  C   UNL     1      44.215 -10.154   8.582  1.00  0.00    -0.036 A 
HETATM   20  C   UNL     1      44.892 -10.274   9.805  1.00  0.00     0.012 A 
HETATM   21  C   UNL     1      44.515  -9.504  10.914  1.00  0.00     0.037 A 
HETATM   22  C   UNL     1      43.462  -8.596  10.813  1.00  0.00     0.068 A 
HETATM   23  C   UNL     1      42.760  -8.498   9.611  1.00  0.00     0.037 A 
HETATM   24  C   UNL     1      43.132  -9.266   8.505  1.00  0.00     0.012 A 
BRANCH  22  25
HETATM   25  O   UNL     1      43.022  -7.761  11.801  1.00  0.00    -0.352 OA
BRANCH  25  26
HETATM   26  C   UNL     1      43.004  -8.288  13.127  1.00  0.00     0.171 C 
HETATM   27  C   UNL     1      43.125  -7.123  14.094  1.00  0.00     0.034 C 
ENDBRANCH  25  26
ENDBRANCH  22  25
ENDBRANCH  17  19
ENDBRANCH   1  17
TORSDOF 6
ENDMDL
MODEL 5
REMARK VINA RESULT:      -7.8      2.689      9.504
REMARK  6 active torsions:
REMARK  status: ('A' for Active; 'I' for Inactive)
REMARK    1  A    between atoms: C_2  and  O_3 
REMARK    2  A    between atoms: O_3  and  C_4 
REMARK    3  A    between atoms: C_7  and  C_8 
REMARK    4  A    between atoms: C_8  and  N_9 
REMARK       I    between atoms: N_9  and  C_10 
REMARK    5  A    between atoms: C_10  and  C_11 
REMARK    6  A    between atoms: C_15  and  C_16 
ROOT
HETATM    1  N   UNL     1      42.762 -12.824   4.029  1.00  0.00    -0.347 N 
HETATM    2  C   UNL     1      43.565 -11.728   4.270  1.00  0.00     0.272 C 
HETATM    3  O   UNL     1      44.504 -11.403   3.548  1.00  0.00    -0.266 OA
HETATM    4  H   UNL     1      41.965 -12.915   4.651  1.00  0.00     0.163 HD
ENDROOT
BRANCH   2   5
HETATM    5  C   UNL     1      43.157 -10.935   5.439  1.00  0.00     0.146 A 
HETATM    6  N   UNL     1      42.253  -9.938   5.366  1.00  0.00    -0.169 NA
HETATM    7  N   UNL     1      42.227  -9.439   6.618  1.00  0.00    -0.277 N 
HETATM    8  H   UNL     1      41.625  -8.644   6.800  1.00  0.00     0.189 HD
HETATM    9  C   UNL     1      43.077 -10.057   7.498  1.00  0.00     0.063 A 
HETATM   10  C   UNL     1      43.679 -11.050   6.752  1.00  0.00     0.071 A 
BRANCH   9  11
HETATM   11  C   UNL     1      43.275  -9.643   8.888  1.00  0.00    -0.008 A 
HETATM   12  C   UNL     1      42.254  -9.030   9.627  1.00  0.00     0.014 A 
HETATM   13  C   UNL     1      42.471  -8.631  10.950  1.00  0.00     0.001 A 
HETATM   14  C   UNL     1      43.710  -8.841  11.551  1.00  0.00     0.000 A 
HETATM   15  C   UNL     1      44.732  -9.454  10.833  1.00  0.00     0.001 A 
HETATM   16  C   UNL     1      44.514  -9.853   9.512  1.00  0.00     0.014 A 
ENDBRANCH   9  11
ENDBRANCH   2   5
BRANCH   1  17
HETATM   17  C   UNL     1      42.777 -13.486   2.743  1.00  0.00     0.114 C 
HETATM   18  C   UNL     1      41.508 -13.155   1.948  1.00  0.00     0.037 C 
BRANCH  17  19
HETATM   19  C   UNL     1      42.950 -14.988   2.871  1.00  0.00    -0.036 A 
HETATM   20  C   UNL     1      43.086 -15.824   1.753  1.00  0.00     0.012 A 
HETATM   21  C   UNL     1      43.338 -17.194   1.906  1.00  0.00     0.037 A 
HETATM   22  C   UNL     1      43.467 -17.746   3.179  1.00  0.00     0.068 A 
HETATM   23  C   UNL     1      43.296 -16.929   4.296  1.00  0.00     0.037 A 
HETATM   24  C   UNL     1      43.043 -15.564   4.147  1.00  0.00     0.012 A 
BRANCH  22  25
HETATM   25  O   UNL     1      43.751 -19.052   3.465  1.00  0.00    -0.352 OA
BRANCH  25  26
HETATM   26  C   UNL     1      44.403 -19.312   4.707  1.00  0.00     0.171 C 
HETATM   27  C   UNL     1      43.941 -20.670   5.203  1.00  0.00     0.034 C 
ENDBRANCH  25  26
ENDBRANCH  22  25
ENDBRANCH  17  19
ENDBRANCH   1  17
TORSDOF 6
ENDMDL
MODEL 6
REMARK VINA RESULT:      -7.8      2.424     10.114
REMARK  6 active torsions:
REMARK  status: ('A' for Active; 'I' for Inactive)
REMARK    1  A    between atoms: C_2  and  O_3 
REMARK    2  A    between atoms: O_3  and  C_4 
REMARK    3  A    between atoms: C_7  and  C_8 
REMARK    4  A    between atoms: C_8  and  N_9 
REMARK       I    between atoms: N_9  and  C_10 
REMARK    5  A    between atoms: C_10  and  C_11 
REMARK    6  A    between atoms: C_15  and  C_16 
ROOT
HETATM    1  N   UNL     1      43.734 -11.789   7.926  1.00  0.00    -0.347 N 
HETATM    2  C   UNL     1      44.445 -11.022   8.825  1.00  0.00     0.272 C 
HETATM    3  O   UNL     1      45.672 -10.962   8.845  1.00  0.00    -0.266 OA
HETATM    4  H   UNL     1      42.727 -11.665   7.960  1.00  0.00     0.163 HD
ENDROOT
BRANCH   2   5
HETATM    5  C   UNL     1      43.602 -10.221   9.724  1.00  0.00     0.146 A 
HETATM    6  N   UNL     1      42.621  -9.411   9.277  1.00  0.00    -0.169 NA
HETATM    7  N   UNL     1      42.157  -8.823  10.398  1.00  0.00    -0.277 N 
HETATM    8  H   UNL     1      41.418  -8.136  10.303  1.00  0.00     0.189 HD
HETATM    9  C   UNL     1      42.795  -9.205  11.550  1.00  0.00     0.063 A 
HETATM   10  C   UNL     1      43.729 -10.132  11.133  1.00  0.00     0.071 A 
BRANCH   9  11
HETATM   11  C   UNL     1      42.515  -8.648  12.875  1.00  0.00    -0.008 A 
HETATM   12  C   UNL     1      41.504  -9.169  13.694  1.00  0.00     0.014 A 
HETATM   13  C   UNL     1      41.247  -8.612  14.952  1.00  0.00     0.001 A 
HETATM   14  C   UNL     1      41.997  -7.530  15.405  1.00  0.00     0.000 A 
HETATM   15  C   UNL     1      43.008  -7.005  14.606  1.00  0.00     0.001 A 
HETATM   16  C   UNL     1      43.265  -7.562  13.350  1.00  0.00     0.014 A 
ENDBRANCH   9  11
ENDBRANCH   2   5
BRANCH   1  17
HETATM   17  C   UNL     1      44.373 -12.334   6.747  1.00  0.00     0.114 C 
HETATM   18  C   UNL     1      44.685 -11.223   5.738  1.00  0.00     0.037 C 
BRANCH  17  19
HETATM   19  C   UNL     1      43.545 -13.428   6.099  1.00  0.00    -0.036 A 
HETATM   20  C   UNL     1      42.570 -13.153   5.128  1.00  0.00     0.012 A 
HETATM   21  C   UNL     1      41.888 -14.192   4.479  1.00  0.00     0.037 A 
HETATM   22  C   UNL     1      42.177 -15.520   4.785  1.00  0.00     0.068 A 
HETATM   23  C   UNL     1      43.119 -15.801   5.776  1.00  0.00     0.037 A 
HETATM   24  C   UNL     1      43.798 -14.769   6.425  1.00  0.00     0.012 A 
BRANCH  22  25
HETATM   25  O   UNL     1      41.616 -16.621   4.201  1.00  0.00    -0.352 OA
BRANCH  25  26
HETATM   26  C   UNL     1      41.714 -16.715   2.780  1.00  0.00     0.171 C 
HETATM   27  C   UNL     1      42.906 -17.595   2.451  1.00  0.00     0.034 C 
ENDBRANCH  25  26
ENDBRANCH  22  25
ENDBRANCH  17  19
ENDBRANCH   1  17
TORSDOF 6
ENDMDL
MODEL 7
REMARK VINA RESULT:      -7.6      2.646      3.652
REMARK  6 active torsions:
REMARK  status: ('A' for Active; 'I' for Inactive)
REMARK    1  A    between atoms: C_2  and  O_3 
REMARK    2  A    between atoms: O_3  and  C_4 
REMARK    3  A    between atoms: C_7  and  C_8 
REMARK    4  A    between atoms: C_8  and  N_9 
REMARK       I    between atoms: N_9  and  C_10 
REMARK    5  A    between atoms: C_10  and  C_11 
REMARK    6  A    between atoms: C_15  and  C_16 
ROOT
HETATM    1  N   UNL     1      41.455 -13.180   3.846  1.00  0.00    -0.347 N 
HETATM    2  C   UNL     1      42.641 -13.303   3.152  1.00  0.00     0.272 C 
HETATM    3  O   UNL     1      43.404 -12.365   2.939  1.00  0.00    -0.266 OA
HETATM    4  H   UNL     1      40.975 -14.054   4.032  1.00  0.00     0.163 HD
ENDROOT
BRANCH   2   5
HETATM    5  C   UNL     1      42.951 -14.681   2.743  1.00  0.00     0.146 A 
HETATM    6  N   UNL     1      42.963 -15.075   1.454  1.00  0.00    -0.169 NA
HETATM    7  N   UNL     1      43.215 -16.396   1.526  1.00  0.00    -0.277 N 
HETATM    8  H   UNL     1      43.243 -16.924   0.660  1.00  0.00     0.189 HD
HETATM    9  C   UNL     1      43.359 -16.883   2.799  1.00  0.00     0.063 A 
HETATM   10  C   UNL     1      43.209 -15.774   3.608  1.00  0.00     0.071 A 
BRANCH   9  11
HETATM   11  C   UNL     1      43.564 -18.294   3.129  1.00  0.00    -0.008 A 
HETATM   12  C   UNL     1      43.328 -19.311   2.194  1.00  0.00     0.014 A 
HETATM   13  C   UNL     1      43.519 -20.654   2.536  1.00  0.00     0.001 A 
HETATM   14  C   UNL     1      43.947 -20.997   3.816  1.00  0.00     0.000 A 
HETATM   15  C   UNL     1      44.192 -19.999   4.755  1.00  0.00     0.001 A 
HETATM   16  C   UNL     1      44.002 -18.658   4.412  1.00  0.00     0.014 A 
ENDBRANCH   9  11
ENDBRANCH   2   5
BRANCH   1  17
HETATM   17  C   UNL     1      41.177 -12.001   4.637  1.00  0.00     0.114 C 
HETATM   18  C   UNL     1      41.137 -10.751   3.750  1.00  0.00     0.037 C 
BRANCH  17  19
HETATM   19  C   UNL     1      42.173 -11.821   5.768  1.00  0.00    -0.036 A 
HETATM   20  C   UNL     1      42.861 -12.902   6.338  1.00  0.00     0.012 A 
HETATM   21  C   UNL     1      43.843 -12.694   7.317  1.00  0.00     0.037 A 
HETATM   22  C   UNL     1      44.157 -11.401   7.733  1.00  0.00     0.068 A 
HETATM   23  C   UNL     1      43.451 -10.323   7.198  1.00  0.00     0.037 A 
HETATM   24  C   UNL     1      42.471 -10.527   6.224  1.00  0.00     0.012 A 
BRANCH  22  25
HETATM   25  O   UNL     1      45.116 -11.060   8.645  1.00  0.00    -0.352 OA
BRANCH  25  26
HETATM   26  C   UNL     1      45.308  -9.666   8.884  1.00  0.00     0.171 C 
HETATM   27  C   UNL     1      46.485  -9.205   8.043  1.00  0.00     0.034 C 
ENDBRANCH  25  26
ENDBRANCH  22  25
ENDBRANCH  17  19
ENDBRANCH   1  17
TORSDOF 6
ENDMDL
MODEL 8
REMARK VINA RESULT:      -7.3      7.381      8.493
REMARK  6 active torsions:
REMARK  status: ('A' for Active; 'I' for Inactive)
REMARK    1  A    between atoms: C_2  and  O_3 
REMARK    2  A    between atoms: O_3  and  C_4 
REMARK    3  A    between atoms: C_7  and  C_8 
REMARK    4  A    between atoms: C_8  and  N_9 
REMARK       I    between atoms: N_9  and  C_10 
REMARK    5  A    between atoms: C_10  and  C_11 
REMARK    6  A    between atoms: C_15  and  C_16 
ROOT
HETATM    1  N   UNL     1      41.219 -13.343  -0.033  1.00  0.00    -0.347 N 
HETATM    2  C   UNL     1      40.726 -14.494   0.547  1.00  0.00     0.272 C 
HETATM    3  O   UNL     1      39.570 -14.884   0.407  1.00  0.00    -0.266 OA
HETATM    4  H   UNL     1      42.215 -13.196   0.087  1.00  0.00     0.163 HD
ENDROOT
BRANCH   2   5
HETATM    5  C   UNL     1      41.730 -15.257   1.303  1.00  0.00     0.146 A 
HETATM    6  N   UNL     1      42.968 -14.786   1.555  1.00  0.00    -0.169 NA
HETATM    7  N   UNL     1      43.574 -15.807   2.194  1.00  0.00    -0.277 N 
HETATM    8  H   UNL     1      44.545 -15.691   2.462  1.00  0.00     0.189 HD
HETATM    9  C   UNL     1      42.793 -16.921   2.361  1.00  0.00     0.063 A 
HETATM   10  C   UNL     1      41.579 -16.574   1.803  1.00  0.00     0.071 A 
BRANCH   9  11
HETATM   11  C   UNL     1      43.256 -18.175   2.958  1.00  0.00    -0.008 A 
HETATM   12  C   UNL     1      43.255 -19.378   2.239  1.00  0.00     0.014 A 
HETATM   13  C   UNL     1      43.690 -20.566   2.835  1.00  0.00     0.001 A 
HETATM   14  C   UNL     1      44.132 -20.567   4.156  1.00  0.00     0.000 A 
HETATM   15  C   UNL     1      44.145 -19.380   4.882  1.00  0.00     0.001 A 
HETATM   16  C   UNL     1      43.711 -18.193   4.285  1.00  0.00     0.014 A 
ENDBRANCH   9  11
ENDBRANCH   2   5
BRANCH   1  17
HETATM   17  C   UNL     1      40.496 -12.682  -1.098  1.00  0.00     0.114 C 
HETATM   18  C   UNL     1      40.744 -13.384  -2.438  1.00  0.00     0.037 C 
BRANCH  17  19
HETATM   19  C   UNL     1      40.839 -11.207  -1.197  1.00  0.00    -0.036 A 
HETATM   20  C   UNL     1      41.175 -10.441  -0.071  1.00  0.00     0.012 A 
HETATM   21  C   UNL     1      41.579  -9.105  -0.205  1.00  0.00     0.037 A 
HETATM   22  C   UNL     1      41.660  -8.519  -1.467  1.00  0.00     0.068 A 
HETATM   23  C   UNL     1      41.291  -9.263  -2.588  1.00  0.00     0.037 A 
HETATM   24  C   UNL     1      40.887 -10.593  -2.458  1.00  0.00     0.012 A 
BRANCH  22  25
HETATM   25  O   UNL     1      42.074  -7.245  -1.738  1.00  0.00    -0.352 OA
BRANCH  25  26
HETATM   26  C   UNL     1      43.215  -6.774  -1.021  1.00  0.00     0.171 C 
HETATM   27  C   UNL     1      43.817  -5.622  -1.806  1.00  0.00     0.034 C 
ENDBRANCH  25  26
ENDBRANCH  22  25
ENDBRANCH  17  19
ENDBRANCH   1  17
TORSDOF 6
ENDMDL
MODEL 9
REMARK VINA RESULT:      -7.3      7.197     10.776
REMARK  6 active torsions:
REMARK  status: ('A' for Active; 'I' for Inactive)
REMARK    1  A    between atoms: C_2  and  O_3 
REMARK    2  A    between atoms: O_3  and  C_4 
REMARK    3  A    between atoms: C_7  and  C_8 
REMARK    4  A    between atoms: C_8  and  N_9 
REMARK       I    between atoms: N_9  and  C_10 
REMARK    5  A    between atoms: C_10  and  C_11 
REMARK    6  A    between atoms: C_15  and  C_16 
ROOT
HETATM    1  N   UNL     1      40.637 -13.785   0.793  1.00  0.00    -0.347 N 
HETATM    2  C   UNL     1      40.142 -13.957  -0.483  1.00  0.00     0.272 C 
HETATM    3  O   UNL     1      39.452 -14.915  -0.821  1.00  0.00    -0.266 OA
HETATM    4  H   UNL     1      41.107 -12.901   0.955  1.00  0.00     0.163 HD
ENDROOT
BRANCH   2   5
HETATM    5  C   UNL     1      40.460 -12.852  -1.399  1.00  0.00     0.146 A 
HETATM    6  N   UNL     1      40.466 -12.992  -2.739  1.00  0.00    -0.169 NA
HETATM    7  N   UNL     1      40.871 -11.786  -3.185  1.00  0.00    -0.277 N 
HETATM    8  H   UNL     1      40.980 -11.660  -4.185  1.00  0.00     0.189 HD
HETATM    9  C   UNL     1      41.138 -10.871  -2.199  1.00  0.00     0.063 A 
HETATM   10  C   UNL     1      40.856 -11.543  -1.026  1.00  0.00     0.071 A 
BRANCH   9  11
HETATM   11  C   UNL     1      41.659  -9.525  -2.437  1.00  0.00    -0.008 A 
HETATM   12  C   UNL     1      42.453  -8.864  -1.489  1.00  0.00     0.014 A 
HETATM   13  C   UNL     1      42.930  -7.572  -1.734  1.00  0.00     0.001 A 
HETATM   14  C   UNL     1      42.620  -6.925  -2.928  1.00  0.00     0.000 A 
HETATM   15  C   UNL     1      41.839  -7.570  -3.882  1.00  0.00     0.001 A 
HETATM   16  C   UNL     1      41.363  -8.861  -3.637  1.00  0.00     0.014 A 
ENDBRANCH   9  11
ENDBRANCH   2   5
BRANCH   1  17
HETATM   17  C   UNL     1      40.119 -14.560   1.900  1.00  0.00     0.114 C 
HETATM   18  C   UNL     1      39.576 -13.640   2.999  1.00  0.00     0.037 C 
BRANCH  17  19
HETATM   19  C   UNL     1      41.153 -15.516   2.465  1.00  0.00    -0.036 A 
HETATM   20  C   UNL     1      42.204 -16.027   1.689  1.00  0.00     0.012 A 
HETATM   21  C   UNL     1      43.197 -16.833   2.263  1.00  0.00     0.037 A 
HETATM   22  C   UNL     1      43.158 -17.132   3.624  1.00  0.00     0.068 A 
HETATM   23  C   UNL     1      42.096 -16.659   4.395  1.00  0.00     0.037 A 
HETATM   24  C   UNL     1      41.104 -15.858   3.825  1.00  0.00     0.012 A 
BRANCH  22  25
HETATM   25  O   UNL     1      44.080 -17.869   4.312  1.00  0.00    -0.352 OA
BRANCH  25  26
HETATM   26  C   UNL     1      44.269 -19.220   3.890  1.00  0.00     0.171 C 
HETATM   27  C   UNL     1      44.194 -20.109   5.118  1.00  0.00     0.034 C 
ENDBRANCH  25  26
ENDBRANCH  22  25
ENDBRANCH  17  19
ENDBRANCH   1  17
TORSDOF 6
ENDMDL
MODEL 10
REMARK VINA RESULT:      -7.2      2.430      2.899
REMARK  6 active torsions:
REMARK  status: ('A' for Active; 'I' for Inactive)
REMARK    1  A    between atoms: C_2  and  O_3 
REMARK    2  A    between atoms: O_3  and  C_4 
REMARK    3  A    between atoms: C_7  and  C_8 
REMARK    4  A    between atoms: C_8  and  N_9 
REMARK       I    between atoms: N_9  and  C_10 
REMARK    5  A    between atoms: C_10  and  C_11 
REMARK    6  A    between atoms: C_15  and  C_16 
ROOT
HETATM    1  N   UNL     1      41.060 -11.826   6.421  1.00  0.00    -0.347 N 
HETATM    2  C   UNL     1      40.018 -12.690   6.154  1.00  0.00     0.272 C 
HETATM    3  O   UNL     1      38.842 -12.339   6.096  1.00  0.00    -0.266 OA
HETATM    4  H   UNL     1      41.985 -12.234   6.340  1.00  0.00     0.163 HD
ENDROOT
BRANCH   2   5
HETATM    5  C   UNL     1      40.444 -14.070   5.878  1.00  0.00     0.146 A 
HETATM    6  N   UNL     1      40.065 -15.118   6.636  1.00  0.00    -0.169 NA
HETATM    7  N   UNL     1      40.722 -16.161   6.091  1.00  0.00    -0.277 N 
HETATM    8  H   UNL     1      40.612 -17.071   6.523  1.00  0.00     0.189 HD
HETATM    9  C   UNL     1      41.518 -15.840   5.021  1.00  0.00     0.063 A 
HETATM   10  C   UNL     1      41.334 -14.482   4.854  1.00  0.00     0.071 A 
BRANCH   9  11
HETATM   11  C   UNL     1      42.380 -16.790   4.316  1.00  0.00    -0.008 A 
HETATM   12  C   UNL     1      42.222 -17.053   2.949  1.00  0.00     0.014 A 
HETATM   13  C   UNL     1      43.051 -17.975   2.300  1.00  0.00     0.001 A 
HETATM   14  C   UNL     1      44.047 -18.642   3.008  1.00  0.00     0.000 A 
HETATM   15  C   UNL     1      44.221 -18.387   4.365  1.00  0.00     0.001 A 
HETATM   16  C   UNL     1      43.393 -17.466   5.013  1.00  0.00     0.014 A 
ENDBRANCH   9  11
ENDBRANCH   2   5
BRANCH   1  17
HETATM   17  C   UNL     1      40.873 -10.393   6.343  1.00  0.00     0.114 C 
HETATM   18  C   UNL     1      41.812  -9.781   5.297  1.00  0.00     0.037 C 
BRANCH  17  19
HETATM   19  C   UNL     1      41.058  -9.716   7.689  1.00  0.00    -0.036 A 
HETATM   20  C   UNL     1      39.977  -9.428   8.535  1.00  0.00     0.012 A 
HETATM   21  C   UNL     1      40.187  -8.888   9.812  1.00  0.00     0.037 A 
HETATM   22  C   UNL     1      41.482  -8.637  10.263  1.00  0.00     0.068 A 
HETATM   23  C   UNL     1      42.560  -8.885   9.412  1.00  0.00     0.037 A 
HETATM   24  C   UNL     1      42.353  -9.422   8.140  1.00  0.00     0.012 A 
BRANCH  22  25
HETATM   25  O   UNL     1      41.826  -8.151  11.493  1.00  0.00    -0.352 OA
BRANCH  25  26
HETATM   26  C   UNL     1      40.874  -8.327  12.542  1.00  0.00     0.171 C 
HETATM   27  C   UNL     1      41.420  -9.373  13.498  1.00  0.00     0.034 C 
ENDBRANCH  25  26
ENDBRANCH  22  25
ENDBRANCH  17  19
ENDBRANCH   1  17
TORSDOF 6
ENDMDL
