MODEL 1
REMARK VINA RESULT:      -8.9      0.000      0.000
REMARK  8 active torsions:
REMARK  status: ('A' for Active; 'I' for Inactive)
REMARK    1  A    between atoms: C_7  and  C_8 
REMARK    2  A    between atoms: C_10  and  O_11 
REMARK    3  A    between atoms: C_13  and  O_14 
REMARK    4  A    between atoms: O_14  and  C_15 
REMARK    5  A    between atoms: C_15  and  C_16 
REMARK       I    between atoms: C_16  and  N_17 
REMARK    6  A    between atoms: C_21  and  C_22 
REMARK       I    between atoms: C_22  and  N_23 
REMARK    7  A    between atoms: N_23  and  C_24 
REMARK    8  A    between atoms: C_24  and  C_25 
ROOT
HETATM    1  C   UNL     1      40.295 -16.155   1.489  1.00  0.00     0.069 C 
HETATM    2  C   UNL     1      40.077 -14.959   2.371  1.00  0.00     0.024 C 
HETATM    3  N   UNL     1      39.321 -13.951   1.815  1.00  0.00    -0.312 N 
HETATM    4  C   UNL     1      38.863 -12.850   2.474  1.00  0.00     0.321 C 
HETATM    5  O   UNL     1      38.164 -12.009   1.921  1.00  0.00    -0.247 OA
HETATM    6  N   UNL     1      39.205 -12.744   3.781  1.00  0.00    -0.330 N 
HETATM    7  C   UNL     1      40.173 -13.588   4.458  1.00  0.00     0.160 C 
HETATM    8  C   UNL     1      40.508 -14.804   3.638  1.00  0.00     0.059 C 
HETATM    9  H   UNL     1      38.988 -14.031   0.860  1.00  0.00     0.170 HD
HETATM   10  H   UNL     1      38.874 -11.911   4.246  1.00  0.00     0.165 HD
ENDROOT
BRANCH   7  11
HETATM   11  C   UNL     1      41.399 -12.756   4.814  1.00  0.00    -0.028 A 
HETATM   12  C   UNL     1      41.435 -11.982   5.988  1.00  0.00     0.049 A 
HETATM   13  C   UNL     1      42.565 -11.226   6.319  1.00  0.00     0.102 A 
HETATM   14  C   UNL     1      43.673 -11.231   5.453  1.00  0.00     0.102 A 
HETATM   15  C   UNL     1      43.652 -12.007   4.293  1.00  0.00     0.040 A 
HETATM   16  C   UNL     1      42.519 -12.758   3.971  1.00  0.00     0.012 A 
BRANCH  13  17
HETATM   17  O   UNL     1      42.675 -10.435   7.435  1.00  0.00    -0.353 OA
HETATM   18  C   UNL     1      41.573  -9.589   7.740  1.00  0.00     0.210 C 
ENDBRANCH  13  17
BRANCH  14  19
HETATM   19  O   UNL     1      44.753 -10.486   5.849  1.00  0.00    -0.339 OA
BRANCH  19  20
HETATM   20  C   UNL     1      45.784 -11.182   6.544  1.00  0.00     0.278 C 
BRANCH  20  21
HETATM   21  C   UNL     1      46.076 -10.464   7.858  1.00  0.00     0.239 C 
HETATM   22  N   UNL     1      46.831  -9.329   7.750  1.00  0.00    -0.368 N 
HETATM   23  H   UNL     1      46.947  -8.902   6.835  1.00  0.00     0.159 HD
HETATM   24  H   UNL     1      46.982  -8.773   8.579  1.00  0.00     0.159 HD
HETATM   25  O   UNL     1      45.718 -10.886   8.953  1.00  0.00    -0.271 OA
ENDBRANCH  20  21
ENDBRANCH  19  20
ENDBRANCH  14  19
ENDBRANCH   7  11
BRANCH   8  26
HETATM   26  C   UNL     1      41.295 -15.830   4.367  1.00  0.00     0.252 C 
HETATM   27  N   UNL     1      42.606 -15.929   3.983  1.00  0.00    -0.353 N 
HETATM   28  H   UNL     1      42.998 -15.239   3.356  1.00  0.00     0.163 HD
HETATM   29  O   UNL     1      40.793 -16.468   5.285  1.00  0.00    -0.268 OA
BRANCH  27  30
HETATM   30  C   UNL     1      43.520 -16.811   4.669  1.00  0.00     0.161 C 
BRANCH  30  31
HETATM   31  C   UNL     1      43.580 -18.155   3.992  1.00  0.00    -0.041 A 
HETATM   32  C   UNL     1      44.016 -19.291   4.685  1.00  0.00     0.009 A 
HETATM   33  C   UNL     1      44.062 -20.534   4.050  1.00  0.00     0.001 A 
HETATM   34  C   UNL     1      43.676 -20.651   2.715  1.00  0.00     0.000 A 
HETATM   35  C   UNL     1      43.245 -19.527   2.013  1.00  0.00     0.001 A 
HETATM   36  C   UNL     1      43.197 -18.286   2.648  1.00  0.00     0.009 A 
ENDBRANCH  30  31
ENDBRANCH  27  30
ENDBRANCH   8  26
TORSDOF 8
ENDMDL
MODEL 2
REMARK VINA RESULT:      -8.8      3.454      6.712
REMARK  8 active torsions:
REMARK  status: ('A' for Active; 'I' for Inactive)
REMARK    1  A    between atoms: C_7  and  C_8 
REMARK    2  A    between atoms: C_10  and  O_11 
REMARK    3  A    between atoms: C_13  and  O_14 
REMARK    4  A    between atoms: O_14  and  C_15 
REMARK    5  A    between atoms: C_15  and  C_16 
REMARK       I    between atoms: C_16  and  N_17 
REMARK    6  A    between atoms: C_21  and  C_22 
REMARK       I    between atoms: C_22  and  N_23 
REMARK    7  A    between atoms: N_23  and  C_24 
REMARK    8  A    between atoms: C_24  and  C_25 
ROOT
HETATM    1  C   UNL     1      40.778 -16.180   5.766  1.00  0.00     0.069 C 
HETATM    2  C   UNL     1      40.727 -14.890   4.999  1.00  0.00     0.024 C 
HETATM    3  N   UNL     1      39.813 -13.969   5.461  1.00  0.00    -0.312 N 
HETATM    4  C   UNL     1      39.700 -12.682   5.029  1.00  0.00     0.321 C 
HETATM    5  O   UNL     1      38.883 -11.907   5.513  1.00  0.00    -0.247 OA
HETATM    6  N   UNL     1      40.552 -12.298   4.049  1.00  0.00    -0.330 N 
HETATM    7  C   UNL     1      41.414 -13.193   3.298  1.00  0.00     0.160 C 
HETATM    8  C   UNL     1      41.502 -14.545   3.953  1.00  0.00     0.059 C 
HETATM    9  H   UNL     1      39.208 -14.199   6.241  1.00  0.00     0.170 HD
HETATM   10  H   UNL     1      40.438 -11.347   3.727  1.00  0.00     0.165 HD
ENDROOT
BRANCH   7  11
HETATM   11  C   UNL     1      40.927 -13.263   1.856  1.00  0.00    -0.028 A 
HETATM   12  C   UNL     1      41.244 -12.250   0.932  1.00  0.00     0.049 A 
HETATM   13  C   UNL     1      40.804 -12.320  -0.394  1.00  0.00     0.102 A 
HETATM   14  C   UNL     1      40.021 -13.413  -0.802  1.00  0.00     0.102 A 
HETATM   15  C   UNL     1      39.713 -14.431   0.103  1.00  0.00     0.040 A 
HETATM   16  C   UNL     1      40.156 -14.352   1.425  1.00  0.00     0.012 A 
BRANCH  13  17
HETATM   17  O   UNL     1      41.057 -11.368  -1.351  1.00  0.00    -0.353 OA
HETATM   18  C   UNL     1      40.465 -10.088  -1.164  1.00  0.00     0.210 C 
ENDBRANCH  13  17
BRANCH  14  19
HETATM   19  O   UNL     1      39.643 -13.429  -2.119  1.00  0.00    -0.339 OA
BRANCH  19  20
HETATM   20  C   UNL     1      38.276 -13.734  -2.384  1.00  0.00     0.278 C 
BRANCH  20  21
HETATM   21  C   UNL     1      38.201 -14.953  -3.298  1.00  0.00     0.239 C 
HETATM   22  N   UNL     1      38.277 -16.163  -2.668  1.00  0.00    -0.368 N 
HETATM   23  H   UNL     1      38.138 -16.203  -1.662  1.00  0.00     0.159 HD
HETATM   24  H   UNL     1      38.150 -17.000  -3.219  1.00  0.00     0.159 HD
HETATM   25  O   UNL     1      38.134 -14.876  -4.521  1.00  0.00    -0.271 OA
ENDBRANCH  20  21
ENDBRANCH  19  20
ENDBRANCH  14  19
ENDBRANCH   7  11
BRANCH   8  26
HETATM   26  C   UNL     1      42.551 -15.428   3.384  1.00  0.00     0.252 C 
HETATM   27  N   UNL     1      42.094 -16.621   2.891  1.00  0.00    -0.353 N 
HETATM   28  H   UNL     1      41.099 -16.781   2.808  1.00  0.00     0.163 HD
HETATM   29  O   UNL     1      43.715 -15.050   3.312  1.00  0.00    -0.268 OA
BRANCH  27  30
HETATM   30  C   UNL     1      42.981 -17.540   2.217  1.00  0.00     0.161 C 
BRANCH  30  31
HETATM   31  C   UNL     1      43.390 -18.662   3.134  1.00  0.00    -0.041 A 
HETATM   32  C   UNL     1      43.660 -18.423   4.488  1.00  0.00     0.009 A 
HETATM   33  C   UNL     1      44.032 -19.472   5.332  1.00  0.00     0.001 A 
HETATM   34  C   UNL     1      44.142 -20.768   4.829  1.00  0.00     0.000 A 
HETATM   35  C   UNL     1      43.881 -21.017   3.484  1.00  0.00     0.001 A 
HETATM   36  C   UNL     1      43.506 -19.970   2.640  1.00  0.00     0.009 A 
ENDBRANCH  30  31
ENDBRANCH  27  30
ENDBRANCH   8  26
TORSDOF 8
ENDMDL
MODEL 3
REMARK VINA RESULT:      -8.6      2.237      5.335
REMARK  8 active torsions:
REMARK  status: ('A' for Active; 'I' for Inactive)
REMARK    1  A    between atoms: C_7  and  C_8 
REMARK    2  A    between atoms: C_10  and  O_11 
REMARK    3  A    between atoms: C_13  and  O_14 
REMARK    4  A    between atoms: O_14  and  C_15 
REMARK    5  A    between atoms: C_15  and  C_16 
REMARK       I    between atoms: C_16  and  N_17 
REMARK    6  A    between atoms: C_21  and  C_22 
REMARK       I    between atoms: C_22  and  N_23 
REMARK    7  A    between atoms: N_23  and  C_24 
REMARK    8  A    between atoms: C_24  and  C_25 
ROOT
HETATM    1  C   UNL     1      42.294 -15.935   7.128  1.00  0.00     0.069 C 
HETATM    2  C   UNL     1      42.751 -14.628   6.546  1.00  0.00     0.024 C 
HETATM    3  N   UNL     1      43.201 -13.703   7.463  1.00  0.00    -0.312 N 
HETATM    4  C   UNL     1      43.806 -12.520   7.161  1.00  0.00     0.321 C 
HETATM    5  O   UNL     1      44.213 -11.762   8.034  1.00  0.00    -0.247 OA
HETATM    6  N   UNL     1      43.954 -12.237   5.845  1.00  0.00    -0.330 N 
HETATM    7  C   UNL     1      43.342 -12.982   4.760  1.00  0.00     0.160 C 
HETATM    8  C   UNL     1      42.799 -14.301   5.240  1.00  0.00     0.059 C 
HETATM    9  H   UNL     1      43.170 -13.913   8.454  1.00  0.00     0.170 HD
HETATM   10  H   UNL     1      44.385 -11.347   5.642  1.00  0.00     0.165 HD
ENDROOT
BRANCH   7  11
HETATM   11  C   UNL     1      42.284 -12.114   4.090  1.00  0.00    -0.028 A 
HETATM   12  C   UNL     1      41.060 -11.839   4.728  1.00  0.00     0.049 A 
HETATM   13  C   UNL     1      40.094 -11.034   4.116  1.00  0.00     0.102 A 
HETATM   14  C   UNL     1      40.346 -10.507   2.837  1.00  0.00     0.102 A 
HETATM   15  C   UNL     1      41.563 -10.763   2.202  1.00  0.00     0.040 A 
HETATM   16  C   UNL     1      42.522 -11.568   2.821  1.00  0.00     0.012 A 
BRANCH  13  17
HETATM   17  O   UNL     1      38.871 -10.731   4.663  1.00  0.00    -0.353 OA
HETATM   18  C   UNL     1      38.725 -10.917   6.066  1.00  0.00     0.210 C 
ENDBRANCH  13  17
BRANCH  14  19
HETATM   19  O   UNL     1      39.366  -9.711   2.306  1.00  0.00    -0.339 OA
BRANCH  19  20
HETATM   20  C   UNL     1      39.001  -9.969   0.953  1.00  0.00     0.278 C 
BRANCH  20  21
HETATM   21  C   UNL     1      38.299 -11.321   0.872  1.00  0.00     0.239 C 
HETATM   22  N   UNL     1      37.087 -11.390   1.500  1.00  0.00    -0.368 N 
HETATM   23  H   UNL     1      36.620 -10.527   1.763  1.00  0.00     0.159 HD
HETATM   24  H   UNL     1      36.545 -12.237   1.405  1.00  0.00     0.159 HD
HETATM   25  O   UNL     1      38.793 -12.307   0.335  1.00  0.00    -0.271 OA
ENDBRANCH  20  21
ENDBRANCH  19  20
ENDBRANCH  14  19
ENDBRANCH   7  11
BRANCH   8  26
HETATM   26  C   UNL     1      42.383 -15.220   4.150  1.00  0.00     0.252 C 
HETATM   27  N   UNL     1      43.414 -15.848   3.504  1.00  0.00    -0.353 N 
HETATM   28  H   UNL     1      44.354 -15.776   3.871  1.00  0.00     0.163 HD
HETATM   29  O   UNL     1      41.196 -15.428   3.925  1.00  0.00    -0.268 OA
BRANCH  27  30
HETATM   30  C   UNL     1      43.163 -16.845   2.490  1.00  0.00     0.161 C 
BRANCH  30  31
HETATM   31  C   UNL     1      43.459 -18.227   3.010  1.00  0.00    -0.041 A 
HETATM   32  C   UNL     1      43.315 -19.351   2.187  1.00  0.00     0.009 A 
HETATM   33  C   UNL     1      43.599 -20.628   2.677  1.00  0.00     0.001 A 
HETATM   34  C   UNL     1      44.026 -20.793   3.994  1.00  0.00     0.000 A 
HETATM   35  C   UNL     1      44.169 -19.682   4.824  1.00  0.00     0.001 A 
HETATM   36  C   UNL     1      43.888 -18.406   4.334  1.00  0.00     0.009 A 
ENDBRANCH  30  31
ENDBRANCH  27  30
ENDBRANCH   8  26
TORSDOF 8
ENDMDL
MODEL 4
REMARK VINA RESULT:      -8.6      1.959      2.472
REMARK  8 active torsions:
REMARK  status: ('A' for Active; 'I' for Inactive)
REMARK    1  A    between atoms: C_7  and  C_8 
REMARK    2  A    between atoms: C_10  and  O_11 
REMARK    3  A    between atoms: C_13  and  O_14 
REMARK    4  A    between atoms: O_14  and  C_15 
REMARK    5  A    between atoms: C_15  and  C_16 
REMARK       I    between atoms: C_16  and  N_17 
REMARK    6  A    between atoms: C_21  and  C_22 
REMARK       I    between atoms: C_22  and  N_23 
REMARK    7  A    between atoms: N_23  and  C_24 
REMARK    8  A    between atoms: C_24  and  C_25 
ROOT
HETATM    1  C   UNL     1      41.289 -13.628  -0.206  1.00  0.00     0.069 C 
HETATM    2  C   UNL     1      40.855 -13.662   1.232  1.00  0.00     0.024 C 
HETATM    3  N   UNL     1      39.744 -12.903   1.527  1.00  0.00    -0.312 N 
HETATM    4  C   UNL     1      39.079 -12.904   2.716  1.00  0.00     0.321 C 
HETATM    5  O   UNL     1      38.074 -12.226   2.894  1.00  0.00    -0.247 OA
HETATM    6  N   UNL     1      39.576 -13.710   3.684  1.00  0.00    -0.330 N 
HETATM    7  C   UNL     1      40.853 -14.396   3.621  1.00  0.00     0.160 C 
HETATM    8  C   UNL     1      41.414 -14.381   2.224  1.00  0.00     0.059 C 
HETATM    9  H   UNL     1      39.304 -12.343   0.806  1.00  0.00     0.170 HD
HETATM   10  H   UNL     1      39.081 -13.680   4.565  1.00  0.00     0.165 HD
ENDROOT
BRANCH   7  11
HETATM   11  C   UNL     1      41.801 -13.785   4.646  1.00  0.00    -0.028 A 
HETATM   12  C   UNL     1      42.119 -14.466   5.836  1.00  0.00     0.049 A 
HETATM   13  C   UNL     1      42.996 -13.909   6.772  1.00  0.00     0.102 A 
HETATM   14  C   UNL     1      43.554 -12.642   6.525  1.00  0.00     0.102 A 
HETATM   15  C   UNL     1      43.255 -11.965   5.340  1.00  0.00     0.040 A 
HETATM   16  C   UNL     1      42.378 -12.530   4.411  1.00  0.00     0.012 A 
BRANCH  13  17
HETATM   17  O   UNL     1      43.346 -14.500   7.962  1.00  0.00    -0.353 OA
HETATM   18  C   UNL     1      43.183 -15.909   8.057  1.00  0.00     0.210 C 
ENDBRANCH  13  17
BRANCH  14  19
HETATM   19  O   UNL     1      44.421 -12.165   7.473  1.00  0.00    -0.339 OA
BRANCH  19  20
HETATM   20  C   UNL     1      44.414 -10.757   7.688  1.00  0.00     0.278 C 
BRANCH  20  21
HETATM   21  C   UNL     1      45.848 -10.237   7.657  1.00  0.00     0.239 C 
HETATM   22  N   UNL     1      46.662 -10.820   6.727  1.00  0.00    -0.368 N 
HETATM   23  H   UNL     1      46.242 -11.362   5.976  1.00  0.00     0.159 HD
HETATM   24  H   UNL     1      47.596 -10.454   6.610  1.00  0.00     0.159 HD
HETATM   25  O   UNL     1      46.279  -9.397   8.440  1.00  0.00    -0.271 OA
ENDBRANCH  20  21
ENDBRANCH  19  20
ENDBRANCH  14  19
ENDBRANCH   7  11
BRANCH   8  26
HETATM   26  C   UNL     1      42.588 -15.270   2.032  1.00  0.00     0.252 C 
HETATM   27  N   UNL     1      42.324 -16.607   2.161  1.00  0.00    -0.353 N 
HETATM   28  H   UNL     1      41.366 -16.924   2.236  1.00  0.00     0.163 HD
HETATM   29  O   UNL     1      43.676 -14.808   1.710  1.00  0.00    -0.268 OA
BRANCH  27  30
HETATM   30  C   UNL     1      43.342 -17.598   1.904  1.00  0.00     0.161 C 
BRANCH  30  31
HETATM   31  C   UNL     1      43.571 -18.460   3.117  1.00  0.00    -0.041 A 
HETATM   32  C   UNL     1      43.762 -19.842   2.991  1.00  0.00     0.009 A 
HETATM   33  C   UNL     1      43.980 -20.633   4.123  1.00  0.00     0.001 A 
HETATM   34  C   UNL     1      44.006 -20.049   5.388  1.00  0.00     0.000 A 
HETATM   35  C   UNL     1      43.813 -18.676   5.527  1.00  0.00     0.001 A 
HETATM   36  C   UNL     1      43.597 -17.886   4.397  1.00  0.00     0.009 A 
ENDBRANCH  30  31
ENDBRANCH  27  30
ENDBRANCH   8  26
TORSDOF 8
ENDMDL
MODEL 5
REMARK VINA RESULT:      -8.4      2.363      3.192
REMARK  8 active torsions:
REMARK  status: ('A' for Active; 'I' for Inactive)
REMARK    1  A    between atoms: C_7  and  C_8 
REMARK    2  A    between atoms: C_10  and  O_11 
REMARK    3  A    between atoms: C_13  and  O_14 
REMARK    4  A    between atoms: O_14  and  C_15 
REMARK    5  A    between atoms: C_15  and  C_16 
REMARK       I    between atoms: C_16  and  N_17 
REMARK    6  A    between atoms: C_21  and  C_22 
REMARK       I    between atoms: C_22  and  N_23 
REMARK    7  A    between atoms: N_23  and  C_24 
REMARK    8  A    between atoms: C_24  and  C_25 
ROOT
HETATM    1  C   UNL     1      40.204 -14.068  -2.031  1.00  0.00     0.069 C 
HETATM    2  C   UNL     1      39.700 -13.369  -0.801  1.00  0.00     0.024 C 
HETATM    3  N   UNL     1      38.947 -12.240  -1.035  1.00  0.00    -0.312 N 
HETATM    4  C   UNL     1      38.258 -11.539  -0.091  1.00  0.00     0.321 C 
HETATM    5  O   UNL     1      37.579 -10.561  -0.380  1.00  0.00    -0.247 OA
HETATM    6  N   UNL     1      38.348 -11.993   1.182  1.00  0.00    -0.330 N 
HETATM    7  C   UNL     1      39.268 -13.020   1.636  1.00  0.00     0.160 C 
HETATM    8  C   UNL     1      39.878 -13.760   0.476  1.00  0.00     0.059 C 
HETATM    9  H   UNL     1      38.800 -11.913  -1.983  1.00  0.00     0.170 HD
HETATM   10  H   UNL     1      37.848 -11.448   1.870  1.00  0.00     0.165 HD
ENDROOT
BRANCH   7  11
HETATM   11  C   UNL     1      40.311 -12.389   2.551  1.00  0.00    -0.028 A 
HETATM   12  C   UNL     1      40.147 -12.393   3.949  1.00  0.00     0.049 A 
HETATM   13  C   UNL     1      41.109 -11.822   4.788  1.00  0.00     0.102 A 
HETATM   14  C   UNL     1      42.247 -11.220   4.222  1.00  0.00     0.102 A 
HETATM   15  C   UNL     1      42.425 -11.224   2.837  1.00  0.00     0.040 A 
HETATM   16  C   UNL     1      41.459 -11.797   2.007  1.00  0.00     0.012 A 
BRANCH  13  17
HETATM   17  O   UNL     1      41.018 -11.771   6.157  1.00  0.00    -0.353 OA
HETATM   18  C   UNL     1      40.021 -10.920   6.710  1.00  0.00     0.210 C 
ENDBRANCH  13  17
BRANCH  14  19
HETATM   19  O   UNL     1      43.159 -10.700   5.103  1.00  0.00    -0.339 OA
BRANCH  19  20
HETATM   20  C   UNL     1      44.349 -11.456   5.306  1.00  0.00     0.278 C 
BRANCH  20  21
HETATM   21  C   UNL     1      44.588 -11.624   6.803  1.00  0.00     0.239 C 
HETATM   22  N   UNL     1      43.618 -12.311   7.478  1.00  0.00    -0.368 N 
HETATM   23  H   UNL     1      42.948 -12.862   6.949  1.00  0.00     0.159 HD
HETATM   24  H   UNL     1      43.769 -12.520   8.454  1.00  0.00     0.159 HD
HETATM   25  O   UNL     1      45.547 -11.136   7.392  1.00  0.00    -0.271 OA
ENDBRANCH  20  21
ENDBRANCH  19  20
ENDBRANCH  14  19
ENDBRANCH   7  11
BRANCH   8  26
HETATM   26  C   UNL     1      40.634 -14.978   0.862  1.00  0.00     0.252 C 
HETATM   27  N   UNL     1      41.996 -14.845   0.828  1.00  0.00    -0.353 N 
HETATM   28  H   UNL     1      42.407 -13.932   0.689  1.00  0.00     0.163 HD
HETATM   29  O   UNL     1      40.046 -15.983   1.247  1.00  0.00    -0.268 OA
BRANCH  27  30
HETATM   30  C   UNL     1      42.862 -15.911   1.273  1.00  0.00     0.161 C 
BRANCH  30  31
HETATM   31  C   UNL     1      42.905 -15.977   2.777  1.00  0.00    -0.041 A 
HETATM   32  C   UNL     1      42.859 -17.207   3.445  1.00  0.00     0.009 A 
HETATM   33  C   UNL     1      42.907 -17.256   4.841  1.00  0.00     0.001 A 
HETATM   34  C   UNL     1      42.995 -16.077   5.579  1.00  0.00     0.000 A 
HETATM   35  C   UNL     1      43.037 -14.847   4.926  1.00  0.00     0.001 A 
HETATM   36  C   UNL     1      42.992 -14.797   3.532  1.00  0.00     0.009 A 
ENDBRANCH  30  31
ENDBRANCH  27  30
ENDBRANCH   8  26
TORSDOF 8
ENDMDL
MODEL 6
REMARK VINA RESULT:      -8.3      3.284      6.422
REMARK  8 active torsions:
REMARK  status: ('A' for Active; 'I' for Inactive)
REMARK    1  A    between atoms: C_7  and  C_8 
REMARK    2  A    between atoms: C_10  and  O_11 
REMARK    3  A    between atoms: C_13  and  O_14 
REMARK    4  A    between atoms: O_14  and  C_15 
REMARK    5  A    between atoms: C_15  and  C_16 
REMARK       I    between atoms: C_16  and  N_17 
REMARK    6  A    between atoms: C_21  and  C_22 
REMARK       I    between atoms: C_22  and  N_23 
REMARK    7  A    between atoms: N_23  and  C_24 
REMARK    8  A    between atoms: C_24  and  C_25 
ROOT
HETATM    1  C   UNL     1      40.857 -16.088   5.880  1.00  0.00     0.069 C 
HETATM    2  C   UNL     1      40.697 -14.711   5.301  1.00  0.00     0.024 C 
HETATM    3  N   UNL     1      39.772 -13.912   5.937  1.00  0.00    -0.312 N 
HETATM    4  C   UNL     1      39.571 -12.587   5.693  1.00  0.00     0.321 C 
HETATM    5  O   UNL     1      38.752 -11.931   6.325  1.00  0.00    -0.247 OA
HETATM    6  N   UNL     1      40.341 -12.028   4.729  1.00  0.00    -0.330 N 
HETATM    7  C   UNL     1      41.194 -12.766   3.814  1.00  0.00     0.160 C 
HETATM    8  C   UNL     1      41.386 -14.186   4.270  1.00  0.00     0.059 C 
HETATM    9  H   UNL     1      39.229 -14.278   6.711  1.00  0.00     0.170 HD
HETATM   10  H   UNL     1      40.162 -11.051   4.548  1.00  0.00     0.165 HD
ENDROOT
BRANCH   7  11
HETATM   11  C   UNL     1      40.620 -12.668   2.406  1.00  0.00    -0.028 A 
HETATM   12  C   UNL     1      39.320 -12.178   2.183  1.00  0.00     0.049 A 
HETATM   13  C   UNL     1      38.798 -12.080   0.890  1.00  0.00     0.102 A 
HETATM   14  C   UNL     1      39.582 -12.493  -0.202  1.00  0.00     0.102 A 
HETATM   15  C   UNL     1      40.879 -12.967   0.007  1.00  0.00     0.040 A 
HETATM   16  C   UNL     1      41.391 -13.061   1.303  1.00  0.00     0.012 A 
BRANCH  13  17
HETATM   17  O   UNL     1      37.536 -11.628   0.589  1.00  0.00    -0.353 OA
HETATM   18  C   UNL     1      37.198 -10.316   1.023  1.00  0.00     0.210 C 
ENDBRANCH  13  17
BRANCH  14  19
HETATM   19  O   UNL     1      39.017 -12.350  -1.442  1.00  0.00    -0.339 OA
BRANCH  19  20
HETATM   20  C   UNL     1      39.489 -13.229  -2.460  1.00  0.00     0.278 C 
BRANCH  20  21
HETATM   21  C   UNL     1      38.299 -13.934  -3.105  1.00  0.00     0.239 C 
HETATM   22  N   UNL     1      37.086 -13.679  -2.531  1.00  0.00    -0.368 N 
HETATM   23  H   UNL     1      36.997 -12.889  -1.898  1.00  0.00     0.159 HD
HETATM   24  H   UNL     1      36.258 -14.056  -2.971  1.00  0.00     0.159 HD
HETATM   25  O   UNL     1      38.408 -14.723  -4.038  1.00  0.00    -0.271 OA
ENDBRANCH  20  21
ENDBRANCH  19  20
ENDBRANCH  14  19
ENDBRANCH   7  11
BRANCH   8  26
HETATM   26  C   UNL     1      42.438 -14.926   3.527  1.00  0.00     0.252 C 
HETATM   27  N   UNL     1      42.013 -16.080   2.926  1.00  0.00    -0.353 N 
HETATM   28  H   UNL     1      41.025 -16.294   2.893  1.00  0.00     0.163 HD
HETATM   29  O   UNL     1      43.570 -14.467   3.421  1.00  0.00    -0.268 OA
BRANCH  27  30
HETATM   30  C   UNL     1      42.896 -16.853   2.085  1.00  0.00     0.161 C 
BRANCH  30  31
HETATM   31  C   UNL     1      43.299 -18.135   2.765  1.00  0.00    -0.041 A 
HETATM   32  C   UNL     1      43.748 -18.136   4.092  1.00  0.00     0.009 A 
HETATM   33  C   UNL     1      44.113 -19.332   4.715  1.00  0.00     0.001 A 
HETATM   34  C   UNL     1      44.036 -20.536   4.016  1.00  0.00     0.000 A 
HETATM   35  C   UNL     1      43.595 -20.548   2.695  1.00  0.00     0.001 A 
HETATM   36  C   UNL     1      43.228 -19.354   2.072  1.00  0.00     0.009 A 
ENDBRANCH  30  31
ENDBRANCH  27  30
ENDBRANCH   8  26
TORSDOF 8
ENDMDL
MODEL 7
REMARK VINA RESULT:      -8.3      1.880      2.078
REMARK  8 active torsions:
REMARK  status: ('A' for Active; 'I' for Inactive)
REMARK    1  A    between atoms: C_7  and  C_8 
REMARK    2  A    between atoms: C_10  and  O_11 
REMARK    3  A    between atoms: C_13  and  O_14 
REMARK    4  A    between atoms: O_14  and  C_15 
REMARK    5  A    between atoms: C_15  and  C_16 
REMARK       I    between atoms: C_16  and  N_17 
REMARK    6  A    between atoms: C_21  and  C_22 
REMARK       I    between atoms: C_22  and  N_23 
REMARK    7  A    between atoms: N_23  and  C_24 
REMARK    8  A    between atoms: C_24  and  C_25 
ROOT
HETATM    1  C   UNL     1      43.163 -16.075   1.442  1.00  0.00     0.069 C 
HETATM    2  C   UNL     1      42.324 -14.890   1.826  1.00  0.00     0.024 C 
HETATM    3  N   UNL     1      42.051 -14.009   0.804  1.00  0.00    -0.312 N 
HETATM    4  C   UNL     1      41.187 -12.957   0.876  1.00  0.00     0.321 C 
HETATM    5  O   UNL     1      40.967 -12.235  -0.089  1.00  0.00    -0.247 OA
HETATM    6  N   UNL     1      40.569 -12.766   2.065  1.00  0.00    -0.330 N 
HETATM    7  C   UNL     1      40.907 -13.452   3.299  1.00  0.00     0.160 C 
HETATM    8  C   UNL     1      41.795 -14.639   3.039  1.00  0.00     0.059 C 
HETATM    9  H   UNL     1      42.441 -14.162  -0.119  1.00  0.00     0.170 HD
HETATM   10  H   UNL     1      39.949 -11.969   2.105  1.00  0.00     0.165 HD
ENDROOT
BRANCH   7  11
HETATM   11  C   UNL     1      41.521 -12.455   4.274  1.00  0.00    -0.028 A 
HETATM   12  C   UNL     1      40.748 -11.863   5.291  1.00  0.00     0.049 A 
HETATM   13  C   UNL     1      41.314 -10.956   6.191  1.00  0.00     0.102 A 
HETATM   14  C   UNL     1      42.674 -10.619   6.065  1.00  0.00     0.102 A 
HETATM   15  C   UNL     1      43.453 -11.211   5.069  1.00  0.00     0.040 A 
HETATM   16  C   UNL     1      42.878 -12.117   4.174  1.00  0.00     0.012 A 
BRANCH  13  17
HETATM   17  O   UNL     1      40.627 -10.325   7.199  1.00  0.00    -0.353 OA
HETATM   18  C   UNL     1      39.257 -10.028   6.962  1.00  0.00     0.210 C 
ENDBRANCH  13  17
BRANCH  14  19
HETATM   19  O   UNL     1      43.169  -9.741   6.994  1.00  0.00    -0.339 OA
BRANCH  19  20
HETATM   20  C   UNL     1      44.283 -10.189   7.760  1.00  0.00     0.278 C 
BRANCH  20  21
HETATM   21  C   UNL     1      43.842 -10.412   9.204  1.00  0.00     0.239 C 
HETATM   22  N   UNL     1      42.592  -9.954   9.512  1.00  0.00    -0.368 N 
HETATM   23  H   UNL     1      41.953  -9.723   8.756  1.00  0.00     0.159 HD
HETATM   24  H   UNL     1      42.221 -10.151  10.430  1.00  0.00     0.159 HD
HETATM   25  O   UNL     1      44.563 -10.915  10.060  1.00  0.00    -0.271 OA
ENDBRANCH  20  21
ENDBRANCH  19  20
ENDBRANCH  14  19
ENDBRANCH   7  11
BRANCH   8  26
HETATM   26  C   UNL     1      41.978 -15.528   4.214  1.00  0.00     0.252 C 
HETATM   27  N   UNL     1      43.280 -15.717   4.594  1.00  0.00    -0.353 N 
HETATM   28  H   UNL     1      44.011 -15.159   4.173  1.00  0.00     0.163 HD
HETATM   29  O   UNL     1      41.010 -15.981   4.814  1.00  0.00    -0.268 OA
BRANCH  27  30
HETATM   30  C   UNL     1      43.610 -16.474   5.778  1.00  0.00     0.161 C 
BRANCH  30  31
HETATM   31  C   UNL     1      43.725 -17.942   5.462  1.00  0.00    -0.041 A 
HETATM   32  C   UNL     1      43.426 -18.912   6.428  1.00  0.00     0.009 A 
HETATM   33  C   UNL     1      43.530 -20.271   6.122  1.00  0.00     0.001 A 
HETATM   34  C   UNL     1      43.937 -20.672   4.851  1.00  0.00     0.000 A 
HETATM   35  C   UNL     1      44.242 -19.717   3.883  1.00  0.00     0.001 A 
HETATM   36  C   UNL     1      44.135 -18.359   4.186  1.00  0.00     0.009 A 
ENDBRANCH  30  31
ENDBRANCH  27  30
ENDBRANCH   8  26
TORSDOF 8
ENDMDL
MODEL 8
REMARK VINA RESULT:      -8.2      3.014      6.440
REMARK  8 active torsions:
REMARK  status: ('A' for Active; 'I' for Inactive)
REMARK    1  A    between atoms: C_7  and  C_8 
REMARK    2  A    between atoms: C_10  and  O_11 
REMARK    3  A    between atoms: C_13  and  O_14 
REMARK    4  A    between atoms: O_14  and  C_15 
REMARK    5  A    between atoms: C_15  and  C_16 
REMARK       I    between atoms: C_16  and  N_17 
REMARK    6  A    between atoms: C_21  and  C_22 
REMARK       I    between atoms: C_22  and  N_23 
REMARK    7  A    between atoms: N_23  and  C_24 
REMARK    8  A    between atoms: C_24  and  C_25 
ROOT
HETATM    1  C   UNL     1      38.477 -10.916   1.334  1.00  0.00     0.069 C 
HETATM    2  C   UNL     1      39.367 -12.045   0.898  1.00  0.00     0.024 C 
HETATM    3  N   UNL     1      38.812 -12.907  -0.022  1.00  0.00    -0.312 N 
HETATM    4  C   UNL     1      39.477 -13.901  -0.675  1.00  0.00     0.321 C 
HETATM    5  O   UNL     1      38.924 -14.609  -1.509  1.00  0.00    -0.247 OA
HETATM    6  N   UNL     1      40.788 -14.052  -0.369  1.00  0.00    -0.330 N 
HETATM    7  C   UNL     1      41.467 -13.388   0.728  1.00  0.00     0.160 C 
HETATM    8  C   UNL     1      40.639 -12.261   1.283  1.00  0.00     0.059 C 
HETATM    9  H   UNL     1      37.854 -12.779  -0.327  1.00  0.00     0.170 HD
HETATM   10  H   UNL     1      41.257 -14.808  -0.848  1.00  0.00     0.165 HD
ENDROOT
BRANCH   7  11
HETATM   11  C   UNL     1      41.843 -14.422   1.783  1.00  0.00    -0.028 A 
HETATM   12  C   UNL     1      40.871 -14.974   2.638  1.00  0.00     0.049 A 
HETATM   13  C   UNL     1      41.216 -15.929   3.599  1.00  0.00     0.102 A 
HETATM   14  C   UNL     1      42.558 -16.329   3.721  1.00  0.00     0.102 A 
HETATM   15  C   UNL     1      43.528 -15.798   2.869  1.00  0.00     0.040 A 
HETATM   16  C   UNL     1      43.174 -14.844   1.911  1.00  0.00     0.012 A 
BRANCH  13  17
HETATM   17  O   UNL     1      40.332 -16.505   4.479  1.00  0.00    -0.353 OA
HETATM   18  C   UNL     1      40.240 -15.926   5.775  1.00  0.00     0.210 C 
ENDBRANCH  13  17
BRANCH  14  19
HETATM   19  O   UNL     1      42.822 -17.284   4.669  1.00  0.00    -0.339 OA
BRANCH  19  20
HETATM   20  C   UNL     1      44.152 -17.795   4.701  1.00  0.00     0.278 C 
BRANCH  20  21
HETATM   21  C   UNL     1      44.160 -19.209   4.127  1.00  0.00     0.239 C 
HETATM   22  N   UNL     1      44.331 -20.211   5.040  1.00  0.00    -0.368 N 
HETATM   23  H   UNL     1      44.202 -20.004   6.026  1.00  0.00     0.159 HD
HETATM   24  H   UNL     1      44.261 -21.167   4.721  1.00  0.00     0.159 HD
HETATM   25  O   UNL     1      44.079 -19.450   2.926  1.00  0.00    -0.271 OA
ENDBRANCH  20  21
ENDBRANCH  19  20
ENDBRANCH  14  19
ENDBRANCH   7  11
BRANCH   8  26
HETATM   26  C   UNL     1      41.367 -11.384   2.235  1.00  0.00     0.252 C 
HETATM   27  N   UNL     1      40.849 -11.356   3.502  1.00  0.00    -0.353 N 
HETATM   28  H   UNL     1      40.120 -12.008   3.760  1.00  0.00     0.163 HD
HETATM   29  O   UNL     1      42.392 -10.804   1.894  1.00  0.00    -0.268 OA
BRANCH  27  30
HETATM   30  C   UNL     1      41.506 -10.628   4.562  1.00  0.00     0.161 C 
BRANCH  30  31
HETATM   31  C   UNL     1      42.372 -11.544   5.385  1.00  0.00    -0.041 A 
HETATM   32  C   UNL     1      42.401 -12.922   5.137  1.00  0.00     0.009 A 
HETATM   33  C   UNL     1      43.214 -13.762   5.902  1.00  0.00     0.001 A 
HETATM   34  C   UNL     1      44.001 -13.233   6.924  1.00  0.00     0.000 A 
HETATM   35  C   UNL     1      43.977 -11.864   7.184  1.00  0.00     0.001 A 
HETATM   36  C   UNL     1      43.168 -11.023   6.418  1.00  0.00     0.009 A 
ENDBRANCH  30  31
ENDBRANCH  27  30
ENDBRANCH   8  26
TORSDOF 8
ENDMDL
MODEL 9
REMARK VINA RESULT:      -8.1      2.618      5.098
REMARK  8 active torsions:
REMARK  status: ('A' for Active; 'I' for Inactive)
REMARK    1  A    between atoms: C_7  and  C_8 
REMARK    2  A    between atoms: C_10  and  O_11 
REMARK    3  A    between atoms: C_13  and  O_14 
REMARK    4  A    between atoms: O_14  and  C_15 
REMARK    5  A    between atoms: C_15  and  C_16 
REMARK       I    between atoms: C_16  and  N_17 
REMARK    6  A    between atoms: C_21  and  C_22 
REMARK       I    between atoms: C_22  and  N_23 
REMARK    7  A    between atoms: N_23  and  C_24 
REMARK    8  A    between atoms: C_24  and  C_25 
ROOT
HETATM    1  C   UNL     1      40.185  -8.940   3.339  1.00  0.00     0.069 C 
HETATM    2  C   UNL     1      39.917  -9.957   4.412  1.00  0.00     0.024 C 
HETATM    3  N   UNL     1      39.717  -9.440   5.673  1.00  0.00    -0.312 N 
HETATM    4  C   UNL     1      39.305 -10.148   6.762  1.00  0.00     0.321 C 
HETATM    5  O   UNL     1      39.115  -9.612   7.847  1.00  0.00    -0.247 OA
HETATM    6  N   UNL     1      39.098 -11.474   6.576  1.00  0.00    -0.330 N 
HETATM    7  C   UNL     1      39.474 -12.215   5.386  1.00  0.00     0.160 C 
HETATM    8  C   UNL     1      39.816 -11.290   4.249  1.00  0.00     0.059 C 
HETATM    9  H   UNL     1      39.795  -8.442   5.833  1.00  0.00     0.170 HD
HETATM   10  H   UNL     1      38.814 -11.985   7.399  1.00  0.00     0.165 HD
ENDROOT
BRANCH   7  11
HETATM   11  C   UNL     1      40.607 -13.174   5.731  1.00  0.00    -0.028 A 
HETATM   12  C   UNL     1      41.894 -12.697   6.041  1.00  0.00     0.049 A 
HETATM   13  C   UNL     1      42.930 -13.577   6.367  1.00  0.00     0.102 A 
HETATM   14  C   UNL     1      42.683 -14.961   6.366  1.00  0.00     0.102 A 
HETATM   15  C   UNL     1      41.406 -15.444   6.074  1.00  0.00     0.040 A 
HETATM   16  C   UNL     1      40.377 -14.557   5.750  1.00  0.00     0.012 A 
BRANCH  13  17
HETATM   17  O   UNL     1      44.214 -13.194   6.667  1.00  0.00    -0.353 OA
HETATM   18  C   UNL     1      44.389 -11.896   7.223  1.00  0.00     0.210 C 
ENDBRANCH  13  17
BRANCH  14  19
HETATM   19  O   UNL     1      43.737 -15.765   6.715  1.00  0.00    -0.339 OA
BRANCH  19  20
HETATM   20  C   UNL     1      44.258 -16.608   5.691  1.00  0.00     0.278 C 
BRANCH  20  21
HETATM   21  C   UNL     1      43.854 -18.052   5.977  1.00  0.00     0.239 C 
HETATM   22  N   UNL     1      44.112 -18.942   4.972  1.00  0.00    -0.368 N 
HETATM   23  H   UNL     1      44.746 -18.671   4.226  1.00  0.00     0.159 HD
HETATM   24  H   UNL     1      43.940 -19.922   5.144  1.00  0.00     0.159 HD
HETATM   25  O   UNL     1      43.286 -18.403   7.006  1.00  0.00    -0.271 OA
ENDBRANCH  20  21
ENDBRANCH  19  20
ENDBRANCH  14  19
ENDBRANCH   7  11
BRANCH   8  26
HETATM   26  C   UNL     1      39.968 -11.970   2.938  1.00  0.00     0.252 C 
HETATM   27  N   UNL     1      41.257 -12.281   2.599  1.00  0.00    -0.353 N 
HETATM   28  H   UNL     1      41.996 -12.173   3.281  1.00  0.00     0.163 HD
HETATM   29  O   UNL     1      38.984 -12.276   2.274  1.00  0.00    -0.268 OA
BRANCH  27  30
HETATM   30  C   UNL     1      41.554 -13.032   1.401  1.00  0.00     0.161 C 
BRANCH  30  31
HETATM   31  C   UNL     1      41.877 -14.465   1.732  1.00  0.00    -0.041 A 
HETATM   32  C   UNL     1      40.865 -15.373   2.067  1.00  0.00     0.009 A 
HETATM   33  C   UNL     1      41.175 -16.702   2.366  1.00  0.00     0.001 A 
HETATM   34  C   UNL     1      42.500 -17.133   2.336  1.00  0.00     0.000 A 
HETATM   35  C   UNL     1      43.518 -16.239   2.009  1.00  0.00     0.001 A 
HETATM   36  C   UNL     1      43.208 -14.911   1.708  1.00  0.00     0.009 A 
ENDBRANCH  30  31
ENDBRANCH  27  30
ENDBRANCH   8  26
TORSDOF 8
ENDMDL
MODEL 10
REMARK VINA RESULT:      -8.1     16.008     18.833
REMARK  8 active torsions:
REMARK  status: ('A' for Active; 'I' for Inactive)
REMARK    1  A    between atoms: C_7  and  C_8 
REMARK    2  A    between atoms: C_10  and  O_11 
REMARK    3  A    between atoms: C_13  and  O_14 
REMARK    4  A    between atoms: O_14  and  C_15 
REMARK    5  A    between atoms: C_15  and  C_16 
REMARK       I    between atoms: C_16  and  N_17 
REMARK    6  A    between atoms: C_21  and  C_22 
REMARK       I    between atoms: C_22  and  N_23 
REMARK    7  A    between atoms: N_23  and  C_24 
REMARK    8  A    between atoms: C_24  and  C_25 
ROOT
HETATM    1  C   UNL     1      43.522 -29.136   0.063  1.00  0.00     0.069 C 
HETATM    2  C   UNL     1      44.765 -28.837  -0.725  1.00  0.00     0.024 C 
HETATM    3  N   UNL     1      44.574 -28.668  -2.079  1.00  0.00    -0.312 N 
HETATM    4  C   UNL     1      45.517 -28.239  -2.963  1.00  0.00     0.321 C 
HETATM    5  O   UNL     1      45.264 -28.078  -4.151  1.00  0.00    -0.247 OA
HETATM    6  N   UNL     1      46.746 -27.978  -2.454  1.00  0.00    -0.330 N 
HETATM    7  C   UNL     1      47.178 -28.314  -1.110  1.00  0.00     0.160 C 
HETATM    8  C   UNL     1      46.010 -28.682  -0.236  1.00  0.00     0.059 C 
HETATM    9  H   UNL     1      43.651 -28.786  -2.482  1.00  0.00     0.170 HD
HETATM   10  H   UNL     1      47.436 -27.681  -3.129  1.00  0.00     0.165 HD
ENDROOT
BRANCH   7  11
HETATM   11  C   UNL     1      48.233 -29.412  -1.184  1.00  0.00    -0.028 A 
HETATM   12  C   UNL     1      48.107 -30.481  -2.090  1.00  0.00     0.049 A 
HETATM   13  C   UNL     1      49.080 -31.482  -2.163  1.00  0.00     0.102 A 
HETATM   14  C   UNL     1      50.191 -31.426  -1.304  1.00  0.00     0.102 A 
HETATM   15  C   UNL     1      50.333 -30.362  -0.411  1.00  0.00     0.040 A 
HETATM   16  C   UNL     1      49.355 -29.366  -0.346  1.00  0.00     0.012 A 
BRANCH  13  17
HETATM   17  O   UNL     1      49.025 -32.564  -3.008  1.00  0.00    -0.353 OA
HETATM   18  C   UNL     1      47.747 -33.148  -3.229  1.00  0.00     0.210 C 
ENDBRANCH  13  17
BRANCH  14  19
HETATM   19  O   UNL     1      51.117 -32.427  -1.444  1.00  0.00    -0.339 OA
BRANCH  19  20
HETATM   20  C   UNL     1      52.251 -32.367  -0.584  1.00  0.00     0.278 C 
BRANCH  20  21
HETATM   21  C   UNL     1      53.522 -32.430  -1.425  1.00  0.00     0.239 C 
HETATM   22  N   UNL     1      53.436 -31.854  -2.661  1.00  0.00    -0.368 N 
HETATM   23  H   UNL     1      52.659 -31.230  -2.859  1.00  0.00     0.159 HD
HETATM   24  H   UNL     1      54.273 -31.796  -3.223  1.00  0.00     0.159 HD
HETATM   25  O   UNL     1      54.545 -33.001  -1.061  1.00  0.00    -0.271 OA
ENDBRANCH  20  21
ENDBRANCH  19  20
ENDBRANCH  14  19
ENDBRANCH   7  11
BRANCH   8  26
HETATM   26  C   UNL     1      46.344 -28.797   1.207  1.00  0.00     0.252 C 
HETATM   27  N   UNL     1      46.293 -30.069   1.709  1.00  0.00    -0.353 N 
HETATM   28  H   UNL     1      46.179 -30.853   1.079  1.00  0.00     0.163 HD
HETATM   29  O   UNL     1      46.703 -27.815   1.846  1.00  0.00    -0.268 OA
BRANCH  27  30
HETATM   30  C   UNL     1      46.689 -30.352   3.069  1.00  0.00     0.161 C 
BRANCH  30  31
HETATM   31  C   UNL     1      48.168 -30.617   3.154  1.00  0.00    -0.041 A 
HETATM   32  C   UNL     1      49.031 -29.695   3.760  1.00  0.00     0.009 A 
HETATM   33  C   UNL     1      50.402 -29.954   3.840  1.00  0.00     0.001 A 
HETATM   34  C   UNL     1      50.922 -31.134   3.310  1.00  0.00     0.000 A 
HETATM   35  C   UNL     1      50.075 -32.057   2.700  1.00  0.00     0.001 A 
HETATM   36  C   UNL     1      48.705 -31.800   2.623  1.00  0.00     0.009 A 
ENDBRANCH  30  31
ENDBRANCH  27  30
ENDBRANCH   8  26
TORSDOF 8
ENDMDL
