MODEL 1
REMARK VINA RESULT:      -8.7      0.000      0.000
REMARK  6 active torsions:
REMARK  status: ('A' for Active; 'I' for Inactive)
REMARK    1  A    between atoms: C_4  and  C_5 
REMARK    2  A    between atoms: C_6  and  C_7 
REMARK    3  A    between atoms: C_7  and  C_8 
REMARK    4  A    between atoms: C_8  and  C_9 
REMARK       I    between atoms: C_9  and  N_10 
REMARK    5  A    between atoms: N_10  and  C_11 
REMARK    6  A    between atoms: C_18  and  C_19 
REMARK       I    between atoms: C_19  and  N_20 
ROOT
HETATM    1  C   UNL     1      41.689 -14.502   2.519  1.00  0.00     0.035 A 
HETATM    2  C   UNL     1      41.606 -13.641   1.415  1.00  0.00     0.046 A 
HETATM    3  C   UNL     1      40.708 -13.938   0.365  1.00  0.00     0.030 A 
HETATM    4  C   UNL     1      39.939 -15.092   0.447  1.00  0.00     0.063 A 
HETATM    5  N   UNL     1      39.194 -15.114  -0.698  1.00  0.00    -0.277 N 
HETATM    6  H   UNL     1      38.521 -15.818  -0.979  1.00  0.00     0.189 HD
HETATM    7  N   UNL     1      39.394 -14.066  -1.513  1.00  0.00    -0.168 NA
HETATM    8  C   UNL     1      40.326 -13.327  -0.868  1.00  0.00     0.156 A 
HETATM    9  C   UNL     1      39.997 -15.972   1.528  1.00  0.00     0.034 A 
HETATM   10  C   UNL     1      40.881 -15.647   2.564  1.00  0.00     0.032 A 
ENDROOT
BRANCH   1  11
HETATM   11  N   UNL     1      42.536 -14.282   3.627  1.00  0.00    -0.327 N 
HETATM   12  C   UNL     1      42.174 -13.874   4.897  1.00  0.00     0.222 C 
HETATM   13  O   UNL     1      41.041 -13.598   5.276  1.00  0.00    -0.273 OA
HETATM   14  H   UNL     1      43.523 -14.405   3.450  1.00  0.00     0.169 HD
BRANCH  12  15
HETATM   15  C   UNL     1      43.335 -13.832   5.881  1.00  0.00     0.107 C 
BRANCH  15  16
HETATM   16  C   UNL     1      43.692 -15.170   6.531  1.00  0.00     0.036 C 
BRANCH  16  17
HETATM   17  C   UNL     1      43.480 -16.435   5.744  1.00  0.00    -0.025 C 
HETATM   18  C   UNL     1      44.399 -17.136   5.061  1.00  0.00     0.007 C 
BRANCH  18  19
HETATM   19  C   UNL     1      44.087 -18.359   4.307  1.00  0.00    -0.036 A 
HETATM   20  C   UNL     1      43.657 -18.242   2.979  1.00  0.00     0.011 A 
HETATM   21  C   UNL     1      43.373 -19.381   2.221  1.00  0.00     0.001 A 
HETATM   22  C   UNL     1      43.527 -20.648   2.781  1.00  0.00     0.000 A 
HETATM   23  C   UNL     1      43.972 -20.777   4.095  1.00  0.00     0.001 A 
HETATM   24  C   UNL     1      44.256 -19.638   4.853  1.00  0.00     0.011 A 
ENDBRANCH  18  19
ENDBRANCH  16  17
ENDBRANCH  15  16
ENDBRANCH  12  15
ENDBRANCH   1  11
BRANCH   8  25
HETATM   25  C   UNL     1      40.816 -12.063  -1.434  1.00  0.00     0.270 C 
HETATM   26  N   UNL     1      41.654 -12.219  -2.505  1.00  0.00    -0.365 N 
HETATM   27  H   UNL     1      41.859 -13.158  -2.827  1.00  0.00     0.159 HD
HETATM   28  H   UNL     1      42.025 -11.407  -2.971  1.00  0.00     0.159 HD
HETATM   29  O   UNL     1      40.520 -10.948  -1.020  1.00  0.00    -0.266 OA
ENDBRANCH   8  25
TORSDOF 6
ENDMDL
MODEL 2
REMARK VINA RESULT:      -8.3      4.250      7.571
REMARK  6 active torsions:
REMARK  status: ('A' for Active; 'I' for Inactive)
REMARK    1  A    between atoms: C_4  and  C_5 
REMARK    2  A    between atoms: C_6  and  C_7 
REMARK    3  A    between atoms: C_7  and  C_8 
REMARK    4  A    between atoms: C_8  and  C_9 
REMARK       I    between atoms: C_9  and  N_10 
REMARK    5  A    between atoms: N_10  and  C_11 
REMARK    6  A    between atoms: C_18  and  C_19 
REMARK       I    between atoms: C_19  and  N_20 
ROOT
HETATM    1  C   UNL     1      44.121 -11.742   6.332  1.00  0.00     0.035 A 
HETATM    2  C   UNL     1      43.320 -11.119   7.299  1.00  0.00     0.046 A 
HETATM    3  C   UNL     1      43.924 -10.317   8.293  1.00  0.00     0.030 A 
HETATM    4  C   UNL     1      45.307 -10.180   8.295  1.00  0.00     0.063 A 
HETATM    5  N   UNL     1      45.591  -9.372   9.360  1.00  0.00    -0.277 N 
HETATM    6  H   UNL     1      46.505  -9.063   9.670  1.00  0.00     0.189 HD
HETATM    7  N   UNL     1      44.514  -8.953  10.044  1.00  0.00    -0.168 NA
HETATM    8  C   UNL     1      43.475  -9.526   9.394  1.00  0.00     0.156 A 
HETATM    9  C   UNL     1      46.135 -10.787   7.350  1.00  0.00     0.034 A 
HETATM   10  C   UNL     1      45.511 -11.563   6.366  1.00  0.00     0.032 A 
ENDROOT
BRANCH   1  11
HETATM   11  N   UNL     1      43.612 -12.544   5.287  1.00  0.00    -0.327 N 
HETATM   12  C   UNL     1      43.602 -12.259   3.934  1.00  0.00     0.222 C 
HETATM   13  O   UNL     1      44.012 -11.231   3.405  1.00  0.00    -0.273 OA
HETATM   14  H   UNL     1      43.173 -13.407   5.575  1.00  0.00     0.169 HD
BRANCH  12  15
HETATM   15  C   UNL     1      43.063 -13.394   3.073  1.00  0.00     0.107 C 
BRANCH  15  16
HETATM   16  C   UNL     1      42.126 -14.369   3.787  1.00  0.00     0.036 C 
BRANCH  16  17
HETATM   17  C   UNL     1      42.529 -15.816   3.887  1.00  0.00    -0.025 C 
HETATM   18  C   UNL     1      42.979 -16.609   2.902  1.00  0.00     0.007 C 
BRANCH  18  19
HETATM   19  C   UNL     1      43.333 -18.022   3.099  1.00  0.00    -0.036 A 
HETATM   20  C   UNL     1      43.877 -18.417   4.328  1.00  0.00     0.011 A 
HETATM   21  C   UNL     1      44.205 -19.755   4.563  1.00  0.00     0.001 A 
HETATM   22  C   UNL     1      43.982 -20.712   3.575  1.00  0.00     0.000 A 
HETATM   23  C   UNL     1      43.424 -20.334   2.355  1.00  0.00     0.001 A 
HETATM   24  C   UNL     1      43.097 -18.996   2.120  1.00  0.00     0.011 A 
ENDBRANCH  18  19
ENDBRANCH  16  17
ENDBRANCH  15  16
ENDBRANCH  12  15
ENDBRANCH   1  11
BRANCH   8  25
HETATM   25  C   UNL     1      42.090  -9.298   9.830  1.00  0.00     0.270 C 
HETATM   26  N   UNL     1      41.702 -10.078  10.886  1.00  0.00    -0.365 N 
HETATM   27  H   UNL     1      42.373 -10.723  11.284  1.00  0.00     0.159 HD
HETATM   28  H   UNL     1      40.774  -9.978  11.265  1.00  0.00     0.159 HD
HETATM   29  O   UNL     1      41.321  -8.486   9.326  1.00  0.00    -0.266 OA
ENDBRANCH   8  25
TORSDOF 6
ENDMDL
MODEL 3
REMARK VINA RESULT:      -8.1      1.900      2.285
REMARK  6 active torsions:
REMARK  status: ('A' for Active; 'I' for Inactive)
REMARK    1  A    between atoms: C_4  and  C_5 
REMARK    2  A    between atoms: C_6  and  C_7 
REMARK    3  A    between atoms: C_7  and  C_8 
REMARK    4  A    between atoms: C_8  and  C_9 
REMARK       I    between atoms: C_9  and  N_10 
REMARK    5  A    between atoms: N_10  and  C_11 
REMARK    6  A    between atoms: C_18  and  C_19 
REMARK       I    between atoms: C_19  and  N_20 
ROOT
HETATM    1  C   UNL     1      40.803 -14.571   3.616  1.00  0.00     0.035 A 
HETATM    2  C   UNL     1      40.205 -13.362   3.233  1.00  0.00     0.046 A 
HETATM    3  C   UNL     1      39.793 -13.182   1.893  1.00  0.00     0.030 A 
HETATM    4  C   UNL     1      40.007 -14.209   0.982  1.00  0.00     0.063 A 
HETATM    5  N   UNL     1      39.524 -13.745  -0.209  1.00  0.00    -0.277 N 
HETATM    6  H   UNL     1      39.520 -14.228  -1.099  1.00  0.00     0.189 HD
HETATM    7  N   UNL     1      38.996 -12.512  -0.153  1.00  0.00    -0.168 NA
HETATM    8  C   UNL     1      39.152 -12.151   1.142  1.00  0.00     0.156 A 
HETATM    9  C   UNL     1      40.600 -15.424   1.328  1.00  0.00     0.034 A 
HETATM   10  C   UNL     1      40.984 -15.584   2.664  1.00  0.00     0.032 A 
ENDROOT
BRANCH   1  11
HETATM   11  N   UNL     1      41.228 -14.857   4.932  1.00  0.00    -0.327 N 
HETATM   12  C   UNL     1      42.359 -14.386   5.573  1.00  0.00     0.222 C 
HETATM   13  O   UNL     1      43.216 -13.654   5.090  1.00  0.00    -0.273 OA
HETATM   14  H   UNL     1      40.652 -15.510   5.444  1.00  0.00     0.169 HD
BRANCH  12  15
HETATM   15  C   UNL     1      42.461 -14.817   7.030  1.00  0.00     0.107 C 
BRANCH  15  16
HETATM   16  C   UNL     1      43.225 -16.118   7.277  1.00  0.00     0.036 C 
BRANCH  16  17
HETATM   17  C   UNL     1      43.169 -17.199   6.231  1.00  0.00    -0.025 C 
HETATM   18  C   UNL     1      44.080 -17.467   5.282  1.00  0.00     0.007 C 
BRANCH  18  19
HETATM   19  C   UNL     1      43.924 -18.542   4.291  1.00  0.00    -0.036 A 
HETATM   20  C   UNL     1      44.138 -19.867   4.692  1.00  0.00     0.011 A 
HETATM   21  C   UNL     1      43.976 -20.918   3.786  1.00  0.00     0.001 A 
HETATM   22  C   UNL     1      43.589 -20.655   2.473  1.00  0.00     0.000 A 
HETATM   23  C   UNL     1      43.356 -19.342   2.068  1.00  0.00     0.001 A 
HETATM   24  C   UNL     1      43.518 -18.291   2.974  1.00  0.00     0.011 A 
ENDBRANCH  18  19
ENDBRANCH  16  17
ENDBRANCH  15  16
ENDBRANCH  12  15
ENDBRANCH   1  11
BRANCH   8  25
HETATM   25  C   UNL     1      38.679 -10.847   1.627  1.00  0.00     0.270 C 
HETATM   26  N   UNL     1      37.318 -10.758   1.750  1.00  0.00    -0.365 N 
HETATM   27  H   UNL     1      36.757 -11.569   1.518  1.00  0.00     0.159 HD
HETATM   28  H   UNL     1      36.903  -9.907   2.093  1.00  0.00     0.159 HD
HETATM   29  O   UNL     1      39.404  -9.901   1.915  1.00  0.00    -0.266 OA
ENDBRANCH   8  25
TORSDOF 6
ENDMDL
MODEL 4
REMARK VINA RESULT:      -8.0      2.068      2.774
REMARK  6 active torsions:
REMARK  status: ('A' for Active; 'I' for Inactive)
REMARK    1  A    between atoms: C_4  and  C_5 
REMARK    2  A    between atoms: C_6  and  C_7 
REMARK    3  A    between atoms: C_7  and  C_8 
REMARK    4  A    between atoms: C_8  and  C_9 
REMARK       I    between atoms: C_9  and  N_10 
REMARK    5  A    between atoms: N_10  and  C_11 
REMARK    6  A    between atoms: C_18  and  C_19 
REMARK       I    between atoms: C_19  and  N_20 
ROOT
HETATM    1  C   UNL     1      40.111 -12.945   1.921  1.00  0.00     0.035 A 
HETATM    2  C   UNL     1      39.979 -13.499   0.640  1.00  0.00     0.046 A 
HETATM    3  C   UNL     1      39.080 -12.917  -0.282  1.00  0.00     0.030 A 
HETATM    4  C   UNL     1      38.334 -11.814   0.115  1.00  0.00     0.063 A 
HETATM    5  N   UNL     1      37.562 -11.489  -0.966  1.00  0.00    -0.277 N 
HETATM    6  H   UNL     1      36.888 -10.736  -1.034  1.00  0.00     0.189 HD
HETATM    7  N   UNL     1      37.752 -12.271  -2.040  1.00  0.00    -0.168 NA
HETATM    8  C   UNL     1      38.690 -13.158  -1.634  1.00  0.00     0.156 A 
HETATM    9  C   UNL     1      38.438 -11.238   1.382  1.00  0.00     0.034 A 
HETATM   10  C   UNL     1      39.347 -11.823   2.271  1.00  0.00     0.032 A 
ENDROOT
BRANCH   1  11
HETATM   11  N   UNL     1      40.996 -13.439   2.905  1.00  0.00    -0.327 N 
HETATM   12  C   UNL     1      42.277 -13.000   3.183  1.00  0.00     0.222 C 
HETATM   13  O   UNL     1      42.885 -12.113   2.593  1.00  0.00    -0.273 OA
HETATM   14  H   UNL     1      40.658 -14.229   3.437  1.00  0.00     0.169 HD
BRANCH  12  15
HETATM   15  C   UNL     1      42.915 -13.693   4.379  1.00  0.00     0.107 C 
BRANCH  15  16
HETATM   16  C   UNL     1      42.067 -14.783   5.034  1.00  0.00     0.036 C 
BRANCH  16  17
HETATM   17  C   UNL     1      42.340 -16.221   4.684  1.00  0.00    -0.025 C 
HETATM   18  C   UNL     1      43.418 -16.718   4.056  1.00  0.00     0.007 C 
BRANCH  18  19
HETATM   19  C   UNL     1      43.586 -18.145   3.743  1.00  0.00    -0.036 A 
HETATM   20  C   UNL     1      44.015 -19.013   4.755  1.00  0.00     0.011 A 
HETATM   21  C   UNL     1      44.164 -20.379   4.504  1.00  0.00     0.001 A 
HETATM   22  C   UNL     1      43.875 -20.892   3.241  1.00  0.00     0.000 A 
HETATM   23  C   UNL     1      43.430 -20.041   2.231  1.00  0.00     0.001 A 
HETATM   24  C   UNL     1      43.281 -18.674   2.482  1.00  0.00     0.011 A 
ENDBRANCH  18  19
ENDBRANCH  16  17
ENDBRANCH  15  16
ENDBRANCH  12  15
ENDBRANCH   1  11
BRANCH   8  25
HETATM   25  C   UNL     1      39.195 -14.196  -2.543  1.00  0.00     0.270 C 
HETATM   26  N   UNL     1      38.546 -15.396  -2.434  1.00  0.00    -0.365 N 
HETATM   27  H   UNL     1      37.785 -15.477  -1.770  1.00  0.00     0.159 HD
HETATM   28  H   UNL     1      38.811 -16.163  -3.031  1.00  0.00     0.159 HD
HETATM   29  O   UNL     1      40.108 -14.041  -3.347  1.00  0.00    -0.266 OA
ENDBRANCH   8  25
TORSDOF 6
ENDMDL
MODEL 5
REMARK VINA RESULT:      -7.7      5.504      8.804
REMARK  6 active torsions:
REMARK  status: ('A' for Active; 'I' for Inactive)
REMARK    1  A    between atoms: C_4  and  C_5 
REMARK    2  A    between atoms: C_6  and  C_7 
REMARK    3  A    between atoms: C_7  and  C_8 
REMARK    4  A    between atoms: C_8  and  C_9 
REMARK       I    between atoms: C_9  and  N_10 
REMARK    5  A    between atoms: N_10  and  C_11 
REMARK    6  A    between atoms: C_18  and  C_19 
REMARK       I    between atoms: C_19  and  N_20 
ROOT
HETATM    1  C   UNL     1      43.113 -13.225   6.425  1.00  0.00     0.035 A 
HETATM    2  C   UNL     1      42.275 -13.194   5.301  1.00  0.00     0.046 A 
HETATM    3  C   UNL     1      41.988 -14.394   4.612  1.00  0.00     0.030 A 
HETATM    4  C   UNL     1      42.562 -15.577   5.059  1.00  0.00     0.063 A 
HETATM    5  N   UNL     1      42.117 -16.543   4.201  1.00  0.00    -0.277 N 
HETATM    6  H   UNL     1      42.340 -17.532   4.222  1.00  0.00     0.189 HD
HETATM    7  N   UNL     1      41.289 -16.099   3.243  1.00  0.00    -0.168 NA
HETATM    8  C   UNL     1      41.196 -14.771   3.485  1.00  0.00     0.156 A 
HETATM    9  C   UNL     1      43.401 -15.645   6.172  1.00  0.00     0.034 A 
HETATM   10  C   UNL     1      43.657 -14.446   6.847  1.00  0.00     0.032 A 
ENDROOT
BRANCH   1  11
HETATM   11  N   UNL     1      43.442 -12.086   7.193  1.00  0.00    -0.327 N 
HETATM   12  C   UNL     1      44.626 -11.374   7.180  1.00  0.00     0.222 C 
HETATM   13  O   UNL     1      45.621 -11.631   6.511  1.00  0.00    -0.273 OA
HETATM   14  H   UNL     1      42.736 -11.788   7.852  1.00  0.00     0.169 HD
BRANCH  12  15
HETATM   15  C   UNL     1      44.606 -10.136   8.066  1.00  0.00     0.107 C 
BRANCH  15  16
HETATM   16  C   UNL     1      45.409 -10.245   9.363  1.00  0.00     0.036 C 
BRANCH  16  17
HETATM   17  C   UNL     1      44.799  -9.727  10.637  1.00  0.00    -0.025 C 
HETATM   18  C   UNL     1      43.501  -9.483  10.881  1.00  0.00     0.007 C 
BRANCH  18  19
HETATM   19  C   UNL     1      43.004  -8.959  12.162  1.00  0.00    -0.036 A 
HETATM   20  C   UNL     1      41.959  -9.633  12.808  1.00  0.00     0.011 A 
HETATM   21  C   UNL     1      41.475  -9.180  14.038  1.00  0.00     0.001 A 
HETATM   22  C   UNL     1      42.038  -8.056  14.638  1.00  0.00     0.000 A 
HETATM   23  C   UNL     1      43.090  -7.388  14.014  1.00  0.00     0.001 A 
HETATM   24  C   UNL     1      43.574  -7.841  12.784  1.00  0.00     0.011 A 
ENDBRANCH  18  19
ENDBRANCH  16  17
ENDBRANCH  15  16
ENDBRANCH  12  15
ENDBRANCH   1  11
BRANCH   8  25
HETATM   25  C   UNL     1      40.352 -13.906   2.650  1.00  0.00     0.270 C 
HETATM   26  N   UNL     1      39.017 -14.198   2.714  1.00  0.00    -0.365 N 
HETATM   27  H   UNL     1      38.715 -14.953   3.320  1.00  0.00     0.159 HD
HETATM   28  H   UNL     1      38.358 -13.646   2.189  1.00  0.00     0.159 HD
HETATM   29  O   UNL     1      40.766 -12.989   1.949  1.00  0.00    -0.266 OA
ENDBRANCH   8  25
TORSDOF 6
ENDMDL
MODEL 6
REMARK VINA RESULT:      -7.6      2.866      7.549
REMARK  6 active torsions:
REMARK  status: ('A' for Active; 'I' for Inactive)
REMARK    1  A    between atoms: C_4  and  C_5 
REMARK    2  A    between atoms: C_6  and  C_7 
REMARK    3  A    between atoms: C_7  and  C_8 
REMARK    4  A    between atoms: C_8  and  C_9 
REMARK       I    between atoms: C_9  and  N_10 
REMARK    5  A    between atoms: N_10  and  C_11 
REMARK    6  A    between atoms: C_18  and  C_19 
REMARK       I    between atoms: C_19  and  N_20 
ROOT
HETATM    1  C   UNL     1      42.455 -14.529   2.869  1.00  0.00     0.035 A 
HETATM    2  C   UNL     1      42.858 -15.118   4.076  1.00  0.00     0.046 A 
HETATM    3  C   UNL     1      43.379 -16.432   4.071  1.00  0.00     0.030 A 
HETATM    4  C   UNL     1      43.463 -17.115   2.864  1.00  0.00     0.063 A 
HETATM    5  N   UNL     1      43.984 -18.340   3.175  1.00  0.00    -0.277 N 
HETATM    6  H   UNL     1      44.178 -19.103   2.538  1.00  0.00     0.189 HD
HETATM    7  N   UNL     1      44.265 -18.511   4.476  1.00  0.00    -0.168 NA
HETATM    8  C   UNL     1      43.899 -17.338   5.044  1.00  0.00     0.156 A 
HETATM    9  C   UNL     1      43.070 -16.561   1.645  1.00  0.00     0.034 A 
HETATM   10  C   UNL     1      42.573 -15.252   1.674  1.00  0.00     0.032 A 
ENDROOT
BRANCH   1  11
HETATM   11  N   UNL     1      41.944 -13.217   2.766  1.00  0.00    -0.327 N 
HETATM   12  C   UNL     1      42.652 -12.030   2.811  1.00  0.00     0.222 C 
HETATM   13  O   UNL     1      43.860 -11.911   2.982  1.00  0.00    -0.273 OA
HETATM   14  H   UNL     1      40.939 -13.147   2.688  1.00  0.00     0.169 HD
BRANCH  12  15
HETATM   15  C   UNL     1      41.794 -10.796   2.568  1.00  0.00     0.107 C 
BRANCH  15  16
HETATM   16  C   UNL     1      41.633 -10.388   1.103  1.00  0.00     0.036 C 
BRANCH  16  17
HETATM   17  C   UNL     1      40.641 -11.132   0.250  1.00  0.00    -0.025 C 
HETATM   18  C   UNL     1      40.881 -12.178  -0.557  1.00  0.00     0.007 C 
BRANCH  18  19
HETATM   19  C   UNL     1      39.840 -12.829  -1.367  1.00  0.00    -0.036 A 
HETATM   20  C   UNL     1      38.558 -12.267  -1.399  1.00  0.00     0.011 A 
HETATM   21  C   UNL     1      37.549 -12.843  -2.175  1.00  0.00     0.001 A 
HETATM   22  C   UNL     1      37.815 -13.981  -2.934  1.00  0.00     0.000 A 
HETATM   23  C   UNL     1      39.092 -14.539  -2.923  1.00  0.00     0.001 A 
HETATM   24  C   UNL     1      40.101 -13.963  -2.147  1.00  0.00     0.011 A 
ENDBRANCH  18  19
ENDBRANCH  16  17
ENDBRANCH  15  16
ENDBRANCH  12  15
ENDBRANCH   1  11
BRANCH   8  25
HETATM   25  C   UNL     1      44.065 -17.111   6.486  1.00  0.00     0.270 C 
HETATM   26  N   UNL     1      43.333 -17.958   7.272  1.00  0.00    -0.365 N 
HETATM   27  H   UNL     1      42.761 -18.663   6.823  1.00  0.00     0.159 HD
HETATM   28  H   UNL     1      43.396 -17.889   8.275  1.00  0.00     0.159 HD
HETATM   29  O   UNL     1      44.789 -16.255   6.982  1.00  0.00    -0.266 OA
ENDBRANCH   8  25
TORSDOF 6
ENDMDL
MODEL 7
REMARK VINA RESULT:      -7.6      6.532      9.943
REMARK  6 active torsions:
REMARK  status: ('A' for Active; 'I' for Inactive)
REMARK    1  A    between atoms: C_4  and  C_5 
REMARK    2  A    between atoms: C_6  and  C_7 
REMARK    3  A    between atoms: C_7  and  C_8 
REMARK    4  A    between atoms: C_8  and  C_9 
REMARK       I    between atoms: C_9  and  N_10 
REMARK    5  A    between atoms: N_10  and  C_11 
REMARK    6  A    between atoms: C_18  and  C_19 
REMARK       I    between atoms: C_19  and  N_20 
ROOT
HETATM    1  C   UNL     1      43.597  -9.228  10.449  1.00  0.00     0.035 A 
HETATM    2  C   UNL     1      42.243  -9.381  10.117  1.00  0.00     0.046 A 
HETATM    3  C   UNL     1      41.251  -9.061  11.071  1.00  0.00     0.030 A 
HETATM    4  C   UNL     1      41.646  -8.617  12.326  1.00  0.00     0.063 A 
HETATM    5  N   UNL     1      40.487  -8.404  13.018  1.00  0.00    -0.277 N 
HETATM    6  H   UNL     1      40.394  -8.081  13.974  1.00  0.00     0.189 HD
HETATM    7  N   UNL     1      39.368  -8.653  12.320  1.00  0.00    -0.168 NA
HETATM    8  C   UNL     1      39.823  -9.057  11.111  1.00  0.00     0.156 A 
HETATM    9  C   UNL     1      42.983  -8.454  12.692  1.00  0.00     0.034 A 
HETATM   10  C   UNL     1      43.947  -8.762  11.724  1.00  0.00     0.032 A 
ENDROOT
BRANCH   1  11
HETATM   11  N   UNL     1      44.661  -9.499   9.561  1.00  0.00    -0.327 N 
HETATM   12  C   UNL     1      45.221  -8.643   8.630  1.00  0.00     0.222 C 
HETATM   13  O   UNL     1      44.862  -7.495   8.392  1.00  0.00    -0.273 OA
HETATM   14  H   UNL     1      45.024 -10.441   9.591  1.00  0.00     0.169 HD
BRANCH  12  15
HETATM   15  C   UNL     1      46.423  -9.231   7.904  1.00  0.00     0.107 C 
BRANCH  15  16
HETATM   16  C   UNL     1      46.395 -10.747   7.712  1.00  0.00     0.036 C 
BRANCH  16  17
HETATM   17  C   UNL     1      45.365 -11.341   6.790  1.00  0.00    -0.025 C 
HETATM   18  C   UNL     1      44.309 -12.100   7.124  1.00  0.00     0.007 C 
BRANCH  18  19
HETATM   19  C   UNL     1      43.363 -12.649   6.141  1.00  0.00    -0.036 A 
HETATM   20  C   UNL     1      43.400 -14.020   5.860  1.00  0.00     0.011 A 
HETATM   21  C   UNL     1      42.503 -14.583   4.949  1.00  0.00     0.001 A 
HETATM   22  C   UNL     1      41.553 -13.782   4.319  1.00  0.00     0.000 A 
HETATM   23  C   UNL     1      41.495 -12.419   4.605  1.00  0.00     0.001 A 
HETATM   24  C   UNL     1      42.393 -11.856   5.515  1.00  0.00     0.011 A 
ENDBRANCH  18  19
ENDBRANCH  16  17
ENDBRANCH  15  16
ENDBRANCH  12  15
ENDBRANCH   1  11
BRANCH   8  25
HETATM   25  C   UNL     1      38.893  -9.416  10.032  1.00  0.00     0.270 C 
HETATM   26  N   UNL     1      38.638 -10.757   9.938  1.00  0.00    -0.365 N 
HETATM   27  H   UNL     1      39.082 -11.382  10.600  1.00  0.00     0.159 HD
HETATM   28  H   UNL     1      37.998 -11.096   9.238  1.00  0.00     0.159 HD
HETATM   29  O   UNL     1      38.364  -8.616   9.268  1.00  0.00    -0.266 OA
ENDBRANCH   8  25
TORSDOF 6
ENDMDL
MODEL 8
REMARK VINA RESULT:      -7.5      3.441      7.683
REMARK  6 active torsions:
REMARK  status: ('A' for Active; 'I' for Inactive)
REMARK    1  A    between atoms: C_4  and  C_5 
REMARK    2  A    between atoms: C_6  and  C_7 
REMARK    3  A    between atoms: C_7  and  C_8 
REMARK    4  A    between atoms: C_8  and  C_9 
REMARK       I    between atoms: C_9  and  N_10 
REMARK    5  A    between atoms: N_10  and  C_11 
REMARK    6  A    between atoms: C_18  and  C_19 
REMARK       I    between atoms: C_19  and  N_20 
ROOT
HETATM    1  C   UNL     1      42.510 -15.932   2.091  1.00  0.00     0.035 A 
HETATM    2  C   UNL     1      42.828 -17.297   2.105  1.00  0.00     0.046 A 
HETATM    3  C   UNL     1      43.406 -17.866   3.262  1.00  0.00     0.030 A 
HETATM    4  C   UNL     1      43.660 -17.048   4.356  1.00  0.00     0.063 A 
HETATM    5  N   UNL     1      44.221 -17.865   5.298  1.00  0.00    -0.277 N 
HETATM    6  H   UNL     1      44.539 -17.604   6.224  1.00  0.00     0.189 HD
HETATM    7  N   UNL     1      44.338 -19.148   4.923  1.00  0.00    -0.168 NA
HETATM    8  C   UNL     1      43.836 -19.167   3.667  1.00  0.00     0.156 A 
HETATM    9  C   UNL     1      43.359 -15.686   4.376  1.00  0.00     0.034 A 
HETATM   10  C   UNL     1      42.772 -15.149   3.224  1.00  0.00     0.032 A 
ENDROOT
BRANCH   1  11
HETATM   11  N   UNL     1      41.911 -15.274   0.993  1.00  0.00    -0.327 N 
HETATM   12  C   UNL     1      40.562 -15.126   0.734  1.00  0.00     0.222 C 
HETATM   13  O   UNL     1      39.639 -15.573   1.407  1.00  0.00    -0.273 OA
HETATM   14  H   UNL     1      42.552 -14.906   0.305  1.00  0.00     0.169 HD
BRANCH  12  15
HETATM   15  C   UNL     1      40.264 -14.273  -0.491  1.00  0.00     0.107 C 
BRANCH  15  16
HETATM   16  C   UNL     1      40.630 -12.793  -0.364  1.00  0.00     0.036 C 
BRANCH  16  17
HETATM   17  C   UNL     1      40.652 -12.169   1.006  1.00  0.00    -0.025 C 
HETATM   18  C   UNL     1      41.727 -11.762   1.700  1.00  0.00     0.007 C 
BRANCH  18  19
HETATM   19  C   UNL     1      41.645 -11.176   3.046  1.00  0.00    -0.036 A 
HETATM   20  C   UNL     1      42.793 -11.162   3.849  1.00  0.00     0.011 A 
HETATM   21  C   UNL     1      42.761 -10.593   5.124  1.00  0.00     0.001 A 
HETATM   22  C   UNL     1      41.584 -10.023   5.605  1.00  0.00     0.000 A 
HETATM   23  C   UNL     1      40.441 -10.015   4.809  1.00  0.00     0.001 A 
HETATM   24  C   UNL     1      40.472 -10.584   3.533  1.00  0.00     0.011 A 
ENDBRANCH  18  19
ENDBRANCH  16  17
ENDBRANCH  15  16
ENDBRANCH  12  15
ENDBRANCH   1  11
BRANCH   8  25
HETATM   25  C   UNL     1      43.768 -20.415   2.896  1.00  0.00     0.270 C 
HETATM   26  N   UNL     1      44.104 -21.532   3.612  1.00  0.00    -0.365 N 
HETATM   27  H   UNL     1      44.353 -21.425   4.589  1.00  0.00     0.159 HD
HETATM   28  H   UNL     1      44.069 -22.437   3.172  1.00  0.00     0.159 HD
HETATM   29  O   UNL     1      43.439 -20.495   1.718  1.00  0.00    -0.266 OA
ENDBRANCH   8  25
TORSDOF 6
ENDMDL
MODEL 9
REMARK VINA RESULT:      -7.4      4.072      6.701
REMARK  6 active torsions:
REMARK  status: ('A' for Active; 'I' for Inactive)
REMARK    1  A    between atoms: C_4  and  C_5 
REMARK    2  A    between atoms: C_6  and  C_7 
REMARK    3  A    between atoms: C_7  and  C_8 
REMARK    4  A    between atoms: C_8  and  C_9 
REMARK       I    between atoms: C_9  and  N_10 
REMARK    5  A    between atoms: N_10  and  C_11 
REMARK    6  A    between atoms: C_18  and  C_19 
REMARK       I    between atoms: C_19  and  N_20 
ROOT
HETATM    1  C   UNL     1      42.881 -11.655   5.960  1.00  0.00     0.035 A 
HETATM    2  C   UNL     1      41.892 -10.715   6.285  1.00  0.00     0.046 A 
HETATM    3  C   UNL     1      42.048  -9.910   7.436  1.00  0.00     0.030 A 
HETATM    4  C   UNL     1      43.176 -10.082   8.228  1.00  0.00     0.063 A 
HETATM    5  N   UNL     1      43.042  -9.188   9.252  1.00  0.00    -0.277 N 
HETATM    6  H   UNL     1      43.680  -9.040  10.025  1.00  0.00     0.189 HD
HETATM    7  N   UNL     1      41.934  -8.433   9.190  1.00  0.00    -0.168 NA
HETATM    8  C   UNL     1      41.310  -8.864   8.070  1.00  0.00     0.156 A 
HETATM    9  C   UNL     1      44.179 -11.008   7.935  1.00  0.00     0.034 A 
HETATM   10  C   UNL     1      44.009 -11.783   6.782  1.00  0.00     0.032 A 
ENDROOT
BRANCH   1  11
HETATM   11  N   UNL     1      42.829 -12.491   4.823  1.00  0.00    -0.327 N 
HETATM   12  C   UNL     1      43.512 -12.336   3.631  1.00  0.00     0.222 C 
HETATM   13  O   UNL     1      44.269 -11.415   3.342  1.00  0.00    -0.273 OA
HETATM   14  H   UNL     1      42.187 -13.268   4.884  1.00  0.00     0.169 HD
BRANCH  12  15
HETATM   15  C   UNL     1      43.298 -13.480   2.649  1.00  0.00     0.107 C 
BRANCH  15  16
HETATM   16  C   UNL     1      42.154 -14.434   2.995  1.00  0.00     0.036 C 
BRANCH  16  17
HETATM   17  C   UNL     1      42.483 -15.860   3.346  1.00  0.00    -0.025 C 
HETATM   18  C   UNL     1      43.200 -16.735   2.622  1.00  0.00     0.007 C 
BRANCH  18  19
HETATM   19  C   UNL     1      43.454 -18.119   3.047  1.00  0.00    -0.036 A 
HETATM   20  C   UNL     1      43.212 -19.160   2.141  1.00  0.00     0.011 A 
HETATM   21  C   UNL     1      43.462 -20.487   2.500  1.00  0.00     0.001 A 
HETATM   22  C   UNL     1      43.968 -20.785   3.763  1.00  0.00     0.000 A 
HETATM   23  C   UNL     1      44.230 -19.757   4.667  1.00  0.00     0.001 A 
HETATM   24  C   UNL     1      43.979 -18.430   4.309  1.00  0.00     0.011 A 
ENDBRANCH  18  19
ENDBRANCH  16  17
ENDBRANCH  15  16
ENDBRANCH  12  15
ENDBRANCH   1  11
BRANCH   8  25
HETATM   25  C   UNL     1      40.042  -8.266   7.630  1.00  0.00     0.270 C 
HETATM   26  N   UNL     1      40.166  -7.414   6.567  1.00  0.00    -0.365 N 
HETATM   27  H   UNL     1      41.085  -7.270   6.165  1.00  0.00     0.159 HD
HETATM   28  H   UNL     1      39.347  -6.970   6.185  1.00  0.00     0.159 HD
HETATM   29  O   UNL     1      38.948  -8.489   8.138  1.00  0.00    -0.266 OA
ENDBRANCH   8  25
TORSDOF 6
ENDMDL
MODEL 10
REMARK VINA RESULT:      -7.4      3.218      6.289
REMARK  6 active torsions:
REMARK  status: ('A' for Active; 'I' for Inactive)
REMARK    1  A    between atoms: C_4  and  C_5 
REMARK    2  A    between atoms: C_6  and  C_7 
REMARK    3  A    between atoms: C_7  and  C_8 
REMARK    4  A    between atoms: C_8  and  C_9 
REMARK       I    between atoms: C_9  and  N_10 
REMARK    5  A    between atoms: N_10  and  C_11 
REMARK    6  A    between atoms: C_18  and  C_19 
REMARK       I    between atoms: C_19  and  N_20 
ROOT
HETATM    1  C   UNL     1      41.678 -12.726   4.929  1.00  0.00     0.035 A 
HETATM    2  C   UNL     1      41.501 -11.525   5.630  1.00  0.00     0.046 A 
HETATM    3  C   UNL     1      42.454 -11.137   6.599  1.00  0.00     0.030 A 
HETATM    4  C   UNL     1      43.538 -11.969   6.844  1.00  0.00     0.063 A 
HETATM    5  N   UNL     1      44.263 -11.345   7.820  1.00  0.00    -0.277 N 
HETATM    6  H   UNL     1      45.120 -11.671   8.251  1.00  0.00     0.189 HD
HETATM    7  N   UNL     1      43.758 -10.168   8.221  1.00  0.00    -0.168 NA
HETATM    8  C   UNL     1      42.640 -10.023   7.473  1.00  0.00     0.156 A 
HETATM    9  C   UNL     1      43.744 -13.172   6.167  1.00  0.00     0.034 A 
HETATM   10  C   UNL     1      42.796 -13.527   5.201  1.00  0.00     0.032 A 
ENDROOT
BRANCH   1  11
HETATM   11  N   UNL     1      40.796 -13.191   3.928  1.00  0.00    -0.327 N 
HETATM   12  C   UNL     1      40.938 -13.073   2.559  1.00  0.00     0.222 C 
HETATM   13  O   UNL     1      41.854 -12.509   1.969  1.00  0.00    -0.273 OA
HETATM   14  H   UNL     1      39.948 -13.625   4.264  1.00  0.00     0.169 HD
BRANCH  12  15
HETATM   15  C   UNL     1      39.845 -13.777   1.767  1.00  0.00     0.107 C 
BRANCH  15  16
HETATM   16  C   UNL     1      40.235 -15.130   1.171  1.00  0.00     0.036 C 
BRANCH  16  17
HETATM   17  C   UNL     1      41.051 -16.079   2.006  1.00  0.00    -0.025 C 
HETATM   18  C   UNL     1      42.334 -16.432   1.825  1.00  0.00     0.007 C 
BRANCH  18  19
HETATM   19  C   UNL     1      43.040 -17.386   2.692  1.00  0.00    -0.036 A 
HETATM   20  C   UNL     1      43.520 -16.945   3.932  1.00  0.00     0.011 A 
HETATM   21  C   UNL     1      44.176 -17.827   4.795  1.00  0.00     0.001 A 
HETATM   22  C   UNL     1      44.350 -19.160   4.430  1.00  0.00     0.000 A 
HETATM   23  C   UNL     1      43.861 -19.615   3.206  1.00  0.00     0.001 A 
HETATM   24  C   UNL     1      43.205 -18.733   2.344  1.00  0.00     0.011 A 
ENDBRANCH  18  19
ENDBRANCH  16  17
ENDBRANCH  15  16
ENDBRANCH  12  15
ENDBRANCH   1  11
BRANCH   8  25
HETATM   25  C   UNL     1      41.791  -8.830   7.602  1.00  0.00     0.270 C 
HETATM   26  N   UNL     1      42.450  -7.651   7.383  1.00  0.00    -0.365 N 
HETATM   27  H   UNL     1      43.434  -7.682   7.145  1.00  0.00     0.159 HD
HETATM   28  H   UNL     1      41.945  -6.780   7.432  1.00  0.00     0.159 HD
HETATM   29  O   UNL     1      40.595  -8.847   7.872  1.00  0.00    -0.266 OA
ENDBRANCH   8  25
TORSDOF 6
ENDMDL
