MODEL 1
REMARK VINA RESULT:      -9.6      0.000      0.000
REMARK  6 active torsions:
REMARK  status: ('A' for Active; 'I' for Inactive)
REMARK    1  A    between atoms: C_4  and  C_5 
REMARK    2  A    between atoms: C_5  and  N_6 
REMARK    3  A    between atoms: C_8  and  C_9 
REMARK       I    between atoms: C_9  and  N_10 
REMARK    4  A    between atoms: N_10  and  N_11 
REMARK    5  A    between atoms: C_12  and  C_13 
REMARK    6  A    between atoms: C_14  and  O_15 
ROOT
HETATM    1  C   UNL     1      44.167 -11.816   7.185  1.00  0.00     0.273 C 
HETATM    2  N   UNL     1      43.499 -12.999   7.457  1.00  0.00    -0.243 N 
HETATM    3  O   UNL     1      45.102 -11.702   6.396  1.00  0.00    -0.266 OA
HETATM    4  H   UNL     1      42.693 -13.058   8.066  1.00  0.00     0.192 HD
ENDROOT
BRANCH   2   5
HETATM    5  N   UNL     1      43.840 -14.098   6.730  1.00  0.00    -0.183 NA
HETATM    6  C   UNL     1      42.898 -14.963   6.503  1.00  0.00     0.153 C 
BRANCH   6   7
HETATM    7  C   UNL     1      43.144 -16.163   5.662  1.00  0.00     0.027 A 
HETATM    8  C   UNL     1      43.447 -17.387   6.288  1.00  0.00     0.078 A 
HETATM    9  C   UNL     1      43.755 -18.510   5.535  1.00  0.00     0.038 A 
HETATM   10  C   UNL     1      43.761 -18.430   4.146  1.00  0.00     0.015 A 
HETATM   11  C   UNL     1      43.448 -17.232   3.490  1.00  0.00    -0.025 A 
HETATM   12  C   UNL     1      43.123 -16.067   4.237  1.00  0.00    -0.012 A 
HETATM   13  C   UNL     1      43.458 -17.196   2.086  1.00  0.00     0.012 A 
HETATM   14  C   UNL     1      42.794 -14.901   3.494  1.00  0.00     0.013 A 
HETATM   15  C   UNL     1      42.805 -14.885   2.096  1.00  0.00     0.001 A 
HETATM   16  C   UNL     1      43.141 -16.031   1.393  1.00  0.00     0.001 A 
BRANCH   8  17
HETATM   17  O   UNL     1      43.478 -17.566   7.646  1.00  0.00    -0.360 OA
HETATM   18  H   UNL     1      43.171 -18.477   7.850  1.00  0.00     0.217 HD
ENDBRANCH   8  17
ENDBRANCH   6   7
ENDBRANCH   2   5
BRANCH   1  19
HETATM   19  C   UNL     1      43.696 -10.578   7.849  1.00  0.00     0.049 A 
HETATM   20  C   UNL     1      44.155 -10.370   9.152  1.00  0.00     0.108 A 
HETATM   21  N   UNL     1      43.830  -9.249   9.839  1.00  0.00    -0.361 N 
HETATM   22  C   UNL     1      43.033  -8.308   9.283  1.00  0.00     0.090 A 
HETATM   23  C   UNL     1      42.528  -8.483   7.997  1.00  0.00     0.018 A 
HETATM   24  C   UNL     1      42.860  -9.625   7.271  1.00  0.00     0.020 A 
BRANCH  21  25
HETATM   25  C   UNL     1      44.362  -9.051  11.213  1.00  0.00     0.166 C 
BRANCH  25  26
HETATM   26  C   UNL     1      43.242  -8.959  12.215  1.00  0.00    -0.040 A 
HETATM   27  C   UNL     1      42.243  -9.945  12.252  1.00  0.00     0.009 A 
HETATM   28  C   UNL     1      41.210  -9.873  13.188  1.00  0.00     0.001 A 
HETATM   29  C   UNL     1      41.163  -8.821  14.098  1.00  0.00     0.000 A 
HETATM   30  C   UNL     1      42.152  -7.841  14.080  1.00  0.00     0.001 A 
HETATM   31  C   UNL     1      43.189  -7.911  13.149  1.00  0.00     0.009 A 
ENDBRANCH  25  26
ENDBRANCH  21  25
ENDBRANCH   1  19
TORSDOF 6
ENDMDL
MODEL 2
REMARK VINA RESULT:      -9.5      1.880      2.826
REMARK  6 active torsions:
REMARK  status: ('A' for Active; 'I' for Inactive)
REMARK    1  A    between atoms: C_4  and  C_5 
REMARK    2  A    between atoms: C_5  and  N_6 
REMARK    3  A    between atoms: C_8  and  C_9 
REMARK       I    between atoms: C_9  and  N_10 
REMARK    4  A    between atoms: N_10  and  N_11 
REMARK    5  A    between atoms: C_12  and  C_13 
REMARK    6  A    between atoms: C_14  and  O_15 
ROOT
HETATM    1  C   UNL     1      44.607 -11.555   6.318  1.00  0.00     0.273 C 
HETATM    2  N   UNL     1      43.646 -12.547   6.416  1.00  0.00    -0.243 N 
HETATM    3  O   UNL     1      45.196 -11.246   5.285  1.00  0.00    -0.266 OA
HETATM    4  H   UNL     1      43.131 -12.745   7.265  1.00  0.00     0.192 HD
ENDROOT
BRANCH   2   5
HETATM    5  N   UNL     1      43.257 -13.165   5.267  1.00  0.00    -0.183 NA
HETATM    6  C   UNL     1      42.985 -14.433   5.349  1.00  0.00     0.153 C 
BRANCH   6   7
HETATM    7  C   UNL     1      42.485 -15.188   4.172  1.00  0.00     0.027 A 
HETATM    8  C   UNL     1      41.466 -14.626   3.379  1.00  0.00     0.078 A 
HETATM    9  C   UNL     1      40.923 -15.334   2.317  1.00  0.00     0.038 A 
HETATM   10  C   UNL     1      41.391 -16.611   2.026  1.00  0.00     0.015 A 
HETATM   11  C   UNL     1      42.415 -17.194   2.784  1.00  0.00    -0.025 A 
HETATM   12  C   UNL     1      42.994 -16.490   3.875  1.00  0.00    -0.012 A 
HETATM   13  C   UNL     1      42.864 -18.483   2.453  1.00  0.00     0.012 A 
HETATM   14  C   UNL     1      44.043 -17.144   4.575  1.00  0.00     0.013 A 
HETATM   15  C   UNL     1      44.481 -18.425   4.229  1.00  0.00     0.001 A 
HETATM   16  C   UNL     1      43.888 -19.096   3.170  1.00  0.00     0.001 A 
BRANCH   8  17
HETATM   17  O   UNL     1      40.931 -13.382   3.589  1.00  0.00    -0.360 OA
HETATM   18  H   UNL     1      40.316 -13.430   4.354  1.00  0.00     0.217 HD
ENDBRANCH   8  17
ENDBRANCH   6   7
ENDBRANCH   2   5
BRANCH   1  19
HETATM   19  C   UNL     1      44.921 -10.762   7.530  1.00  0.00     0.049 A 
HETATM   20  C   UNL     1      43.982 -10.827   8.563  1.00  0.00     0.108 A 
HETATM   21  N   UNL     1      44.187 -10.183   9.737  1.00  0.00    -0.361 N 
HETATM   22  C   UNL     1      45.302  -9.442   9.930  1.00  0.00     0.090 A 
HETATM   23  C   UNL     1      46.254  -9.326   8.920  1.00  0.00     0.018 A 
HETATM   24  C   UNL     1      46.065  -9.990   7.710  1.00  0.00     0.020 A 
BRANCH  21  25
HETATM   25  C   UNL     1      43.178 -10.299  10.822  1.00  0.00     0.166 C 
BRANCH  25  26
HETATM   26  C   UNL     1      42.888  -8.954  11.434  1.00  0.00    -0.040 A 
HETATM   27  C   UNL     1      42.262  -7.952  10.674  1.00  0.00     0.009 A 
HETATM   28  C   UNL     1      41.977  -6.708  11.239  1.00  0.00     0.001 A 
HETATM   29  C   UNL     1      42.310  -6.450  12.566  1.00  0.00     0.000 A 
HETATM   30  C   UNL     1      42.922  -7.436  13.334  1.00  0.00     0.001 A 
HETATM   31  C   UNL     1      43.205  -8.683  12.775  1.00  0.00     0.009 A 
ENDBRANCH  25  26
ENDBRANCH  21  25
ENDBRANCH   1  19
TORSDOF 6
ENDMDL
MODEL 3
REMARK VINA RESULT:      -9.4      6.758      9.968
REMARK  6 active torsions:
REMARK  status: ('A' for Active; 'I' for Inactive)
REMARK    1  A    between atoms: C_4  and  C_5 
REMARK    2  A    between atoms: C_5  and  N_6 
REMARK    3  A    between atoms: C_8  and  C_9 
REMARK       I    between atoms: C_9  and  N_10 
REMARK    4  A    between atoms: N_10  and  N_11 
REMARK    5  A    between atoms: C_12  and  C_13 
REMARK    6  A    between atoms: C_14  and  O_15 
ROOT
HETATM    1  C   UNL     1      40.174 -14.865   0.283  1.00  0.00     0.273 C 
HETATM    2  N   UNL     1      41.261 -14.405   1.008  1.00  0.00    -0.243 N 
HETATM    3  O   UNL     1      39.532 -15.878   0.546  1.00  0.00    -0.266 OA
HETATM    4  H   UNL     1      41.739 -13.535   0.807  1.00  0.00     0.192 HD
ENDROOT
BRANCH   2   5
HETATM    5  N   UNL     1      41.587 -15.072   2.149  1.00  0.00    -0.183 NA
HETATM    6  C   UNL     1      42.613 -15.866   2.088  1.00  0.00     0.153 C 
BRANCH   6   7
HETATM    7  C   UNL     1      43.097 -16.589   3.292  1.00  0.00     0.027 A 
HETATM    8  C   UNL     1      43.368 -15.860   4.466  1.00  0.00     0.078 A 
HETATM    9  C   UNL     1      43.891 -16.490   5.585  1.00  0.00     0.038 A 
HETATM   10  C   UNL     1      44.147 -17.856   5.553  1.00  0.00     0.015 A 
HETATM   11  C   UNL     1      43.875 -18.616   4.407  1.00  0.00    -0.025 A 
HETATM   12  C   UNL     1      43.333 -17.997   3.247  1.00  0.00    -0.012 A 
HETATM   13  C   UNL     1      44.142 -19.994   4.418  1.00  0.00     0.012 A 
HETATM   14  C   UNL     1      43.064 -18.843   2.138  1.00  0.00     0.013 A 
HETATM   15  C   UNL     1      43.331 -20.215   2.168  1.00  0.00     0.001 A 
HETATM   16  C   UNL     1      43.875 -20.789   3.307  1.00  0.00     0.001 A 
BRANCH   8  17
HETATM   17  O   UNL     1      43.160 -14.512   4.595  1.00  0.00    -0.360 OA
HETATM   18  H   UNL     1      43.933 -14.038   4.218  1.00  0.00     0.217 HD
ENDBRANCH   8  17
ENDBRANCH   6   7
ENDBRANCH   2   5
BRANCH   1  19
HETATM   19  C   UNL     1      39.707 -14.056  -0.867  1.00  0.00     0.049 A 
HETATM   20  C   UNL     1      39.482 -12.701  -0.611  1.00  0.00     0.108 A 
HETATM   21  N   UNL     1      39.100 -11.855  -1.598  1.00  0.00    -0.361 N 
HETATM   22  C   UNL     1      38.908 -12.309  -2.857  1.00  0.00     0.090 A 
HETATM   23  C   UNL     1      39.093 -13.657  -3.156  1.00  0.00     0.018 A 
HETATM   24  C   UNL     1      39.496 -14.540  -2.156  1.00  0.00     0.020 A 
BRANCH  21  25
HETATM   25  C   UNL     1      38.899 -10.415  -1.291  1.00  0.00     0.166 C 
BRANCH  25  26
HETATM   26  C   UNL     1      40.074  -9.596  -1.756  1.00  0.00    -0.040 A 
HETATM   27  C   UNL     1      41.255  -9.560  -0.997  1.00  0.00     0.009 A 
HETATM   28  C   UNL     1      42.352  -8.815  -1.429  1.00  0.00     0.001 A 
HETATM   29  C   UNL     1      42.287  -8.099  -2.622  1.00  0.00     0.000 A 
HETATM   30  C   UNL     1      41.125  -8.133  -3.390  1.00  0.00     0.001 A 
HETATM   31  C   UNL     1      40.027  -8.881  -2.964  1.00  0.00     0.009 A 
ENDBRANCH  25  26
ENDBRANCH  21  25
ENDBRANCH   1  19
TORSDOF 6
ENDMDL
MODEL 4
REMARK VINA RESULT:      -9.2      6.176      9.757
REMARK  6 active torsions:
REMARK  status: ('A' for Active; 'I' for Inactive)
REMARK    1  A    between atoms: C_4  and  C_5 
REMARK    2  A    between atoms: C_5  and  N_6 
REMARK    3  A    between atoms: C_8  and  C_9 
REMARK       I    between atoms: C_9  and  N_10 
REMARK    4  A    between atoms: N_10  and  N_11 
REMARK    5  A    between atoms: C_12  and  C_13 
REMARK    6  A    between atoms: C_14  and  O_15 
ROOT
HETATM    1  C   UNL     1      40.389 -15.163   3.277  1.00  0.00     0.273 C 
HETATM    2  N   UNL     1      40.268 -13.806   3.029  1.00  0.00    -0.243 N 
HETATM    3  O   UNL     1      40.028 -16.052   2.510  1.00  0.00    -0.266 OA
HETATM    4  H   UNL     1      40.627 -13.091   3.650  1.00  0.00     0.192 HD
ENDROOT
BRANCH   2   5
HETATM    5  N   UNL     1      39.800 -13.426   1.809  1.00  0.00    -0.183 NA
HETATM    6  C   UNL     1      40.681 -13.287   0.864  1.00  0.00     0.153 C 
BRANCH   6   7
HETATM    7  C   UNL     1      40.271 -12.944  -0.523  1.00  0.00     0.027 A 
HETATM    8  C   UNL     1      39.549 -13.887  -1.277  1.00  0.00     0.078 A 
HETATM    9  C   UNL     1      39.214 -13.630  -2.599  1.00  0.00     0.038 A 
HETATM   10  C   UNL     1      39.591 -12.427  -3.186  1.00  0.00     0.015 A 
HETATM   11  C   UNL     1      40.297 -11.459  -2.459  1.00  0.00    -0.025 A 
HETATM   12  C   UNL     1      40.649 -11.693  -1.102  1.00  0.00    -0.012 A 
HETATM   13  C   UNL     1      40.652 -10.254  -3.087  1.00  0.00     0.012 A 
HETATM   14  C   UNL     1      41.342 -10.650  -0.431  1.00  0.00     0.013 A 
HETATM   15  C   UNL     1      41.684  -9.455  -1.071  1.00  0.00     0.001 A 
HETATM   16  C   UNL     1      41.343  -9.259  -2.400  1.00  0.00     0.001 A 
BRANCH   8  17
HETATM   17  O   UNL     1      39.140 -15.103  -0.795  1.00  0.00    -0.360 OA
HETATM   18  H   UNL     1      39.738 -15.367  -0.062  1.00  0.00     0.217 HD
ENDBRANCH   8  17
ENDBRANCH   6   7
ENDBRANCH   2   5
BRANCH   1  19
HETATM   19  C   UNL     1      41.048 -15.590   4.533  1.00  0.00     0.049 A 
HETATM   20  C   UNL     1      42.270 -16.253   4.388  1.00  0.00     0.108 A 
HETATM   21  N   UNL     1      42.986 -16.646   5.469  1.00  0.00    -0.361 N 
HETATM   22  C   UNL     1      42.524 -16.422   6.719  1.00  0.00     0.090 A 
HETATM   23  C   UNL     1      41.299 -15.788   6.915  1.00  0.00     0.018 A 
HETATM   24  C   UNL     1      40.553 -15.368   5.815  1.00  0.00     0.020 A 
BRANCH  21  25
HETATM   25  C   UNL     1      44.294 -17.323   5.273  1.00  0.00     0.166 C 
BRANCH  25  26
HETATM   26  C   UNL     1      44.120 -18.634   4.551  1.00  0.00    -0.040 A 
HETATM   27  C   UNL     1      44.026 -18.661   3.150  1.00  0.00     0.009 A 
HETATM   28  C   UNL     1      43.878 -19.873   2.474  1.00  0.00     0.001 A 
HETATM   29  C   UNL     1      43.826 -21.069   3.185  1.00  0.00     0.000 A 
HETATM   30  C   UNL     1      43.927 -21.058   4.573  1.00  0.00     0.001 A 
HETATM   31  C   UNL     1      44.079 -19.849   5.254  1.00  0.00     0.009 A 
ENDBRANCH  25  26
ENDBRANCH  21  25
ENDBRANCH   1  19
TORSDOF 6
ENDMDL
MODEL 5
REMARK VINA RESULT:      -9.1      1.406      2.620
REMARK  6 active torsions:
REMARK  status: ('A' for Active; 'I' for Inactive)
REMARK    1  A    between atoms: C_4  and  C_5 
REMARK    2  A    between atoms: C_5  and  N_6 
REMARK    3  A    between atoms: C_8  and  C_9 
REMARK       I    between atoms: C_9  and  N_10 
REMARK    4  A    between atoms: N_10  and  N_11 
REMARK    5  A    between atoms: C_12  and  C_13 
REMARK    6  A    between atoms: C_14  and  O_15 
ROOT
HETATM    1  C   UNL     1      43.820 -11.300   6.901  1.00  0.00     0.273 C 
HETATM    2  N   UNL     1      42.989 -12.372   6.624  1.00  0.00    -0.243 N 
HETATM    3  O   UNL     1      44.949 -11.149   6.441  1.00  0.00    -0.266 OA
HETATM    4  H   UNL     1      42.039 -12.446   6.967  1.00  0.00     0.192 HD
ENDROOT
BRANCH   2   5
HETATM    5  N   UNL     1      43.415 -13.281   5.704  1.00  0.00    -0.183 NA
HETATM    6  C   UNL     1      42.499 -13.990   5.117  1.00  0.00     0.153 C 
BRANCH   6   7
HETATM    7  C   UNL     1      42.849 -14.961   4.047  1.00  0.00     0.027 A 
HETATM    8  C   UNL     1      42.756 -14.560   2.701  1.00  0.00     0.078 A 
HETATM    9  C   UNL     1      43.003 -15.461   1.675  1.00  0.00     0.038 A 
HETATM   10  C   UNL     1      43.350 -16.773   1.977  1.00  0.00     0.015 A 
HETATM   11  C   UNL     1      43.467 -17.202   3.306  1.00  0.00    -0.025 A 
HETATM   12  C   UNL     1      43.225 -16.299   4.377  1.00  0.00    -0.012 A 
HETATM   13  C   UNL     1      43.826 -18.534   3.568  1.00  0.00     0.012 A 
HETATM   14  C   UNL     1      43.390 -16.809   5.693  1.00  0.00     0.013 A 
HETATM   15  C   UNL     1      43.753 -18.137   5.935  1.00  0.00     0.001 A 
HETATM   16  C   UNL     1      43.967 -19.000   4.872  1.00  0.00     0.001 A 
BRANCH   8  17
HETATM   17  O   UNL     1      42.412 -13.296   2.300  1.00  0.00    -0.360 OA
HETATM   18  H   UNL     1      42.038 -13.345   1.394  1.00  0.00     0.217 HD
ENDBRANCH   8  17
ENDBRANCH   6   7
ENDBRANCH   2   5
BRANCH   1  19
HETATM   19  C   UNL     1      43.302 -10.219   7.773  1.00  0.00     0.049 A 
HETATM   20  C   UNL     1      43.870 -10.137   9.047  1.00  0.00     0.108 A 
HETATM   21  N   UNL     1      43.509  -9.160   9.913  1.00  0.00    -0.361 N 
HETATM   22  C   UNL     1      42.572  -8.247   9.569  1.00  0.00     0.090 A 
HETATM   23  C   UNL     1      41.958  -8.304   8.321  1.00  0.00     0.018 A 
HETATM   24  C   UNL     1      42.323  -9.297   7.413  1.00  0.00     0.020 A 
BRANCH  21  25
HETATM   25  C   UNL     1      44.158  -9.089  11.248  1.00  0.00     0.166 C 
BRANCH  25  26
HETATM   26  C   UNL     1      43.128  -8.968  12.341  1.00  0.00    -0.040 A 
HETATM   27  C   UNL     1      43.204  -7.918  13.270  1.00  0.00     0.009 A 
HETATM   28  C   UNL     1      42.244  -7.792  14.276  1.00  0.00     0.001 A 
HETATM   29  C   UNL     1      41.200  -8.708  14.366  1.00  0.00     0.000 A 
HETATM   30  C   UNL     1      41.107  -9.749  13.445  1.00  0.00     0.001 A 
HETATM   31  C   UNL     1      42.061  -9.876  12.435  1.00  0.00     0.009 A 
ENDBRANCH  25  26
ENDBRANCH  21  25
ENDBRANCH   1  19
TORSDOF 6
ENDMDL
MODEL 6
REMARK VINA RESULT:      -9.0      2.813     10.023
REMARK  6 active torsions:
REMARK  status: ('A' for Active; 'I' for Inactive)
REMARK    1  A    between atoms: C_4  and  C_5 
REMARK    2  A    between atoms: C_5  and  N_6 
REMARK    3  A    between atoms: C_8  and  C_9 
REMARK       I    between atoms: C_9  and  N_10 
REMARK    4  A    between atoms: N_10  and  N_11 
REMARK    5  A    between atoms: C_12  and  C_13 
REMARK    6  A    between atoms: C_14  and  O_15 
ROOT
HETATM    1  C   UNL     1      42.792 -13.122   3.769  1.00  0.00     0.273 C 
HETATM    2  N   UNL     1      42.944 -12.997   5.139  1.00  0.00    -0.243 N 
HETATM    3  O   UNL     1      43.160 -12.292   2.941  1.00  0.00    -0.266 OA
HETATM    4  H   UNL     1      42.687 -13.721   5.799  1.00  0.00     0.192 HD
ENDROOT
BRANCH   2   5
HETATM    5  N   UNL     1      43.635 -11.919   5.601  1.00  0.00    -0.183 NA
HETATM    6  C   UNL     1      43.342 -11.507   6.798  1.00  0.00     0.153 C 
BRANCH   6   7
HETATM    7  C   UNL     1      44.083 -10.382   7.426  1.00  0.00     0.027 A 
HETATM    8  C   UNL     1      45.487 -10.351   7.334  1.00  0.00     0.078 A 
HETATM    9  C   UNL     1      46.217  -9.358   7.970  1.00  0.00     0.038 A 
HETATM   10  C   UNL     1      45.556  -8.379   8.704  1.00  0.00     0.015 A 
HETATM   11  C   UNL     1      44.159  -8.370   8.804  1.00  0.00    -0.025 A 
HETATM   12  C   UNL     1      43.385  -9.373   8.157  1.00  0.00    -0.012 A 
HETATM   13  C   UNL     1      43.531  -7.359   9.549  1.00  0.00     0.012 A 
HETATM   14  C   UNL     1      41.974  -9.276   8.288  1.00  0.00     0.013 A 
HETATM   15  C   UNL     1      41.365  -8.260   9.031  1.00  0.00     0.001 A 
HETATM   16  C   UNL     1      42.144  -7.304   9.665  1.00  0.00     0.001 A 
BRANCH   8  17
HETATM   17  O   UNL     1      46.230 -11.273   6.645  1.00  0.00    -0.360 OA
HETATM   18  H   UNL     1      46.487 -10.887   5.779  1.00  0.00     0.217 HD
ENDBRANCH   8  17
ENDBRANCH   6   7
ENDBRANCH   2   5
BRANCH   1  19
HETATM   19  C   UNL     1      42.188 -14.369   3.243  1.00  0.00     0.049 A 
HETATM   20  C   UNL     1      43.086 -15.350   2.814  1.00  0.00     0.108 A 
HETATM   21  N   UNL     1      42.650 -16.549   2.360  1.00  0.00    -0.361 N 
HETATM   22  C   UNL     1      41.326 -16.819   2.292  1.00  0.00     0.090 A 
HETATM   23  C   UNL     1      40.391 -15.864   2.683  1.00  0.00     0.018 A 
HETATM   24  C   UNL     1      40.822 -14.628   3.162  1.00  0.00     0.020 A 
BRANCH  21  25
HETATM   25  C   UNL     1      43.637 -17.577   1.939  1.00  0.00     0.166 C 
BRANCH  25  26
HETATM   26  C   UNL     1      43.764 -18.659   2.979  1.00  0.00    -0.040 A 
HETATM   27  C   UNL     1      43.910 -18.323   4.335  1.00  0.00     0.009 A 
HETATM   28  C   UNL     1      44.013 -19.322   5.304  1.00  0.00     0.001 A 
HETATM   29  C   UNL     1      43.970 -20.664   4.935  1.00  0.00     0.000 A 
HETATM   30  C   UNL     1      43.817 -21.011   3.595  1.00  0.00     0.001 A 
HETATM   31  C   UNL     1      43.708 -20.016   2.622  1.00  0.00     0.009 A 
ENDBRANCH  25  26
ENDBRANCH  21  25
ENDBRANCH   1  19
TORSDOF 6
ENDMDL
MODEL 7
REMARK VINA RESULT:      -8.7      6.027      9.189
REMARK  6 active torsions:
REMARK  status: ('A' for Active; 'I' for Inactive)
REMARK    1  A    between atoms: C_4  and  C_5 
REMARK    2  A    between atoms: C_5  and  N_6 
REMARK    3  A    between atoms: C_8  and  C_9 
REMARK       I    between atoms: C_9  and  N_10 
REMARK    4  A    between atoms: N_10  and  N_11 
REMARK    5  A    between atoms: C_12  and  C_13 
REMARK    6  A    between atoms: C_14  and  O_15 
ROOT
HETATM    1  C   UNL     1      39.435 -12.419   3.553  1.00  0.00     0.273 C 
HETATM    2  N   UNL     1      40.338 -13.309   2.996  1.00  0.00    -0.243 N 
HETATM    3  O   UNL     1      39.109 -12.396   4.737  1.00  0.00    -0.266 OA
HETATM    4  H   UNL     1      40.636 -13.272   2.030  1.00  0.00     0.192 HD
ENDROOT
BRANCH   2   5
HETATM    5  N   UNL     1      40.983 -14.163   3.838  1.00  0.00    -0.183 NA
HETATM    6  C   UNL     1      42.010 -14.795   3.354  1.00  0.00     0.153 C 
BRANCH   6   7
HETATM    7  C   UNL     1      42.827 -15.697   4.205  1.00  0.00     0.027 A 
HETATM    8  C   UNL     1      43.314 -15.221   5.438  1.00  0.00     0.078 A 
HETATM    9  C   UNL     1      44.141 -16.009   6.224  1.00  0.00     0.038 A 
HETATM   10  C   UNL     1      44.492 -17.285   5.796  1.00  0.00     0.015 A 
HETATM   11  C   UNL     1      44.013 -17.796   4.582  1.00  0.00    -0.025 A 
HETATM   12  C   UNL     1      43.159 -17.013   3.758  1.00  0.00    -0.012 A 
HETATM   13  C   UNL     1      44.385 -19.092   4.189  1.00  0.00     0.012 A 
HETATM   14  C   UNL     1      42.699 -17.616   2.557  1.00  0.00     0.013 A 
HETATM   15  C   UNL     1      43.076 -18.909   2.184  1.00  0.00     0.001 A 
HETATM   16  C   UNL     1      43.923 -19.645   2.998  1.00  0.00     0.001 A 
BRANCH   8  17
HETATM   17  O   UNL     1      43.035 -13.979   5.943  1.00  0.00    -0.360 OA
HETATM   18  H   UNL     1      42.141 -13.709   5.638  1.00  0.00     0.217 HD
ENDBRANCH   8  17
ENDBRANCH   6   7
ENDBRANCH   2   5
BRANCH   1  19
HETATM   19  C   UNL     1      38.849 -11.377   2.677  1.00  0.00     0.049 A 
HETATM   20  C   UNL     1      38.476 -11.793   1.397  1.00  0.00     0.108 A 
HETATM   21  N   UNL     1      37.886 -10.939   0.527  1.00  0.00    -0.361 N 
HETATM   22  C   UNL     1      37.660  -9.651   0.873  1.00  0.00     0.090 A 
HETATM   23  C   UNL     1      38.039  -9.182   2.128  1.00  0.00     0.018 A 
HETATM   24  C   UNL     1      38.638 -10.049   3.040  1.00  0.00     0.020 A 
BRANCH  21  25
HETATM   25  C   UNL     1      37.477 -11.428  -0.816  1.00  0.00     0.166 C 
BRANCH  25  26
HETATM   26  C   UNL     1      38.647 -12.031  -1.548  1.00  0.00    -0.040 A 
HETATM   27  C   UNL     1      38.609 -13.374  -1.957  1.00  0.00     0.009 A 
HETATM   28  C   UNL     1      39.683 -13.935  -2.648  1.00  0.00     0.001 A 
HETATM   29  C   UNL     1      40.805 -13.164  -2.942  1.00  0.00     0.000 A 
HETATM   30  C   UNL     1      40.853 -11.828  -2.551  1.00  0.00     0.001 A 
HETATM   31  C   UNL     1      39.779 -11.262  -1.864  1.00  0.00     0.009 A 
ENDBRANCH  25  26
ENDBRANCH  21  25
ENDBRANCH   1  19
TORSDOF 6
ENDMDL
MODEL 8
REMARK VINA RESULT:      -8.6      2.279     10.398
REMARK  6 active torsions:
REMARK  status: ('A' for Active; 'I' for Inactive)
REMARK    1  A    between atoms: C_4  and  C_5 
REMARK    2  A    between atoms: C_5  and  N_6 
REMARK    3  A    between atoms: C_8  and  C_9 
REMARK       I    between atoms: C_9  and  N_10 
REMARK    4  A    between atoms: N_10  and  N_11 
REMARK    5  A    between atoms: C_12  and  C_13 
REMARK    6  A    between atoms: C_14  and  O_15 
ROOT
HETATM    1  C   UNL     1      41.755 -11.266   5.985  1.00  0.00     0.273 C 
HETATM    2  N   UNL     1      42.692 -10.797   6.891  1.00  0.00    -0.243 N 
HETATM    3  O   UNL     1      40.567 -10.953   5.977  1.00  0.00    -0.266 OA
HETATM    4  H   UNL     1      43.678 -11.022   6.842  1.00  0.00     0.192 HD
ENDROOT
BRANCH   2   5
HETATM    5  N   UNL     1      42.290  -9.848   7.780  1.00  0.00    -0.183 NA
HETATM    6  C   UNL     1      43.205  -9.353   8.559  1.00  0.00     0.153 C 
BRANCH   6   7
HETATM    7  C   UNL     1      42.889  -8.264   9.518  1.00  0.00     0.027 A 
HETATM    8  C   UNL     1      42.765  -6.945   9.040  1.00  0.00     0.078 A 
HETATM    9  C   UNL     1      42.544  -5.893   9.917  1.00  0.00     0.038 A 
HETATM   10  C   UNL     1      42.440  -6.140  11.281  1.00  0.00     0.015 A 
HETATM   11  C   UNL     1      42.543  -7.442  11.789  1.00  0.00    -0.025 A 
HETATM   12  C   UNL     1      42.763  -8.540  10.914  1.00  0.00    -0.012 A 
HETATM   13  C   UNL     1      42.425  -7.649  13.173  1.00  0.00     0.012 A 
HETATM   14  C   UNL     1      42.831  -9.829  11.508  1.00  0.00     0.013 A 
HETATM   15  C   UNL     1      42.706 -10.017  12.888  1.00  0.00     0.001 A 
HETATM   16  C   UNL     1      42.508  -8.927  13.721  1.00  0.00     0.001 A 
BRANCH   8  17
HETATM   17  O   UNL     1      42.861  -6.597   7.719  1.00  0.00    -0.360 OA
HETATM   18  H   UNL     1      43.794  -6.707   7.432  1.00  0.00     0.217 HD
ENDBRANCH   8  17
ENDBRANCH   6   7
ENDBRANCH   2   5
BRANCH   1  19
HETATM   19  C   UNL     1      42.215 -12.174   4.908  1.00  0.00     0.049 A 
HETATM   20  C   UNL     1      41.635 -13.445   4.890  1.00  0.00     0.108 A 
HETATM   21  N   UNL     1      41.943 -14.341   3.923  1.00  0.00    -0.361 N 
HETATM   22  C   UNL     1      42.839 -14.033   2.958  1.00  0.00     0.090 A 
HETATM   23  C   UNL     1      43.464 -12.788   2.949  1.00  0.00     0.018 A 
HETATM   24  C   UNL     1      43.152 -11.849   3.931  1.00  0.00     0.020 A 
BRANCH  21  25
HETATM   25  C   UNL     1      41.282 -15.673   3.921  1.00  0.00     0.166 C 
BRANCH  25  26
HETATM   26  C   UNL     1      42.290 -16.774   3.716  1.00  0.00    -0.040 A 
HETATM   27  C   UNL     1      43.194 -17.104   4.739  1.00  0.00     0.009 A 
HETATM   28  C   UNL     1      44.120 -18.132   4.560  1.00  0.00     0.001 A 
HETATM   29  C   UNL     1      44.155 -18.843   3.363  1.00  0.00     0.000 A 
HETATM   30  C   UNL     1      43.259 -18.532   2.343  1.00  0.00     0.001 A 
HETATM   31  C   UNL     1      42.328 -17.508   2.519  1.00  0.00     0.009 A 
ENDBRANCH  25  26
ENDBRANCH  21  25
ENDBRANCH   1  19
TORSDOF 6
ENDMDL
MODEL 9
REMARK VINA RESULT:      -8.3      3.584      9.532
REMARK  6 active torsions:
REMARK  status: ('A' for Active; 'I' for Inactive)
REMARK    1  A    between atoms: C_4  and  C_5 
REMARK    2  A    between atoms: C_5  and  N_6 
REMARK    3  A    between atoms: C_8  and  C_9 
REMARK       I    between atoms: C_9  and  N_10 
REMARK    4  A    between atoms: N_10  and  N_11 
REMARK    5  A    between atoms: C_12  and  C_13 
REMARK    6  A    between atoms: C_14  and  O_15 
ROOT
HETATM    1  C   UNL     1      41.502 -11.293   2.639  1.00  0.00     0.273 C 
HETATM    2  N   UNL     1      40.831 -11.107   3.836  1.00  0.00    -0.243 N 
HETATM    3  O   UNL     1      42.475 -10.639   2.270  1.00  0.00    -0.266 OA
HETATM    4  H   UNL     1      40.068 -11.696   4.146  1.00  0.00     0.192 HD
ENDROOT
BRANCH   2   5
HETATM    5  N   UNL     1      41.341 -10.197   4.712  1.00  0.00    -0.183 NA
HETATM    6  C   UNL     1      41.691 -10.645   5.880  1.00  0.00     0.153 C 
BRANCH   6   7
HETATM    7  C   UNL     1      42.323  -9.752   6.886  1.00  0.00     0.027 A 
HETATM    8  C   UNL     1      41.562  -8.712   7.452  1.00  0.00     0.078 A 
HETATM    9  C   UNL     1      42.139  -7.814   8.338  1.00  0.00     0.038 A 
HETATM   10  C   UNL     1      43.482  -7.943   8.676  1.00  0.00     0.015 A 
HETATM   11  C   UNL     1      44.265  -8.977   8.143  1.00  0.00    -0.025 A 
HETATM   12  C   UNL     1      43.698  -9.914   7.237  1.00  0.00    -0.012 A 
HETATM   13  C   UNL     1      45.615  -9.076   8.516  1.00  0.00     0.012 A 
HETATM   14  C   UNL     1      44.554 -10.945   6.764  1.00  0.00     0.013 A 
HETATM   15  C   UNL     1      45.895 -11.031   7.149  1.00  0.00     0.001 A 
HETATM   16  C   UNL     1      46.427 -10.094   8.022  1.00  0.00     0.001 A 
BRANCH   8  17
HETATM   17  O   UNL     1      40.238  -8.494   7.177  1.00  0.00    -0.360 OA
HETATM   18  H   UNL     1      39.803  -9.361   7.021  1.00  0.00     0.217 HD
ENDBRANCH   8  17
ENDBRANCH   6   7
ENDBRANCH   2   5
BRANCH   1  19
HETATM   19  C   UNL     1      41.057 -12.391   1.750  1.00  0.00     0.049 A 
HETATM   20  C   UNL     1      40.813 -13.619   2.370  1.00  0.00     0.108 A 
HETATM   21  N   UNL     1      40.356 -14.681   1.665  1.00  0.00    -0.361 N 
HETATM   22  C   UNL     1      40.142 -14.583   0.334  1.00  0.00     0.090 A 
HETATM   23  C   UNL     1      40.397 -13.388  -0.334  1.00  0.00     0.018 A 
HETATM   24  C   UNL     1      40.858 -12.281   0.376  1.00  0.00     0.020 A 
BRANCH  21  25
HETATM   25  C   UNL     1      40.080 -15.962   2.367  1.00  0.00     0.166 C 
BRANCH  25  26
HETATM   26  C   UNL     1      41.324 -16.491   3.032  1.00  0.00    -0.040 A 
HETATM   27  C   UNL     1      41.489 -16.368   4.421  1.00  0.00     0.009 A 
HETATM   28  C   UNL     1      42.633 -16.868   5.044  1.00  0.00     0.001 A 
HETATM   29  C   UNL     1      43.623 -17.497   4.293  1.00  0.00     0.000 A 
HETATM   30  C   UNL     1      43.468 -17.633   2.916  1.00  0.00     0.001 A 
HETATM   31  C   UNL     1      42.324 -17.139   2.288  1.00  0.00     0.009 A 
ENDBRANCH  25  26
ENDBRANCH  21  25
ENDBRANCH   1  19
TORSDOF 6
ENDMDL
MODEL 10
REMARK VINA RESULT:      -8.2      1.760      2.320
REMARK  6 active torsions:
REMARK  status: ('A' for Active; 'I' for Inactive)
REMARK    1  A    between atoms: C_4  and  C_5 
REMARK    2  A    between atoms: C_5  and  N_6 
REMARK    3  A    between atoms: C_8  and  C_9 
REMARK       I    between atoms: C_9  and  N_10 
REMARK    4  A    between atoms: N_10  and  N_11 
REMARK    5  A    between atoms: C_12  and  C_13 
REMARK    6  A    between atoms: C_14  and  O_15 
ROOT
HETATM    1  C   UNL     1      43.220 -11.362   7.205  1.00  0.00     0.273 C 
HETATM    2  N   UNL     1      42.692 -12.209   6.245  1.00  0.00    -0.243 N 
HETATM    3  O   UNL     1      44.049 -11.688   8.050  1.00  0.00    -0.266 OA
HETATM    4  H   UNL     1      42.054 -11.904   5.521  1.00  0.00     0.192 HD
ENDROOT
BRANCH   2   5
HETATM    5  N   UNL     1      43.196 -13.471   6.171  1.00  0.00    -0.183 NA
HETATM    6  C   UNL     1      42.339 -14.432   5.997  1.00  0.00     0.153 C 
BRANCH   6   7
HETATM    7  C   UNL     1      42.787 -15.840   5.834  1.00  0.00     0.027 A 
HETATM    8  C   UNL     1      43.112 -16.593   6.978  1.00  0.00     0.078 A 
HETATM    9  C   UNL     1      43.603 -17.884   6.859  1.00  0.00     0.038 A 
HETATM   10  C   UNL     1      43.775 -18.445   5.598  1.00  0.00     0.015 A 
HETATM   11  C   UNL     1      43.447 -17.730   4.439  1.00  0.00    -0.025 A 
HETATM   12  C   UNL     1      42.936 -16.406   4.531  1.00  0.00    -0.012 A 
HETATM   13  C   UNL     1      43.628 -18.336   3.185  1.00  0.00     0.012 A 
HETATM   14  C   UNL     1      42.606 -15.762   3.308  1.00  0.00     0.013 A 
HETATM   15  C   UNL     1      42.788 -16.382   2.069  1.00  0.00     0.001 A 
HETATM   16  C   UNL     1      43.304 -17.667   2.007  1.00  0.00     0.001 A 
BRANCH   8  17
HETATM   17  O   UNL     1      42.989 -16.128   8.261  1.00  0.00    -0.360 OA
HETATM   18  H   UNL     1      43.699 -16.527   8.809  1.00  0.00     0.217 HD
ENDBRANCH   8  17
ENDBRANCH   6   7
ENDBRANCH   2   5
BRANCH   1  19
HETATM   19  C   UNL     1      42.801  -9.940   7.191  1.00  0.00     0.049 A 
HETATM   20  C   UNL     1      43.419  -9.111   8.130  1.00  0.00     0.108 A 
HETATM   21  N   UNL     1      43.151  -7.785   8.178  1.00  0.00    -0.361 N 
HETATM   22  C   UNL     1      42.259  -7.232   7.326  1.00  0.00     0.090 A 
HETATM   23  C   UNL     1      41.596  -8.022   6.389  1.00  0.00     0.018 A 
HETATM   24  C   UNL     1      41.867  -9.387   6.319  1.00  0.00     0.020 A 
BRANCH  21  25
HETATM   25  C   UNL     1      43.851  -6.931   9.173  1.00  0.00     0.166 C 
BRANCH  25  26
HETATM   26  C   UNL     1      42.891  -6.417  10.213  1.00  0.00    -0.040 A 
HETATM   27  C   UNL     1      42.631  -5.041  10.317  1.00  0.00     0.009 A 
HETATM   28  C   UNL     1      41.732  -4.560  11.269  1.00  0.00     0.001 A 
HETATM   29  C   UNL     1      41.079  -5.444  12.125  1.00  0.00     0.000 A 
HETATM   30  C   UNL     1      41.320  -6.812  12.027  1.00  0.00     0.001 A 
HETATM   31  C   UNL     1      42.215  -7.298  11.073  1.00  0.00     0.009 A 
ENDBRANCH  25  26
ENDBRANCH  21  25
ENDBRANCH   1  19
TORSDOF 6
ENDMDL
