MODEL 1
REMARK VINA RESULT:      -8.1      0.000      0.000
REMARK  2 active torsions:
REMARK  status: ('A' for Active; 'I' for Inactive)
REMARK    1  A    between atoms: C_2  and  C_3 
REMARK    2  A    between atoms: C_6  and  C_7 
ROOT
HETATM    1  C   UNL     1      42.723 -14.517   4.127  1.00  0.00     0.119 C 
HETATM    2  S   UNL     1      43.262 -13.244   2.965  1.00  0.00    -0.141 SA
HETATM    3  C   UNL     1      41.838 -13.035   1.862  1.00  0.00     0.136 C 
HETATM    4  C   UNL     1      41.185 -14.268   1.264  1.00  0.00     0.031 C 
HETATM    5  C   UNL     1      40.808 -12.130   2.477  1.00  0.00     0.236 C 
HETATM    6  O   UNL     1      40.376 -11.131   1.916  1.00  0.00    -0.272 OA
HETATM    7  N   UNL     1      40.158 -12.403   3.714  1.00  0.00    -0.311 N 
HETATM    8  C   UNL     1      40.377 -13.408   4.636  1.00  0.00     0.134 A 
HETATM    9  C   UNL     1      41.412 -14.311   4.818  1.00  0.00     0.032 A 
HETATM   10  N   UNL     1      39.493 -13.631   5.662  1.00  0.00    -0.262 N 
HETATM   11  H   UNL     1      38.623 -13.148   5.855  1.00  0.00     0.191 HD
HETATM   12  N   UNL     1      39.844 -14.615   6.484  1.00  0.00    -0.178 NA
HETATM   13  C   UNL     1      41.026 -15.020   6.016  1.00  0.00     0.062 A 
HETATM   14  C   UNL     1      41.753 -16.098   6.745  1.00  0.00     0.073 C 
HETATM   15  H   UNL     1      39.415 -11.735   3.896  1.00  0.00     0.170 HD
ENDROOT
BRANCH   1  16
HETATM   16  C   UNL     1      42.871 -15.941   3.598  1.00  0.00    -0.040 A 
HETATM   17  C   UNL     1      43.900 -16.736   4.143  1.00  0.00     0.009 A 
HETATM   18  C   UNL     1      44.101 -18.057   3.735  1.00  0.00     0.007 A 
HETATM   19  C   UNL     1      43.280 -18.630   2.762  1.00  0.00    -0.059 A 
HETATM   20  C   UNL     1      42.251 -17.860   2.214  1.00  0.00     0.007 A 
HETATM   21  C   UNL     1      42.050 -16.535   2.623  1.00  0.00     0.009 A 
BRANCH  19  22
HETATM   22  C   UNL     1      43.482 -20.063   2.339  1.00  0.00     0.034 C 
HETATM   23  C   UNL     1      43.836 -20.958   3.517  1.00  0.00     0.010 C 
ENDBRANCH  19  22
ENDBRANCH   1  16
TORSDOF 2
ENDMDL
MODEL 2
REMARK VINA RESULT:      -7.9      2.591      3.883
REMARK  2 active torsions:
REMARK  status: ('A' for Active; 'I' for Inactive)
REMARK    1  A    between atoms: C_2  and  C_3 
REMARK    2  A    between atoms: C_6  and  C_7 
ROOT
HETATM    1  C   UNL     1      40.533 -13.718   2.643  1.00  0.00     0.119 C 
HETATM    2  S   UNL     1      40.477 -12.866   4.234  1.00  0.00    -0.141 SA
HETATM    3  C   UNL     1      41.951 -11.810   4.211  1.00  0.00     0.136 C 
HETATM    4  C   UNL     1      43.284 -12.418   3.813  1.00  0.00     0.031 C 
HETATM    5  C   UNL     1      41.693 -10.541   3.449  1.00  0.00     0.236 C 
HETATM    6  O   UNL     1      41.882  -9.427   3.922  1.00  0.00    -0.272 OA
HETATM    7  N   UNL     1      41.313 -10.510   2.077  1.00  0.00    -0.311 N 
HETATM    8  C   UNL     1      40.994 -11.540   1.215  1.00  0.00     0.134 A 
HETATM    9  C   UNL     1      40.691 -12.878   1.415  1.00  0.00     0.032 A 
HETATM   10  N   UNL     1      40.869 -11.321  -0.135  1.00  0.00    -0.262 N 
HETATM   11  H   UNL     1      41.006 -10.454  -0.643  1.00  0.00     0.191 HD
HETATM   12  N   UNL     1      40.537 -12.399  -0.838  1.00  0.00    -0.178 NA
HETATM   13  C   UNL     1      40.384 -13.350   0.084  1.00  0.00     0.062 A 
HETATM   14  C   UNL     1      39.949 -14.707  -0.353  1.00  0.00     0.073 C 
HETATM   15  H   UNL     1      41.303  -9.560   1.717  1.00  0.00     0.170 HD
ENDROOT
BRANCH   1  16
HETATM   16  C   UNL     1      41.455 -14.934   2.623  1.00  0.00    -0.040 A 
HETATM   17  C   UNL     1      41.161 -15.990   3.512  1.00  0.00     0.009 A 
HETATM   18  C   UNL     1      41.938 -17.151   3.553  1.00  0.00     0.007 A 
HETATM   19  C   UNL     1      43.039 -17.296   2.708  1.00  0.00    -0.059 A 
HETATM   20  C   UNL     1      43.343 -16.263   1.817  1.00  0.00     0.007 A 
HETATM   21  C   UNL     1      42.565 -15.099   1.776  1.00  0.00     0.009 A 
BRANCH  19  22
HETATM   22  C   UNL     1      43.862 -18.559   2.737  1.00  0.00     0.034 C 
HETATM   23  C   UNL     1      43.165 -19.707   2.023  1.00  0.00     0.010 C 
ENDBRANCH  19  22
ENDBRANCH   1  16
TORSDOF 2
ENDMDL
MODEL 3
REMARK VINA RESULT:      -7.9      3.297      5.371
REMARK  2 active torsions:
REMARK  status: ('A' for Active; 'I' for Inactive)
REMARK    1  A    between atoms: C_2  and  C_3 
REMARK    2  A    between atoms: C_6  and  C_7 
ROOT
HETATM    1  C   UNL     1      43.726 -16.012   4.437  1.00  0.00     0.119 C 
HETATM    2  S   UNL     1      43.962 -14.595   5.531  1.00  0.00    -0.141 SA
HETATM    3  C   UNL     1      42.656 -14.785   6.773  1.00  0.00     0.136 C 
HETATM    4  C   UNL     1      41.235 -15.056   6.310  1.00  0.00     0.031 C 
HETATM    5  C   UNL     1      43.065 -15.760   7.841  1.00  0.00     0.236 C 
HETATM    6  O   UNL     1      43.055 -15.487   9.035  1.00  0.00    -0.272 OA
HETATM    7  N   UNL     1      43.393 -17.120   7.581  1.00  0.00    -0.311 N 
HETATM    8  C   UNL     1      43.529 -17.793   6.382  1.00  0.00     0.134 A 
HETATM    9  C   UNL     1      43.645 -17.366   5.069  1.00  0.00     0.032 A 
HETATM   10  N   UNL     1      43.634 -19.162   6.347  1.00  0.00    -0.262 N 
HETATM   11  H   UNL     1      43.604 -19.812   7.124  1.00  0.00     0.191 HD
HETATM   12  N   UNL     1      43.782 -19.670   5.127  1.00  0.00    -0.178 NA
HETATM   13  C   UNL     1      43.831 -18.598   4.335  1.00  0.00     0.062 A 
HETATM   14  C   UNL     1      44.051 -18.797   2.875  1.00  0.00     0.073 C 
HETATM   15  H   UNL     1      43.526 -17.640   8.443  1.00  0.00     0.170 HD
ENDROOT
BRANCH   1  16
HETATM   16  C   UNL     1      42.639 -15.809   3.385  1.00  0.00    -0.040 A 
HETATM   17  C   UNL     1      42.979 -15.077   2.229  1.00  0.00     0.009 A 
HETATM   18  C   UNL     1      42.057 -14.854   1.203  1.00  0.00     0.007 A 
HETATM   19  C   UNL     1      40.757 -15.354   1.300  1.00  0.00    -0.059 A 
HETATM   20  C   UNL     1      40.402 -16.087   2.436  1.00  0.00     0.007 A 
HETATM   21  C   UNL     1      41.328 -16.309   3.464  1.00  0.00     0.009 A 
BRANCH  19  22
HETATM   22  C   UNL     1      39.769 -15.134   0.182  1.00  0.00     0.034 C 
HETATM   23  C   UNL     1      40.086 -13.879  -0.616  1.00  0.00     0.010 C 
ENDBRANCH  19  22
ENDBRANCH   1  16
TORSDOF 2
ENDMDL
MODEL 4
REMARK VINA RESULT:      -7.4      9.336     11.739
REMARK  2 active torsions:
REMARK  status: ('A' for Active; 'I' for Inactive)
REMARK    1  A    between atoms: C_2  and  C_3 
REMARK    2  A    between atoms: C_6  and  C_7 
ROOT
HETATM    1  C   UNL     1      41.750  -8.902  10.948  1.00  0.00     0.119 C 
HETATM    2  S   UNL     1      40.649  -7.918   9.910  1.00  0.00    -0.141 SA
HETATM    3  C   UNL     1      41.714  -6.589   9.287  1.00  0.00     0.136 C 
HETATM    4  C   UNL     1      42.585  -5.825  10.268  1.00  0.00     0.031 C 
HETATM    5  C   UNL     1      42.519  -7.053   8.106  1.00  0.00     0.236 C 
HETATM    6  O   UNL     1      42.519  -6.472   7.028  1.00  0.00    -0.272 OA
HETATM    7  N   UNL     1      43.438  -8.139   8.157  1.00  0.00    -0.311 N 
HETATM    8  C   UNL     1      43.706  -9.036   9.173  1.00  0.00     0.134 A 
HETATM    9  C   UNL     1      43.042  -9.357  10.347  1.00  0.00     0.032 A 
HETATM   10  N   UNL     1      44.790  -9.876   9.107  1.00  0.00    -0.262 N 
HETATM   11  H   UNL     1      45.495  -9.933   8.381  1.00  0.00     0.191 HD
HETATM   12  N   UNL     1      44.909 -10.700  10.144  1.00  0.00    -0.178 NA
HETATM   13  C   UNL     1      43.839 -10.431  10.894  1.00  0.00     0.062 A 
HETATM   14  C   UNL     1      43.618 -11.226  12.135  1.00  0.00     0.073 C 
HETATM   15  H   UNL     1      43.967  -8.217   7.293  1.00  0.00     0.170 HD
ENDROOT
BRANCH   1  16
HETATM   16  C   UNL     1      41.942  -8.341  12.354  1.00  0.00    -0.040 A 
HETATM   17  C   UNL     1      40.867  -8.463  13.258  1.00  0.00     0.009 A 
HETATM   18  C   UNL     1      40.955  -7.995  14.572  1.00  0.00     0.007 A 
HETATM   19  C   UNL     1      42.125  -7.384  15.028  1.00  0.00    -0.059 A 
HETATM   20  C   UNL     1      43.204  -7.259  14.148  1.00  0.00     0.007 A 
HETATM   21  C   UNL     1      43.114  -7.727  12.831  1.00  0.00     0.009 A 
BRANCH  19  22
HETATM   22  C   UNL     1      42.229  -6.902  16.453  1.00  0.00     0.034 C 
HETATM   23  C   UNL     1      41.202  -7.569  17.354  1.00  0.00     0.010 C 
ENDBRANCH  19  22
ENDBRANCH   1  16
TORSDOF 2
ENDMDL
MODEL 5
REMARK VINA RESULT:      -7.4      2.695      5.170
REMARK  2 active torsions:
REMARK  status: ('A' for Active; 'I' for Inactive)
REMARK    1  A    between atoms: C_2  and  C_3 
REMARK    2  A    between atoms: C_6  and  C_7 
ROOT
HETATM    1  C   UNL     1      41.778 -13.296   2.362  1.00  0.00     0.119 C 
HETATM    2  S   UNL     1      41.341 -11.763   3.210  1.00  0.00    -0.141 SA
HETATM    3  C   UNL     1      39.743 -12.137   3.983  1.00  0.00     0.136 C 
HETATM    4  C   UNL     1      38.655 -12.783   3.145  1.00  0.00     0.031 C 
HETATM    5  C   UNL     1      39.931 -12.875   5.278  1.00  0.00     0.236 C 
HETATM    6  O   UNL     1      39.452 -12.495   6.339  1.00  0.00    -0.272 OA
HETATM    7  N   UNL     1      40.584 -14.136   5.377  1.00  0.00    -0.311 N 
HETATM    8  C   UNL     1      41.257 -14.872   4.422  1.00  0.00     0.134 A 
HETATM    9  C   UNL     1      41.741 -14.561   3.160  1.00  0.00     0.032 A 
HETATM   10  N   UNL     1      41.627 -16.172   4.660  1.00  0.00    -0.262 N 
HETATM   11  H   UNL     1      41.452 -16.731   5.488  1.00  0.00     0.191 HD
HETATM   12  N   UNL     1      42.287 -16.748   3.660  1.00  0.00    -0.178 NA
HETATM   13  C   UNL     1      42.404 -15.778   2.751  1.00  0.00     0.062 A 
HETATM   14  C   UNL     1      43.155 -16.062   1.496  1.00  0.00     0.073 C 
HETATM   15  H   UNL     1      40.503 -14.522   6.313  1.00  0.00     0.170 HD
ENDROOT
BRANCH   1  16
HETATM   16  C   UNL     1      41.110 -13.463   1.000  1.00  0.00    -0.040 A 
HETATM   17  C   UNL     1      41.286 -12.429   0.056  1.00  0.00     0.009 A 
HETATM   18  C   UNL     1      40.729 -12.501  -1.223  1.00  0.00     0.007 A 
HETATM   19  C   UNL     1      39.971 -13.610  -1.603  1.00  0.00    -0.059 A 
HETATM   20  C   UNL     1      39.790 -14.647  -0.684  1.00  0.00     0.007 A 
HETATM   21  C   UNL     1      40.349 -14.574   0.598  1.00  0.00     0.009 A 
BRANCH  19  22
HETATM   22  C   UNL     1      39.390 -13.698  -2.992  1.00  0.00     0.034 C 
HETATM   23  C   UNL     1      38.454 -14.887  -3.141  1.00  0.00     0.010 C 
ENDBRANCH  19  22
ENDBRANCH   1  16
TORSDOF 2
ENDMDL
MODEL 6
REMARK VINA RESULT:      -7.3     14.449     15.989
REMARK  2 active torsions:
REMARK  status: ('A' for Active; 'I' for Inactive)
REMARK    1  A    between atoms: C_2  and  C_3 
REMARK    2  A    between atoms: C_6  and  C_7 
ROOT
HETATM    1  C   UNL     1      45.622 -30.840   0.060  1.00  0.00     0.119 C 
HETATM    2  S   UNL     1      47.394 -30.561   0.264  1.00  0.00    -0.141 SA
HETATM    3  C   UNL     1      47.536 -28.757   0.387  1.00  0.00     0.136 C 
HETATM    4  C   UNL     1      46.826 -27.893  -0.640  1.00  0.00     0.031 C 
HETATM    5  C   UNL     1      47.235 -28.286   1.781  1.00  0.00     0.236 C 
HETATM    6  O   UNL     1      48.004 -27.590   2.432  1.00  0.00    -0.272 OA
HETATM    7  N   UNL     1      45.990 -28.507   2.435  1.00  0.00    -0.311 N 
HETATM    8  C   UNL     1      44.893 -29.247   2.042  1.00  0.00     0.134 A 
HETATM    9  C   UNL     1      44.703 -30.199   1.052  1.00  0.00     0.032 A 
HETATM   10  N   UNL     1      43.699 -29.155   2.713  1.00  0.00    -0.262 N 
HETATM   11  H   UNL     1      43.470 -28.565   3.506  1.00  0.00     0.191 HD
HETATM   12  N   UNL     1      42.739 -29.941   2.237  1.00  0.00    -0.178 NA
HETATM   13  C   UNL     1      43.333 -30.615   1.251  1.00  0.00     0.062 A 
HETATM   14  C   UNL     1      42.550 -31.649   0.516  1.00  0.00     0.073 C 
HETATM   15  H   UNL     1      45.944 -28.011   3.320  1.00  0.00     0.170 HD
ENDROOT
BRANCH   1  16
HETATM   16  C   UNL     1      45.127 -30.663  -1.372  1.00  0.00    -0.040 A 
HETATM   17  C   UNL     1      45.492 -31.647  -2.315  1.00  0.00     0.009 A 
HETATM   18  C   UNL     1      45.072 -31.579  -3.646  1.00  0.00     0.007 A 
HETATM   19  C   UNL     1      44.273 -30.521  -4.083  1.00  0.00    -0.059 A 
HETATM   20  C   UNL     1      43.897 -29.539  -3.162  1.00  0.00     0.007 A 
HETATM   21  C   UNL     1      44.319 -29.607  -1.828  1.00  0.00     0.009 A 
BRANCH  19  22
HETATM   22  C   UNL     1      43.800 -30.462  -5.513  1.00  0.00     0.034 C 
HETATM   23  C   UNL     1      44.142 -31.731  -6.278  1.00  0.00     0.010 C 
ENDBRANCH  19  22
ENDBRANCH   1  16
TORSDOF 2
ENDMDL
MODEL 7
REMARK VINA RESULT:      -7.3      2.726      4.122
REMARK  2 active torsions:
REMARK  status: ('A' for Active; 'I' for Inactive)
REMARK    1  A    between atoms: C_2  and  C_3 
REMARK    2  A    between atoms: C_6  and  C_7 
ROOT
HETATM    1  C   UNL     1      40.656 -12.928   3.359  1.00  0.00     0.119 C 
HETATM    2  S   UNL     1      40.420 -12.595   5.118  1.00  0.00    -0.141 SA
HETATM    3  C   UNL     1      42.042 -11.998   5.667  1.00  0.00     0.136 C 
HETATM    4  C   UNL     1      43.282 -12.786   5.285  1.00  0.00     0.031 C 
HETATM    5  C   UNL     1      42.216 -10.540   5.348  1.00  0.00     0.236 C 
HETATM    6  O   UNL     1      42.513  -9.703   6.190  1.00  0.00    -0.272 OA
HETATM    7  N   UNL     1      42.163 -10.011   4.027  1.00  0.00    -0.311 N 
HETATM    8  C   UNL     1      41.844 -10.624   2.831  1.00  0.00     0.134 A 
HETATM    9  C   UNL     1      41.244 -11.836   2.523  1.00  0.00     0.032 A 
HETATM   10  N   UNL     1      42.066  -9.995   1.632  1.00  0.00    -0.262 N 
HETATM   11  H   UNL     1      42.481  -9.084   1.471  1.00  0.00     0.191 HD
HETATM   12  N   UNL     1      41.690 -10.695   0.566  1.00  0.00    -0.178 NA
HETATM   13  C   UNL     1      41.152 -11.801   1.081  1.00  0.00     0.062 A 
HETATM   14  C   UNL     1      40.563 -12.809   0.154  1.00  0.00     0.073 C 
HETATM   15  H   UNL     1      42.421  -9.029   4.011  1.00  0.00     0.170 HD
ENDROOT
BRANCH   1  16
HETATM   16  C   UNL     1      41.299 -14.280   3.065  1.00  0.00    -0.040 A 
HETATM   17  C   UNL     1      42.610 -14.280   2.546  1.00  0.00     0.009 A 
HETATM   18  C   UNL     1      43.288 -15.468   2.263  1.00  0.00     0.007 A 
HETATM   19  C   UNL     1      42.674 -16.702   2.486  1.00  0.00    -0.059 A 
HETATM   20  C   UNL     1      41.377 -16.723   3.005  1.00  0.00     0.007 A 
HETATM   21  C   UNL     1      40.698 -15.531   3.288  1.00  0.00     0.009 A 
BRANCH  19  22
HETATM   22  C   UNL     1      43.414 -17.985   2.202  1.00  0.00     0.034 C 
HETATM   23  C   UNL     1      44.043 -18.567   3.459  1.00  0.00     0.010 C 
ENDBRANCH  19  22
ENDBRANCH   1  16
TORSDOF 2
ENDMDL
MODEL 8
REMARK VINA RESULT:      -6.9      9.167     11.074
REMARK  2 active torsions:
REMARK  status: ('A' for Active; 'I' for Inactive)
REMARK    1  A    between atoms: C_2  and  C_3 
REMARK    2  A    between atoms: C_6  and  C_7 
ROOT
HETATM    1  C   UNL     1      41.343  -9.356  12.109  1.00  0.00     0.119 C 
HETATM    2  S   UNL     1      41.817  -9.328  13.851  1.00  0.00    -0.141 SA
HETATM    3  C   UNL     1      41.927  -7.560  14.241  1.00  0.00     0.136 C 
HETATM    4  C   UNL     1      42.709  -6.651  13.309  1.00  0.00     0.031 C 
HETATM    5  C   UNL     1      40.570  -6.987  14.534  1.00  0.00     0.236 C 
HETATM    6  O   UNL     1      40.309  -6.381  15.566  1.00  0.00    -0.272 OA
HETATM    7  N   UNL     1      39.495  -6.994  13.601  1.00  0.00    -0.311 N 
HETATM    8  C   UNL     1      39.395  -7.584  12.357  1.00  0.00     0.134 A 
HETATM    9  C   UNL     1      40.154  -8.543  11.704  1.00  0.00     0.032 A 
HETATM   10  N   UNL     1      38.351  -7.289  11.515  1.00  0.00    -0.262 N 
HETATM   11  H   UNL     1      37.590  -6.636  11.666  1.00  0.00     0.191 HD
HETATM   12  N   UNL     1      38.373  -7.948  10.361  1.00  0.00    -0.178 NA
HETATM   13  C   UNL     1      39.437  -8.745  10.465  1.00  0.00     0.062 A 
HETATM   14  C   UNL     1      39.738  -9.687   9.350  1.00  0.00     0.073 C 
HETATM   15  H   UNL     1      38.704  -6.456  13.944  1.00  0.00     0.170 HD
ENDROOT
BRANCH   1  16
HETATM   16  C   UNL     1      42.512  -9.175  11.145  1.00  0.00    -0.040 A 
HETATM   17  C   UNL     1      43.474 -10.205  11.085  1.00  0.00     0.009 A 
HETATM   18  C   UNL     1      44.569 -10.137  10.221  1.00  0.00     0.007 A 
HETATM   19  C   UNL     1      44.744  -9.031   9.386  1.00  0.00    -0.059 A 
HETATM   20  C   UNL     1      43.799  -8.002   9.428  1.00  0.00     0.007 A 
HETATM   21  C   UNL     1      42.701  -8.072  10.295  1.00  0.00     0.009 A 
BRANCH  19  22
HETATM   22  C   UNL     1      45.913  -8.969   8.436  1.00  0.00     0.034 C 
HETATM   23  C   UNL     1      46.163 -10.306   7.755  1.00  0.00     0.010 C 
ENDBRANCH  19  22
ENDBRANCH   1  16
TORSDOF 2
ENDMDL
MODEL 9
REMARK VINA RESULT:      -6.9     14.658     16.135
REMARK  2 active torsions:
REMARK  status: ('A' for Active; 'I' for Inactive)
REMARK    1  A    between atoms: C_2  and  C_3 
REMARK    2  A    between atoms: C_6  and  C_7 
ROOT
HETATM    1  C   UNL     1      46.691 -30.762   0.644  1.00  0.00     0.119 C 
HETATM    2  S   UNL     1      45.141 -31.516   1.180  1.00  0.00    -0.141 SA
HETATM    3  C   UNL     1      44.199 -30.127   1.867  1.00  0.00     0.136 C 
HETATM    4  C   UNL     1      44.879 -29.197   2.856  1.00  0.00     0.031 C 
HETATM    5  C   UNL     1      43.519 -29.346   0.779  1.00  0.00     0.236 C 
HETATM    6  O   UNL     1      42.316 -29.118   0.772  1.00  0.00    -0.272 OA
HETATM    7  N   UNL     1      44.216 -28.703  -0.282  1.00  0.00    -0.311 N 
HETATM    8  C   UNL     1      45.555 -28.737  -0.621  1.00  0.00     0.134 A 
HETATM    9  C   UNL     1      46.604 -29.557  -0.239  1.00  0.00     0.032 A 
HETATM   10  N   UNL     1      46.071 -27.869  -1.552  1.00  0.00    -0.262 N 
HETATM   11  H   UNL     1      45.590 -27.133  -2.056  1.00  0.00     0.191 HD
HETATM   12  N   UNL     1      47.368 -28.031  -1.793  1.00  0.00    -0.178 NA
HETATM   13  C   UNL     1      47.709 -29.075  -1.037  1.00  0.00     0.062 A 
HETATM   14  C   UNL     1      49.110 -29.580  -1.103  1.00  0.00     0.073 C 
HETATM   15  H   UNL     1      43.592 -28.132  -0.843  1.00  0.00     0.170 HD
ENDROOT
BRANCH   1  16
HETATM   16  C   UNL     1      47.709 -30.574   1.766  1.00  0.00    -0.040 A 
HETATM   17  C   UNL     1      48.410 -31.715   2.208  1.00  0.00     0.009 A 
HETATM   18  C   UNL     1      49.374 -31.638   3.217  1.00  0.00     0.007 A 
HETATM   19  C   UNL     1      49.668 -30.416   3.823  1.00  0.00    -0.059 A 
HETATM   20  C   UNL     1      48.987 -29.273   3.395  1.00  0.00     0.007 A 
HETATM   21  C   UNL     1      48.021 -29.351   2.384  1.00  0.00     0.009 A 
BRANCH  19  22
HETATM   22  C   UNL     1      50.725 -30.330   4.895  1.00  0.00     0.034 C 
HETATM   23  C   UNL     1      51.268 -31.700   5.268  1.00  0.00     0.010 C 
ENDBRANCH  19  22
ENDBRANCH   1  16
TORSDOF 2
ENDMDL
MODEL 10
REMARK VINA RESULT:      -6.9      3.414      5.084
REMARK  2 active torsions:
REMARK  status: ('A' for Active; 'I' for Inactive)
REMARK    1  A    between atoms: C_2  and  C_3 
REMARK    2  A    between atoms: C_6  and  C_7 
ROOT
HETATM    1  C   UNL     1      39.563 -12.972   1.090  1.00  0.00     0.119 C 
HETATM    2  S   UNL     1      39.313 -11.796   2.438  1.00  0.00    -0.141 SA
HETATM    3  C   UNL     1      40.787 -10.741   2.369  1.00  0.00     0.136 C 
HETATM    4  C   UNL     1      42.154 -11.395   2.283  1.00  0.00     0.031 C 
HETATM    5  C   UNL     1      40.637  -9.674   1.323  1.00  0.00     0.236 C 
HETATM    6  O   UNL     1      40.774  -8.480   1.561  1.00  0.00    -0.272 OA
HETATM    7  N   UNL     1      40.434  -9.949  -0.059  1.00  0.00    -0.311 N 
HETATM    8  C   UNL     1      40.218 -11.148  -0.709  1.00  0.00     0.134 A 
HETATM    9  C   UNL     1      39.881 -12.416  -0.261  1.00  0.00     0.032 A 
HETATM   10  N   UNL     1      40.267 -11.230  -2.079  1.00  0.00    -0.262 N 
HETATM   11  H   UNL     1      40.473 -10.492  -2.743  1.00  0.00     0.191 HD
HETATM   12  N   UNL     1      40.017 -12.441  -2.566  1.00  0.00    -0.178 NA
HETATM   13  C   UNL     1      39.741 -13.172  -1.485  1.00  0.00     0.062 A 
HETATM   14  C   UNL     1      39.353 -14.600  -1.667  1.00  0.00     0.073 C 
HETATM   15  H   UNL     1      40.477  -9.100  -0.616  1.00  0.00     0.170 HD
ENDROOT
BRANCH   1  16
HETATM   16  C   UNL     1      40.470 -14.145   1.452  1.00  0.00    -0.040 A 
HETATM   17  C   UNL     1      39.867 -15.281   2.032  1.00  0.00     0.009 A 
HETATM   18  C   UNL     1      40.614 -16.410   2.380  1.00  0.00     0.007 A 
HETATM   19  C   UNL     1      41.992 -16.441   2.163  1.00  0.00    -0.059 A 
HETATM   20  C   UNL     1      42.606 -15.328   1.583  1.00  0.00     0.007 A 
HETATM   21  C   UNL     1      41.858 -14.196   1.235  1.00  0.00     0.009 A 
BRANCH  19  22
HETATM   22  C   UNL     1      42.793 -17.669   2.516  1.00  0.00     0.034 C 
HETATM   23  C   UNL     1      43.628 -17.460   3.770  1.00  0.00     0.010 C 
ENDBRANCH  19  22
ENDBRANCH   1  16
TORSDOF 2
ENDMDL
