MODEL 1
REMARK VINA RESULT:      -9.6      0.000      0.000
REMARK  6 active torsions:
REMARK  status: ('A' for Active; 'I' for Inactive)
REMARK    1  A    between atoms: C_2  and  C_3 
REMARK    2  A    between atoms: C_6  and  N_7 
REMARK    3  A    between atoms: C_8  and  O_9 
REMARK    4  A    between atoms: C_8  and  C_10 
REMARK       I    between atoms: C_10  and  N_11 
REMARK    5  A    between atoms: N_11  and  C_12 
REMARK    6  A    between atoms: C_12  and  C_13 
ROOT
HETATM    1  N   UNL     1      42.458 -14.597   3.940  1.00  0.00    -0.254 N 
HETATM    2  C   UNL     1      41.912 -14.228   5.258  1.00  0.00     0.256 C 
HETATM    3  C   UNL     1      40.972 -13.046   5.150  1.00  0.00     0.034 A 
HETATM    4  C   UNL     1      41.250 -12.097   4.172  1.00  0.00     0.048 A 
HETATM    5  N   UNL     1      42.291 -12.347   3.281  1.00  0.00    -0.308 N 
HETATM    6  C   UNL     1      42.870 -13.575   3.089  1.00  0.00     0.330 C 
HETATM    7  O   UNL     1      43.672 -13.694   2.164  1.00  0.00    -0.246 OA
HETATM    8  C   UNL     1      39.906 -12.816   6.034  1.00  0.00     0.015 A 
HETATM    9  C   UNL     1      39.134 -11.660   5.921  1.00  0.00     0.001 A 
HETATM   10  C   UNL     1      39.431 -10.716   4.939  1.00  0.00     0.002 A 
HETATM   11  C   UNL     1      40.498 -10.928   4.066  1.00  0.00     0.030 A 
HETATM   12  H   UNL     1      42.520 -11.660   2.574  1.00  0.00     0.170 HD
ENDROOT
BRANCH   2  13
HETATM   13  O   UNL     1      41.168 -15.304   5.839  1.00  0.00    -0.359 OA
HETATM   14  H   UNL     1      41.825 -15.976   6.088  1.00  0.00     0.213 HD
ENDBRANCH   2  13
BRANCH   2  15
HETATM   15  C   UNL     1      43.078 -13.853   6.289  1.00  0.00     0.279 C 
HETATM   16  N   UNL     1      43.754 -12.661   6.084  1.00  0.00    -0.352 N 
HETATM   17  H   UNL     1      43.796 -12.311   5.136  1.00  0.00     0.162 HD
HETATM   18  O   UNL     1      43.344 -14.576   7.252  1.00  0.00    -0.268 OA
BRANCH  16  19
HETATM   19  C   UNL     1      44.803 -12.257   6.992  1.00  0.00     0.161 C 
BRANCH  19  20
HETATM   20  C   UNL     1      44.667 -10.854   7.543  1.00  0.00    -0.038 A 
HETATM   21  C   UNL     1      43.400 -10.241   7.461  1.00  0.00     0.048 A 
HETATM   22  C   UNL     1      43.259  -8.947   7.918  1.00  0.00     0.105 A 
HETATM   23  C   UNL     1      44.314  -8.249   8.450  1.00  0.00     0.105 A 
HETATM   24  O   UNL     1      42.112  -8.217   7.894  1.00  0.00    -0.323 OA
HETATM   25  O   UNL     1      43.967  -6.992   8.832  1.00  0.00    -0.323 OA
HETATM   26  C   UNL     1      45.569  -8.807   8.551  1.00  0.00     0.040 A 
HETATM   27  C   UNL     1      42.573  -6.971   8.456  1.00  0.00     0.352 A 
HETATM   28  C   UNL     1      45.746 -10.117   8.085  1.00  0.00     0.012 A 
ENDBRANCH  19  20
ENDBRANCH  16  19
ENDBRANCH   2  15
BRANCH   1  29
HETATM   29  C   UNL     1      42.715 -15.963   3.610  1.00  0.00     0.043 A 
HETATM   30  C   UNL     1      43.686 -16.717   4.276  1.00  0.00     0.030 A 
HETATM   31  C   UNL     1      43.940 -18.044   3.904  1.00  0.00     0.009 A 
HETATM   32  C   UNL     1      43.249 -18.635   2.841  1.00  0.00    -0.058 A 
HETATM   33  C   UNL     1      42.305 -17.872   2.150  1.00  0.00     0.009 A 
HETATM   34  C   UNL     1      42.046 -16.554   2.529  1.00  0.00     0.030 A 
BRANCH  32  35
HETATM   35  C   UNL     1      43.533 -20.055   2.421  1.00  0.00     0.034 C 
HETATM   36  C   UNL     1      43.875 -20.951   3.604  1.00  0.00     0.010 C 
ENDBRANCH  32  35
ENDBRANCH   1  29
TORSDOF 6
ENDMDL
MODEL 2
REMARK VINA RESULT:      -9.5      2.418      8.251
REMARK  6 active torsions:
REMARK  status: ('A' for Active; 'I' for Inactive)
REMARK    1  A    between atoms: C_2  and  C_3 
REMARK    2  A    between atoms: C_6  and  N_7 
REMARK    3  A    between atoms: C_8  and  O_9 
REMARK    4  A    between atoms: C_8  and  C_10 
REMARK       I    between atoms: C_10  and  N_11 
REMARK    5  A    between atoms: N_11  and  C_12 
REMARK    6  A    between atoms: C_12  and  C_13 
ROOT
HETATM    1  N   UNL     1      41.562 -12.744   5.518  1.00  0.00    -0.254 N 
HETATM    2  C   UNL     1      42.258 -13.786   4.742  1.00  0.00     0.256 C 
HETATM    3  C   UNL     1      41.558 -14.048   3.425  1.00  0.00     0.034 A 
HETATM    4  C   UNL     1      40.175 -13.905   3.399  1.00  0.00     0.048 A 
HETATM    5  N   UNL     1      39.535 -13.417   4.536  1.00  0.00    -0.308 N 
HETATM    6  C   UNL     1      40.171 -12.782   5.572  1.00  0.00     0.330 C 
HETATM    7  O   UNL     1      39.474 -12.264   6.443  1.00  0.00    -0.246 OA
HETATM    8  C   UNL     1      42.214 -14.511   2.274  1.00  0.00     0.015 A 
HETATM    9  C   UNL     1      41.488 -14.808   1.121  1.00  0.00     0.001 A 
HETATM   10  C   UNL     1      40.101 -14.667   1.114  1.00  0.00     0.002 A 
HETATM   11  C   UNL     1      39.438 -14.223   2.259  1.00  0.00     0.030 A 
HETATM   12  H   UNL     1      38.528 -13.325   4.542  1.00  0.00     0.170 HD
ENDROOT
BRANCH   2  13
HETATM   13  O   UNL     1      43.602 -13.402   4.434  1.00  0.00    -0.359 OA
HETATM   14  H   UNL     1      43.993 -14.158   3.964  1.00  0.00     0.213 HD
ENDBRANCH   2  13
BRANCH   2  15
HETATM   15  C   UNL     1      42.337 -15.163   5.554  1.00  0.00     0.279 C 
HETATM   16  N   UNL     1      43.589 -15.730   5.732  1.00  0.00    -0.352 N 
HETATM   17  H   UNL     1      44.293 -15.520   5.037  1.00  0.00     0.162 HD
HETATM   18  O   UNL     1      41.329 -15.686   6.037  1.00  0.00    -0.268 OA
BRANCH  16  19
HETATM   19  C   UNL     1      43.729 -16.962   6.474  1.00  0.00     0.161 C 
BRANCH  19  20
HETATM   20  C   UNL     1      43.807 -18.213   5.627  1.00  0.00    -0.038 A 
HETATM   21  C   UNL     1      43.844 -18.053   4.227  1.00  0.00     0.048 A 
HETATM   22  C   UNL     1      43.873 -19.179   3.431  1.00  0.00     0.105 A 
HETATM   23  C   UNL     1      43.871 -20.442   3.967  1.00  0.00     0.105 A 
HETATM   24  O   UNL     1      43.894 -19.190   2.072  1.00  0.00    -0.323 OA
HETATM   25  O   UNL     1      43.895 -21.411   3.013  1.00  0.00    -0.323 OA
HETATM   26  C   UNL     1      43.837 -20.648   5.327  1.00  0.00     0.040 A 
HETATM   27  C   UNL     1      43.887 -20.610   1.813  1.00  0.00     0.352 A 
HETATM   28  C   UNL     1      43.795 -19.523   6.162  1.00  0.00     0.012 A 
ENDBRANCH  19  20
ENDBRANCH  16  19
ENDBRANCH   2  15
BRANCH   1  29
HETATM   29  C   UNL     1      42.293 -11.822   6.328  1.00  0.00     0.043 A 
HETATM   30  C   UNL     1      42.064 -10.444   6.276  1.00  0.00     0.030 A 
HETATM   31  C   UNL     1      42.823  -9.562   7.057  1.00  0.00     0.009 A 
HETATM   32  C   UNL     1      43.846 -10.038   7.885  1.00  0.00    -0.058 A 
HETATM   33  C   UNL     1      44.101 -11.411   7.911  1.00  0.00     0.009 A 
HETATM   34  C   UNL     1      43.336 -12.288   7.140  1.00  0.00     0.030 A 
BRANCH  32  35
HETATM   35  C   UNL     1      44.681  -9.093   8.711  1.00  0.00     0.034 C 
HETATM   36  C   UNL     1      46.143  -9.088   8.284  1.00  0.00     0.010 C 
ENDBRANCH  32  35
ENDBRANCH   1  29
TORSDOF 6
ENDMDL
MODEL 3
REMARK VINA RESULT:      -9.5      3.213      7.320
REMARK  6 active torsions:
REMARK  status: ('A' for Active; 'I' for Inactive)
REMARK    1  A    between atoms: C_2  and  C_3 
REMARK    2  A    between atoms: C_6  and  N_7 
REMARK    3  A    between atoms: C_8  and  O_9 
REMARK    4  A    between atoms: C_8  and  C_10 
REMARK       I    between atoms: C_10  and  N_11 
REMARK    5  A    between atoms: N_11  and  C_12 
REMARK    6  A    between atoms: C_12  and  C_13 
ROOT
HETATM    1  N   UNL     1      40.864 -11.960   2.428  1.00  0.00    -0.254 N 
HETATM    2  C   UNL     1      40.724 -12.501   3.791  1.00  0.00     0.256 C 
HETATM    3  C   UNL     1      40.468 -11.396   4.795  1.00  0.00     0.034 A 
HETATM    4  C   UNL     1      41.053 -10.159   4.545  1.00  0.00     0.048 A 
HETATM    5  N   UNL     1      41.729  -9.975   3.342  1.00  0.00    -0.308 N 
HETATM    6  C   UNL     1      41.616 -10.800   2.253  1.00  0.00     0.330 C 
HETATM    7  O   UNL     1      42.145 -10.442   1.202  1.00  0.00    -0.246 OA
HETATM    8  C   UNL     1      39.759 -11.582   5.992  1.00  0.00     0.015 A 
HETATM    9  C   UNL     1      39.634 -10.536   6.906  1.00  0.00     0.001 A 
HETATM   10  C   UNL     1      40.233  -9.305   6.644  1.00  0.00     0.002 A 
HETATM   11  C   UNL     1      40.954  -9.116   5.464  1.00  0.00     0.030 A 
HETATM   12  H   UNL     1      42.177  -9.088   3.151  1.00  0.00     0.170 HD
ENDROOT
BRANCH   2  13
HETATM   13  O   UNL     1      39.627 -13.416   3.884  1.00  0.00    -0.359 OA
HETATM   14  H   UNL     1      39.048 -13.212   3.130  1.00  0.00     0.213 HD
ENDBRANCH   2  13
BRANCH   2  15
HETATM   15  C   UNL     1      42.039 -13.296   4.241  1.00  0.00     0.279 C 
HETATM   16  N   UNL     1      41.984 -14.680   4.230  1.00  0.00    -0.352 N 
HETATM   17  H   UNL     1      41.076 -15.108   4.356  1.00  0.00     0.162 HD
HETATM   18  O   UNL     1      43.075 -12.705   4.553  1.00  0.00    -0.268 OA
BRANCH  16  19
HETATM   19  C   UNL     1      43.145 -15.456   4.606  1.00  0.00     0.161 C 
BRANCH  19  20
HETATM   20  C   UNL     1      43.222 -16.833   3.984  1.00  0.00    -0.038 A 
HETATM   21  C   UNL     1      43.688 -17.889   4.793  1.00  0.00     0.048 A 
HETATM   22  C   UNL     1      43.808 -19.146   4.238  1.00  0.00     0.105 A 
HETATM   23  C   UNL     1      43.483 -19.392   2.927  1.00  0.00     0.105 A 
HETATM   24  O   UNL     1      44.254 -20.259   4.880  1.00  0.00    -0.323 OA
HETATM   25  O   UNL     1      43.679 -20.690   2.577  1.00  0.00    -0.323 OA
HETATM   26  C   UNL     1      43.023 -18.392   2.100  1.00  0.00     0.040 A 
HETATM   27  C   UNL     1      44.190 -21.230   3.814  1.00  0.00     0.352 A 
HETATM   28  C   UNL     1      42.901 -17.101   2.633  1.00  0.00     0.012 A 
ENDBRANCH  19  20
ENDBRANCH  16  19
ENDBRANCH   2  15
BRANCH   1  29
HETATM   29  C   UNL     1      40.388 -12.691   1.297  1.00  0.00     0.043 A 
HETATM   30  C   UNL     1      40.967 -13.899   0.896  1.00  0.00     0.030 A 
HETATM   31  C   UNL     1      40.501 -14.575  -0.240  1.00  0.00     0.009 A 
HETATM   32  C   UNL     1      39.464 -14.043  -1.014  1.00  0.00    -0.058 A 
HETATM   33  C   UNL     1      38.909 -12.818  -0.637  1.00  0.00     0.009 A 
HETATM   34  C   UNL     1      39.368 -12.152   0.500  1.00  0.00     0.030 A 
BRANCH  32  35
HETATM   35  C   UNL     1      38.973 -14.754  -2.250  1.00  0.00     0.034 C 
HETATM   36  C   UNL     1      37.895 -13.964  -2.981  1.00  0.00     0.010 C 
ENDBRANCH  32  35
ENDBRANCH   1  29
TORSDOF 6
ENDMDL
MODEL 4
REMARK VINA RESULT:      -9.4      2.975      7.879
REMARK  6 active torsions:
REMARK  status: ('A' for Active; 'I' for Inactive)
REMARK    1  A    between atoms: C_2  and  C_3 
REMARK    2  A    between atoms: C_6  and  N_7 
REMARK    3  A    between atoms: C_8  and  O_9 
REMARK    4  A    between atoms: C_8  and  C_10 
REMARK       I    between atoms: C_10  and  N_11 
REMARK    5  A    between atoms: N_11  and  C_12 
REMARK    6  A    between atoms: C_12  and  C_13 
ROOT
HETATM    1  N   UNL     1      43.289 -12.641   4.859  1.00  0.00    -0.254 N 
HETATM    2  C   UNL     1      42.413 -13.808   5.066  1.00  0.00     0.256 C 
HETATM    3  C   UNL     1      42.737 -14.916   4.086  1.00  0.00     0.034 A 
HETATM    4  C   UNL     1      43.184 -14.541   2.824  1.00  0.00     0.048 A 
HETATM    5  N   UNL     1      43.423 -13.191   2.578  1.00  0.00    -0.308 N 
HETATM    6  C   UNL     1      43.546 -12.234   3.552  1.00  0.00     0.330 C 
HETATM    7  O   UNL     1      43.908 -11.109   3.211  1.00  0.00    -0.246 OA
HETATM    8  C   UNL     1      42.521 -16.277   4.353  1.00  0.00     0.015 A 
HETATM    9  C   UNL     1      42.767 -17.235   3.369  1.00  0.00     0.001 A 
HETATM   10  C   UNL     1      43.208 -16.841   2.107  1.00  0.00     0.002 A 
HETATM   11  C   UNL     1      43.409 -15.488   1.828  1.00  0.00     0.030 A 
HETATM   12  H   UNL     1      43.730 -12.897   1.660  1.00  0.00     0.170 HD
ENDROOT
BRANCH   2  13
HETATM   13  O   UNL     1      42.565 -14.352   6.382  1.00  0.00    -0.359 OA
HETATM   14  H   UNL     1      41.771 -14.084   6.873  1.00  0.00     0.213 HD
ENDBRANCH   2  13
BRANCH   2  15
HETATM   15  C   UNL     1      40.870 -13.417   4.895  1.00  0.00     0.279 C 
HETATM   16  N   UNL     1      40.458 -12.966   3.652  1.00  0.00    -0.352 N 
HETATM   17  H   UNL     1      41.153 -12.516   3.071  1.00  0.00     0.162 HD
HETATM   18  O   UNL     1      40.066 -13.545   5.822  1.00  0.00    -0.268 OA
BRANCH  16  19
HETATM   19  C   UNL     1      39.073 -12.618   3.429  1.00  0.00     0.161 C 
BRANCH  19  20
HETATM   20  C   UNL     1      38.720 -12.289   1.994  1.00  0.00    -0.038 A 
HETATM   21  C   UNL     1      39.516 -12.857   0.979  1.00  0.00     0.048 A 
HETATM   22  C   UNL     1      39.242 -12.540  -0.334  1.00  0.00     0.105 A 
HETATM   23  C   UNL     1      38.216 -11.693  -0.674  1.00  0.00     0.105 A 
HETATM   24  O   UNL     1      39.924 -12.991  -1.420  1.00  0.00    -0.323 OA
HETATM   25  O   UNL     1      38.119 -11.506  -2.017  1.00  0.00    -0.323 OA
HETATM   26  C   UNL     1      37.412 -11.116   0.282  1.00  0.00     0.040 A 
HETATM   27  C   UNL     1      39.220 -12.315  -2.483  1.00  0.00     0.352 A 
HETATM   28  C   UNL     1      37.674 -11.410   1.627  1.00  0.00     0.012 A 
ENDBRANCH  19  20
ENDBRANCH  16  19
ENDBRANCH   2  15
BRANCH   1  29
HETATM   29  C   UNL     1      43.726 -11.847   5.963  1.00  0.00     0.043 A 
HETATM   30  C   UNL     1      42.892 -10.908   6.578  1.00  0.00     0.030 A 
HETATM   31  C   UNL     1      43.362 -10.118   7.636  1.00  0.00     0.009 A 
HETATM   32  C   UNL     1      44.683 -10.231   8.084  1.00  0.00    -0.058 A 
HETATM   33  C   UNL     1      45.528 -11.143   7.447  1.00  0.00     0.009 A 
HETATM   34  C   UNL     1      45.055 -11.936   6.400  1.00  0.00     0.030 A 
BRANCH  32  35
HETATM   35  C   UNL     1      45.201  -9.370   9.207  1.00  0.00     0.034 C 
HETATM   36  C   UNL     1      45.086 -10.055  10.562  1.00  0.00     0.010 C 
ENDBRANCH  32  35
ENDBRANCH   1  29
TORSDOF 6
ENDMDL
MODEL 5
REMARK VINA RESULT:      -9.2      2.263      7.800
REMARK  6 active torsions:
REMARK  status: ('A' for Active; 'I' for Inactive)
REMARK    1  A    between atoms: C_2  and  C_3 
REMARK    2  A    between atoms: C_6  and  N_7 
REMARK    3  A    between atoms: C_8  and  O_9 
REMARK    4  A    between atoms: C_8  and  C_10 
REMARK       I    between atoms: C_10  and  N_11 
REMARK    5  A    between atoms: N_11  and  C_12 
REMARK    6  A    between atoms: C_12  and  C_13 
ROOT
HETATM    1  N   UNL     1      41.775 -12.312   4.552  1.00  0.00    -0.254 N 
HETATM    2  C   UNL     1      42.022 -12.164   3.107  1.00  0.00     0.256 C 
HETATM    3  C   UNL     1      40.737 -11.879   2.359  1.00  0.00     0.034 A 
HETATM    4  C   UNL     1      39.570 -12.449   2.857  1.00  0.00     0.048 A 
HETATM    5  N   UNL     1      39.629 -13.137   4.066  1.00  0.00    -0.308 N 
HETATM    6  C   UNL     1      40.666 -13.048   4.959  1.00  0.00     0.330 C 
HETATM    7  O   UNL     1      40.526 -13.585   6.057  1.00  0.00    -0.246 OA
HETATM    8  C   UNL     1      40.681 -11.159   1.155  1.00  0.00     0.015 A 
HETATM    9  C   UNL     1      39.469 -11.008   0.481  1.00  0.00     0.001 A 
HETATM   10  C   UNL     1      38.310 -11.591   0.990  1.00  0.00     0.002 A 
HETATM   11  C   UNL     1      38.359 -12.323   2.177  1.00  0.00     0.030 A 
HETATM   12  H   UNL     1      38.794 -13.574   4.434  1.00  0.00     0.170 HD
ENDROOT
BRANCH   2  13
HETATM   13  O   UNL     1      42.916 -11.080   2.834  1.00  0.00    -0.359 OA
HETATM   14  H   UNL     1      43.711 -11.252   3.367  1.00  0.00     0.213 HD
ENDBRANCH   2  13
BRANCH   2  15
HETATM   15  C   UNL     1      42.683 -13.485   2.489  1.00  0.00     0.279 C 
HETATM   16  N   UNL     1      41.855 -14.573   2.269  1.00  0.00    -0.352 N 
HETATM   17  H   UNL     1      41.035 -14.654   2.855  1.00  0.00     0.162 HD
HETATM   18  O   UNL     1      43.878 -13.525   2.185  1.00  0.00    -0.268 OA
BRANCH  16  19
HETATM   19  C   UNL     1      42.388 -15.787   1.695  1.00  0.00     0.161 C 
BRANCH  19  20
HETATM   20  C   UNL     1      42.940 -16.779   2.695  1.00  0.00    -0.038 A 
HETATM   21  C   UNL     1      43.052 -18.124   2.288  1.00  0.00     0.048 A 
HETATM   22  C   UNL     1      43.512 -19.055   3.195  1.00  0.00     0.105 A 
HETATM   23  C   UNL     1      43.863 -18.706   4.475  1.00  0.00     0.105 A 
HETATM   24  O   UNL     1      43.662 -20.386   2.960  1.00  0.00    -0.323 OA
HETATM   25  O   UNL     1      44.282 -19.770   5.208  1.00  0.00    -0.323 OA
HETATM   26  C   UNL     1      43.771 -17.405   4.917  1.00  0.00     0.040 A 
HETATM   27  C   UNL     1      44.131 -20.837   4.248  1.00  0.00     0.352 A 
HETATM   28  C   UNL     1      43.296 -16.438   4.021  1.00  0.00     0.012 A 
ENDBRANCH  19  20
ENDBRANCH  16  19
ENDBRANCH   2  15
BRANCH   1  29
HETATM   29  C   UNL     1      42.735 -11.860   5.509  1.00  0.00     0.043 A 
HETATM   30  C   UNL     1      43.882 -12.599   5.816  1.00  0.00     0.030 A 
HETATM   31  C   UNL     1      44.786 -12.146   6.786  1.00  0.00     0.009 A 
HETATM   32  C   UNL     1      44.549 -10.961   7.490  1.00  0.00    -0.058 A 
HETATM   33  C   UNL     1      43.384 -10.240   7.211  1.00  0.00     0.009 A 
HETATM   34  C   UNL     1      42.491 -10.687   6.237  1.00  0.00     0.030 A 
BRANCH  32  35
HETATM   35  C   UNL     1      45.506 -10.480   8.550  1.00  0.00     0.034 C 
HETATM   36  C   UNL     1      46.322  -9.279   8.091  1.00  0.00     0.010 C 
ENDBRANCH  32  35
ENDBRANCH   1  29
TORSDOF 6
ENDMDL
MODEL 6
REMARK VINA RESULT:      -9.1      2.803      4.488
REMARK  6 active torsions:
REMARK  status: ('A' for Active; 'I' for Inactive)
REMARK    1  A    between atoms: C_2  and  C_3 
REMARK    2  A    between atoms: C_6  and  N_7 
REMARK    3  A    between atoms: C_8  and  O_9 
REMARK    4  A    between atoms: C_8  and  C_10 
REMARK       I    between atoms: C_10  and  N_11 
REMARK    5  A    between atoms: N_11  and  C_12 
REMARK    6  A    between atoms: C_12  and  C_13 
ROOT
HETATM    1  N   UNL     1      41.064 -13.878   2.919  1.00  0.00    -0.254 N 
HETATM    2  C   UNL     1      42.426 -14.165   3.404  1.00  0.00     0.256 C 
HETATM    3  C   UNL     1      42.392 -14.970   4.686  1.00  0.00     0.034 A 
HETATM    4  C   UNL     1      41.330 -14.743   5.554  1.00  0.00     0.048 A 
HETATM    5  N   UNL     1      40.308 -13.890   5.144  1.00  0.00    -0.308 N 
HETATM    6  C   UNL     1      40.103 -13.490   3.849  1.00  0.00     0.330 C 
HETATM    7  O   UNL     1      39.076 -12.862   3.597  1.00  0.00    -0.246 OA
HETATM    8  C   UNL     1      43.412 -15.851   5.078  1.00  0.00     0.015 A 
HETATM    9  C   UNL     1      43.349 -16.496   6.313  1.00  0.00     0.001 A 
HETATM   10  C   UNL     1      42.281 -16.251   7.175  1.00  0.00     0.002 A 
HETATM   11  C   UNL     1      41.271 -15.364   6.800  1.00  0.00     0.030 A 
HETATM   12  H   UNL     1      39.537 -13.697   5.770  1.00  0.00     0.170 HD
ENDROOT
BRANCH   2  13
HETATM   13  O   UNL     1      43.174 -14.926   2.449  1.00  0.00    -0.359 OA
HETATM   14  H   UNL     1      43.844 -14.319   2.093  1.00  0.00     0.213 HD
ENDBRANCH   2  13
BRANCH   2  15
HETATM   15  C   UNL     1      43.246 -12.817   3.676  1.00  0.00     0.279 C 
HETATM   16  N   UNL     1      43.604 -12.540   4.985  1.00  0.00    -0.352 N 
HETATM   17  H   UNL     1      43.018 -12.922   5.715  1.00  0.00     0.162 HD
HETATM   18  O   UNL     1      43.579 -12.068   2.754  1.00  0.00    -0.268 OA
BRANCH  16  19
HETATM   19  C   UNL     1      44.363 -11.348   5.292  1.00  0.00     0.161 C 
BRANCH  19  20
HETATM   20  C   UNL     1      44.328 -10.925   6.745  1.00  0.00    -0.038 A 
HETATM   21  C   UNL     1      43.123 -10.385   7.238  1.00  0.00     0.048 A 
HETATM   22  C   UNL     1      43.077  -9.952   8.547  1.00  0.00     0.105 A 
HETATM   23  C   UNL     1      44.168 -10.038   9.375  1.00  0.00     0.105 A 
HETATM   24  O   UNL     1      41.999  -9.398   9.163  1.00  0.00    -0.323 OA
HETATM   25  O   UNL     1      43.916  -9.552  10.619  1.00  0.00    -0.323 OA
HETATM   26  C   UNL     1      45.365 -10.558   8.937  1.00  0.00     0.040 A 
HETATM   27  C   UNL     1      42.545  -9.126  10.471  1.00  0.00     0.352 A 
HETATM   28  C   UNL     1      45.446 -10.996   7.608  1.00  0.00     0.012 A 
ENDBRANCH  19  20
ENDBRANCH  16  19
ENDBRANCH   2  15
BRANCH   1  29
HETATM   29  C   UNL     1      40.779 -13.832   1.520  1.00  0.00     0.043 A 
HETATM   30  C   UNL     1      41.043 -12.698   0.745  1.00  0.00     0.030 A 
HETATM   31  C   UNL     1      40.718 -12.671  -0.618  1.00  0.00     0.009 A 
HETATM   32  C   UNL     1      40.097 -13.767  -1.228  1.00  0.00    -0.058 A 
HETATM   33  C   UNL     1      39.799 -14.886  -0.447  1.00  0.00     0.009 A 
HETATM   34  C   UNL     1      40.133 -14.915   0.907  1.00  0.00     0.030 A 
BRANCH  32  35
HETATM   35  C   UNL     1      39.725 -13.736  -2.688  1.00  0.00     0.034 C 
HETATM   36  C   UNL     1      38.721 -14.822  -3.052  1.00  0.00     0.010 C 
ENDBRANCH  32  35
ENDBRANCH   1  29
TORSDOF 6
ENDMDL
MODEL 7
REMARK VINA RESULT:      -9.0      2.026      5.939
REMARK  6 active torsions:
REMARK  status: ('A' for Active; 'I' for Inactive)
REMARK    1  A    between atoms: C_2  and  C_3 
REMARK    2  A    between atoms: C_6  and  N_7 
REMARK    3  A    between atoms: C_8  and  O_9 
REMARK    4  A    between atoms: C_8  and  C_10 
REMARK       I    between atoms: C_10  and  N_11 
REMARK    5  A    between atoms: N_11  and  C_12 
REMARK    6  A    between atoms: C_12  and  C_13 
ROOT
HETATM    1  N   UNL     1      41.036 -12.729   5.055  1.00  0.00    -0.254 N 
HETATM    2  C   UNL     1      42.343 -12.833   4.383  1.00  0.00     0.256 C 
HETATM    3  C   UNL     1      42.437 -14.101   3.561  1.00  0.00     0.034 A 
HETATM    4  C   UNL     1      41.755 -15.217   4.031  1.00  0.00     0.048 A 
HETATM    5  N   UNL     1      40.937 -15.075   5.149  1.00  0.00    -0.308 N 
HETATM    6  C   UNL     1      40.507 -13.872   5.648  1.00  0.00     0.330 C 
HETATM    7  O   UNL     1      39.666 -13.890   6.545  1.00  0.00    -0.246 OA
HETATM    8  C   UNL     1      43.240 -14.228   2.417  1.00  0.00     0.015 A 
HETATM    9  C   UNL     1      43.339 -15.453   1.759  1.00  0.00     0.001 A 
HETATM   10  C   UNL     1      42.655 -16.565   2.248  1.00  0.00     0.002 A 
HETATM   11  C   UNL     1      41.866 -16.452   3.394  1.00  0.00     0.030 A 
HETATM   12  H   UNL     1      40.448 -15.881   5.517  1.00  0.00     0.170 HD
ENDROOT
BRANCH   2  13
HETATM   13  O   UNL     1      42.565 -11.735   3.491  1.00  0.00    -0.359 OA
HETATM   14  H   UNL     1      41.702 -11.299   3.390  1.00  0.00     0.213 HD
ENDBRANCH   2  13
BRANCH   2  15
HETATM   15  C   UNL     1      43.545 -12.828   5.441  1.00  0.00     0.279 C 
HETATM   16  N   UNL     1      44.316 -11.680   5.528  1.00  0.00    -0.352 N 
HETATM   17  H   UNL     1      44.380 -11.104   4.699  1.00  0.00     0.162 HD
HETATM   18  O   UNL     1      43.758 -13.793   6.180  1.00  0.00    -0.268 OA
BRANCH  16  19
HETATM   19  C   UNL     1      45.403 -11.606   6.478  1.00  0.00     0.161 C 
BRANCH  19  20
HETATM   20  C   UNL     1      45.146 -10.717   7.675  1.00  0.00    -0.038 A 
HETATM   21  C   UNL     1      44.216 -11.166   8.634  1.00  0.00     0.048 A 
HETATM   22  C   UNL     1      43.932 -10.355   9.713  1.00  0.00     0.105 A 
HETATM   23  C   UNL     1      44.532  -9.131   9.875  1.00  0.00     0.105 A 
HETATM   24  O   UNL     1      43.052 -10.638  10.710  1.00  0.00    -0.323 OA
HETATM   25  O   UNL     1      44.110  -8.489  10.996  1.00  0.00    -0.323 OA
HETATM   26  C   UNL     1      45.447  -8.652   8.964  1.00  0.00     0.040 A 
HETATM   27  C   UNL     1      43.155  -9.441  11.509  1.00  0.00     0.352 A 
HETATM   28  C   UNL     1      45.747  -9.449   7.851  1.00  0.00     0.012 A 
ENDBRANCH  19  20
ENDBRANCH  16  19
ENDBRANCH   2  15
BRANCH   1  29
HETATM   29  C   UNL     1      40.406 -11.460   5.241  1.00  0.00     0.043 A 
HETATM   30  C   UNL     1      40.794 -10.581   6.257  1.00  0.00     0.030 A 
HETATM   31  C   UNL     1      40.132  -9.359   6.437  1.00  0.00     0.009 A 
HETATM   32  C   UNL     1      39.052  -9.002   5.623  1.00  0.00    -0.058 A 
HETATM   33  C   UNL     1      38.639  -9.895   4.630  1.00  0.00     0.009 A 
HETATM   34  C   UNL     1      39.307 -11.107   4.446  1.00  0.00     0.030 A 
BRANCH  32  35
HETATM   35  C   UNL     1      38.322  -7.698   5.824  1.00  0.00     0.034 C 
HETATM   36  C   UNL     1      38.691  -7.026   7.140  1.00  0.00     0.010 C 
ENDBRANCH  32  35
ENDBRANCH   1  29
TORSDOF 6
ENDMDL
MODEL 8
REMARK VINA RESULT:      -9.0      2.020      6.480
REMARK  6 active torsions:
REMARK  status: ('A' for Active; 'I' for Inactive)
REMARK    1  A    between atoms: C_2  and  C_3 
REMARK    2  A    between atoms: C_6  and  N_7 
REMARK    3  A    between atoms: C_8  and  O_9 
REMARK    4  A    between atoms: C_8  and  C_10 
REMARK       I    between atoms: C_10  and  N_11 
REMARK    5  A    between atoms: N_11  and  C_12 
REMARK    6  A    between atoms: C_12  and  C_13 
ROOT
HETATM    1  N   UNL     1      43.401 -12.592   4.934  1.00  0.00    -0.254 N 
HETATM    2  C   UNL     1      42.584 -13.788   5.209  1.00  0.00     0.256 C 
HETATM    3  C   UNL     1      42.856 -14.881   4.197  1.00  0.00     0.034 A 
HETATM    4  C   UNL     1      43.180 -14.486   2.904  1.00  0.00     0.048 A 
HETATM    5  N   UNL     1      43.353 -13.129   2.647  1.00  0.00    -0.308 N 
HETATM    6  C   UNL     1      43.530 -12.172   3.613  1.00  0.00     0.330 C 
HETATM    7  O   UNL     1      43.826 -11.035   3.249  1.00  0.00    -0.246 OA
HETATM    8  C   UNL     1      42.708 -16.249   4.472  1.00  0.00     0.015 A 
HETATM    9  C   UNL     1      42.897 -17.195   3.464  1.00  0.00     0.001 A 
HETATM   10  C   UNL     1      43.214 -16.782   2.171  1.00  0.00     0.002 A 
HETATM   11  C   UNL     1      43.347 -15.422   1.885  1.00  0.00     0.030 A 
HETATM   12  H   UNL     1      43.570 -12.821   1.707  1.00  0.00     0.170 HD
ENDROOT
BRANCH   2  13
HETATM   13  O   UNL     1      42.867 -14.332   6.502  1.00  0.00    -0.359 OA
HETATM   14  H   UNL     1      42.077 -14.837   6.756  1.00  0.00     0.213 HD
ENDBRANCH   2  13
BRANCH   2  15
HETATM   15  C   UNL     1      41.021 -13.446   5.175  1.00  0.00     0.279 C 
HETATM   16  N   UNL     1      40.593 -12.495   4.264  1.00  0.00    -0.352 N 
HETATM   17  H   UNL     1      41.262 -11.791   3.983  1.00  0.00     0.162 HD
HETATM   18  O   UNL     1      40.217 -14.031   5.906  1.00  0.00    -0.268 OA
BRANCH  16  19
HETATM   19  C   UNL     1      39.190 -12.158   4.171  1.00  0.00     0.161 C 
BRANCH  19  20
HETATM   20  C   UNL     1      38.875 -10.686   4.323  1.00  0.00    -0.038 A 
HETATM   21  C   UNL     1      38.939 -10.135   5.619  1.00  0.00     0.048 A 
HETATM   22  C   UNL     1      38.616  -8.805   5.791  1.00  0.00     0.105 A 
HETATM   23  C   UNL     1      38.239  -8.011   4.737  1.00  0.00     0.105 A 
HETATM   24  O   UNL     1      38.615  -8.134   6.974  1.00  0.00    -0.323 OA
HETATM   25  O   UNL     1      37.956  -6.738   5.120  1.00  0.00    -0.323 OA
HETATM   26  C   UNL     1      38.163  -8.504   3.454  1.00  0.00     0.040 A 
HETATM   27  C   UNL     1      38.175  -6.829   6.544  1.00  0.00     0.352 A 
HETATM   28  C   UNL     1      38.475  -9.855   3.250  1.00  0.00     0.012 A 
ENDBRANCH  19  20
ENDBRANCH  16  19
ENDBRANCH   2  15
BRANCH   1  29
HETATM   29  C   UNL     1      43.907 -11.789   6.002  1.00  0.00     0.043 A 
HETATM   30  C   UNL     1      43.099 -10.885   6.698  1.00  0.00     0.030 A 
HETATM   31  C   UNL     1      43.634 -10.085   7.717  1.00  0.00     0.009 A 
HETATM   32  C   UNL     1      44.993 -10.152   8.042  1.00  0.00    -0.058 A 
HETATM   33  C   UNL     1      45.810 -11.028   7.323  1.00  0.00     0.009 A 
HETATM   34  C   UNL     1      45.273 -11.832   6.316  1.00  0.00     0.030 A 
BRANCH  32  35
HETATM   35  C   UNL     1      45.579  -9.278   9.122  1.00  0.00     0.034 C 
HETATM   36  C   UNL     1      45.029  -9.616  10.501  1.00  0.00     0.010 C 
ENDBRANCH  32  35
ENDBRANCH   1  29
TORSDOF 6
ENDMDL
MODEL 9
REMARK VINA RESULT:      -8.8      1.919      2.816
REMARK  6 active torsions:
REMARK  status: ('A' for Active; 'I' for Inactive)
REMARK    1  A    between atoms: C_2  and  C_3 
REMARK    2  A    between atoms: C_6  and  N_7 
REMARK    3  A    between atoms: C_8  and  O_9 
REMARK    4  A    between atoms: C_8  and  C_10 
REMARK       I    between atoms: C_10  and  N_11 
REMARK    5  A    between atoms: N_11  and  C_12 
REMARK    6  A    between atoms: C_12  and  C_13 
ROOT
HETATM    1  N   UNL     1      41.856 -13.751   2.982  1.00  0.00    -0.254 N 
HETATM    2  C   UNL     1      40.479 -13.409   3.377  1.00  0.00     0.256 C 
HETATM    3  C   UNL     1      39.901 -12.338   2.476  1.00  0.00     0.034 A 
HETATM    4  C   UNL     1      40.781 -11.391   1.966  1.00  0.00     0.048 A 
HETATM    5  N   UNL     1      42.143 -11.551   2.208  1.00  0.00    -0.308 N 
HETATM    6  C   UNL     1      42.722 -12.713   2.647  1.00  0.00     0.330 C 
HETATM    7  O   UNL     1      43.951 -12.769   2.674  1.00  0.00    -0.246 OA
HETATM    8  C   UNL     1      38.529 -12.201   2.213  1.00  0.00     0.015 A 
HETATM    9  C   UNL     1      38.063 -11.138   1.438  1.00  0.00     0.001 A 
HETATM   10  C   UNL     1      38.959 -10.194   0.940  1.00  0.00     0.002 A 
HETATM   11  C   UNL     1      40.322 -10.313   1.211  1.00  0.00     0.030 A 
HETATM   12  H   UNL     1      42.797 -10.861   1.861  1.00  0.00     0.170 HD
ENDROOT
BRANCH   2  13
HETATM   13  O   UNL     1      39.610 -14.544   3.292  1.00  0.00    -0.359 OA
HETATM   14  H   UNL     1      39.437 -14.814   4.210  1.00  0.00     0.213 HD
ENDBRANCH   2  13
BRANCH   2  15
HETATM   15  C   UNL     1      40.419 -12.884   4.888  1.00  0.00     0.279 C 
HETATM   16  N   UNL     1      40.539 -11.520   5.097  1.00  0.00    -0.352 N 
HETATM   17  H   UNL     1      41.055 -10.991   4.407  1.00  0.00     0.162 HD
HETATM   18  O   UNL     1      40.236 -13.657   5.833  1.00  0.00    -0.268 OA
BRANCH  16  19
HETATM   19  C   UNL     1      40.472 -10.982   6.438  1.00  0.00     0.161 C 
BRANCH  19  20
HETATM   20  C   UNL     1      41.779 -10.440   6.975  1.00  0.00    -0.038 A 
HETATM   21  C   UNL     1      42.949 -11.181   6.714  1.00  0.00     0.048 A 
HETATM   22  C   UNL     1      44.147 -10.731   7.228  1.00  0.00     0.105 A 
HETATM   23  C   UNL     1      44.226  -9.586   7.980  1.00  0.00     0.105 A 
HETATM   24  O   UNL     1      45.355 -11.338   7.078  1.00  0.00    -0.323 OA
HETATM   25  O   UNL     1      45.493  -9.323   8.396  1.00  0.00    -0.323 OA
HETATM   26  C   UNL     1      43.111  -8.830   8.260  1.00  0.00     0.040 A 
HETATM   27  C   UNL     1      46.200 -10.451   7.839  1.00  0.00     0.352 A 
HETATM   28  C   UNL     1      41.877  -9.268   7.760  1.00  0.00     0.012 A 
ENDBRANCH  19  20
ENDBRANCH  16  19
ENDBRANCH   2  15
BRANCH   1  29
HETATM   29  C   UNL     1      42.342 -15.090   3.100  1.00  0.00     0.043 A 
HETATM   30  C   UNL     1      42.787 -15.613   4.318  1.00  0.00     0.030 A 
HETATM   31  C   UNL     1      43.292 -16.918   4.394  1.00  0.00     0.009 A 
HETATM   32  C   UNL     1      43.387 -17.717   3.250  1.00  0.00    -0.058 A 
HETATM   33  C   UNL     1      42.978 -17.184   2.025  1.00  0.00     0.009 A 
HETATM   34  C   UNL     1      42.465 -15.887   1.954  1.00  0.00     0.030 A 
BRANCH  32  35
HETATM   35  C   UNL     1      43.950 -19.114   3.321  1.00  0.00     0.034 C 
HETATM   36  C   UNL     1      43.419 -20.009   2.209  1.00  0.00     0.010 C 
ENDBRANCH  32  35
ENDBRANCH   1  29
TORSDOF 6
ENDMDL
MODEL 10
REMARK VINA RESULT:      -8.8      3.703      7.341
REMARK  6 active torsions:
REMARK  status: ('A' for Active; 'I' for Inactive)
REMARK    1  A    between atoms: C_2  and  C_3 
REMARK    2  A    between atoms: C_6  and  N_7 
REMARK    3  A    between atoms: C_8  and  O_9 
REMARK    4  A    between atoms: C_8  and  C_10 
REMARK       I    between atoms: C_10  and  N_11 
REMARK    5  A    between atoms: N_11  and  C_12 
REMARK    6  A    between atoms: C_12  and  C_13 
ROOT
HETATM    1  N   UNL     1      41.142 -13.356   5.074  1.00  0.00    -0.254 N 
HETATM    2  C   UNL     1      41.274 -12.077   4.353  1.00  0.00     0.256 C 
HETATM    3  C   UNL     1      41.261 -10.905   5.311  1.00  0.00     0.034 A 
HETATM    4  C   UNL     1      40.491 -11.030   6.462  1.00  0.00     0.048 A 
HETATM    5  N   UNL     1      39.882 -12.255   6.724  1.00  0.00    -0.308 N 
HETATM    6  C   UNL     1      40.216 -13.435   6.111  1.00  0.00     0.330 C 
HETATM    7  O   UNL     1      39.710 -14.470   6.542  1.00  0.00    -0.246 OA
HETATM    8  C   UNL     1      41.903  -9.683   5.054  1.00  0.00     0.015 A 
HETATM    9  C   UNL     1      41.777  -8.620   5.947  1.00  0.00     0.001 A 
HETATM   10  C   UNL     1      40.995  -8.760   7.092  1.00  0.00     0.002 A 
HETATM   11  C   UNL     1      40.340  -9.965   7.348  1.00  0.00     0.030 A 
HETATM   12  H   UNL     1      39.301 -12.359   7.546  1.00  0.00     0.170 HD
ENDROOT
BRANCH   2  13
HETATM   13  O   UNL     1      42.504 -12.010   3.623  1.00  0.00    -0.359 OA
HETATM   14  H   UNL     1      42.546 -11.111   3.257  1.00  0.00     0.213 HD
ENDBRANCH   2  13
BRANCH   2  15
HETATM   15  C   UNL     1      40.089 -11.878   3.296  1.00  0.00     0.279 C 
HETATM   16  N   UNL     1      40.437 -11.521   2.004  1.00  0.00    -0.352 N 
HETATM   17  H   UNL     1      41.303 -11.012   1.883  1.00  0.00     0.162 HD
HETATM   18  O   UNL     1      38.910 -12.070   3.606  1.00  0.00    -0.268 OA
BRANCH  16  19
HETATM   19  C   UNL     1      39.414 -11.347   0.998  1.00  0.00     0.161 C 
BRANCH  19  20
HETATM   20  C   UNL     1      39.318 -12.464  -0.017  1.00  0.00    -0.038 A 
HETATM   21  C   UNL     1      38.419 -12.297  -1.090  1.00  0.00     0.048 A 
HETATM   22  C   UNL     1      38.282 -13.319  -2.006  1.00  0.00     0.105 A 
HETATM   23  C   UNL     1      38.998 -14.486  -1.900  1.00  0.00     0.105 A 
HETATM   24  O   UNL     1      37.450 -13.317  -3.081  1.00  0.00    -0.323 OA
HETATM   25  O   UNL     1      38.712 -15.364  -2.896  1.00  0.00    -0.323 OA
HETATM   26  C   UNL     1      39.888 -14.693  -0.870  1.00  0.00     0.040 A 
HETATM   27  C   UNL     1      37.712 -14.625  -3.629  1.00  0.00     0.352 A 
HETATM   28  C   UNL     1      40.041 -13.677   0.083  1.00  0.00     0.012 A 
ENDBRANCH  19  20
ENDBRANCH  16  19
ENDBRANCH   2  15
BRANCH   1  29
HETATM   29  C   UNL     1      41.819 -14.528   4.617  1.00  0.00     0.043 A 
HETATM   30  C   UNL     1      41.372 -15.261   3.514  1.00  0.00     0.030 A 
HETATM   31  C   UNL     1      42.037 -16.427   3.112  1.00  0.00     0.009 A 
HETATM   32  C   UNL     1      43.146 -16.901   3.822  1.00  0.00    -0.058 A 
HETATM   33  C   UNL     1      43.572 -16.190   4.947  1.00  0.00     0.009 A 
HETATM   34  C   UNL     1      42.915 -15.023   5.339  1.00  0.00     0.030 A 
BRANCH  32  35
HETATM   35  C   UNL     1      43.852 -18.167   3.409  1.00  0.00     0.034 C 
HETATM   36  C   UNL     1      44.519 -18.867   4.585  1.00  0.00     0.010 C 
ENDBRANCH  32  35
ENDBRANCH   1  29
TORSDOF 6
ENDMDL
