MODEL 1
REMARK VINA RESULT:      -9.6      0.000      0.000
REMARK  6 active torsions:
REMARK  status: ('A' for Active; 'I' for Inactive)
REMARK    1  A    between atoms: C_4  and  C_5 
REMARK    2  A    between atoms: C_8  and  C_9 
REMARK    3  A    between atoms: C_9  and  N_10 
REMARK       I    between atoms: N_10  and  C_11 
REMARK       I    between atoms: C_11  and  N_12 
REMARK    4  A    between atoms: N_12  and  C_13 
REMARK    5  A    between atoms: C_16  and  C_17 
REMARK    6  A    between atoms: C_29  and  C_30 
ROOT
HETATM    1  C   UNL     1      39.531 -13.861  -0.431  1.00  0.00     0.068 C 
HETATM    2  C   UNL     1      40.542 -13.602  -1.590  1.00  0.00     0.001 C 
HETATM    3  C   UNL     1      41.280 -12.252  -1.434  1.00  0.00     0.040 C 
HETATM    4  C   UNL     1      40.281 -11.097  -1.256  1.00  0.00     0.206 C 
HETATM    5  N   UNL     1      38.885 -11.689  -1.452  1.00  0.00    -0.065 N 
HETATM    6  H   UNL     1      38.212 -10.899  -1.347  1.00  0.00     0.280 HD
HETATM    7  C   UNL     1      38.511 -12.709  -0.395  1.00  0.00     0.246 C 
HETATM    8  C   UNL     1      39.716 -13.494  -2.898  1.00  0.00     0.033 C 
HETATM    9  C   UNL     1      38.757 -12.295  -2.828  1.00  0.00     0.236 C 
ENDROOT
BRANCH   4  10
HETATM   10  C   UNL     1      40.447 -10.333   0.087  1.00  0.00     0.157 C 
BRANCH  10  11
HETATM   11  N   UNL     1      41.498 -10.828   0.977  1.00  0.00    -0.341 N 
HETATM   12  C   UNL     1      41.683 -10.384   2.267  1.00  0.00     0.320 C 
HETATM   13  N   UNL     1      42.649 -11.110   2.915  1.00  0.00    -0.309 N 
HETATM   14  O   UNL     1      41.067  -9.419   2.707  1.00  0.00    -0.247 OA
HETATM   15  H   UNL     1      43.204 -11.732   2.343  1.00  0.00     0.170 HD
HETATM   16  H   UNL     1      41.743 -11.801   0.839  1.00  0.00     0.164 HD
BRANCH  13  17
HETATM   17  C   UNL     1      43.062 -10.989   4.258  1.00  0.00     0.036 A 
HETATM   18  C   UNL     1      42.275 -10.436   5.272  1.00  0.00     0.030 A 
HETATM   19  C   UNL     1      42.758 -10.351   6.586  1.00  0.00     0.017 A 
HETATM   20  C   UNL     1      44.035 -10.823   6.901  1.00  0.00     0.009 A 
HETATM   21  C   UNL     1      44.821 -11.384   5.888  1.00  0.00     0.017 A 
HETATM   22  C   UNL     1      44.336 -11.470   4.579  1.00  0.00     0.030 A 
BRANCH  20  23
HETATM   23  C   UNL     1      44.601 -10.748   8.281  1.00  0.00     0.155 C 
HETATM   24  C   UNL     1      45.831  -9.914   8.525  1.00  0.00     0.096 C 
HETATM   25  O   UNL     1      44.059 -11.370   9.193  1.00  0.00    -0.293 OA
ENDBRANCH  20  23
ENDBRANCH  13  17
ENDBRANCH  10  11
ENDBRANCH   4  10
BRANCH   1  26
HETATM   26  C   UNL     1      40.110 -14.076   0.954  1.00  0.00     0.045 A 
HETATM   27  N   UNL     1      39.614 -13.349   1.970  1.00  0.00    -0.238 NA
HETATM   28  C   UNL     1      40.078 -13.611   3.208  1.00  0.00     0.123 A 
HETATM   29  C   UNL     1      39.595 -12.758   4.338  1.00  0.00     0.093 C 
HETATM   30  N   UNL     1      40.926 -14.605   3.501  1.00  0.00    -0.233 NA
HETATM   31  C   UNL     1      41.380 -15.357   2.478  1.00  0.00     0.072 A 
HETATM   32  C   UNL     1      41.030 -15.087   1.167  1.00  0.00     0.060 A 
BRANCH  31  33
HETATM   33  C   UNL     1      42.254 -16.477   2.855  1.00  0.00     0.010 A 
HETATM   34  C   UNL     1      43.046 -16.497   4.022  1.00  0.00     0.023 A 
HETATM   35 BR   UNL     1      43.131 -15.027   5.236  1.00  0.00    -0.050 Br
HETATM   36  C   UNL     1      43.858 -17.599   4.324  1.00  0.00     0.020 A 
HETATM   37  C   UNL     1      43.908 -18.691   3.461  1.00  0.00     0.001 A 
HETATM   38  C   UNL     1      43.153 -18.685   2.294  1.00  0.00     0.001 A 
HETATM   39  C   UNL     1      42.339 -17.590   1.995  1.00  0.00     0.015 A 
ENDBRANCH  31  33
ENDBRANCH   1  26
TORSDOF 6
ENDMDL
MODEL 2
REMARK VINA RESULT:      -9.5      4.073      6.528
REMARK  6 active torsions:
REMARK  status: ('A' for Active; 'I' for Inactive)
REMARK    1  A    between atoms: C_4  and  C_5 
REMARK    2  A    between atoms: C_8  and  C_9 
REMARK    3  A    between atoms: C_9  and  N_10 
REMARK       I    between atoms: N_10  and  C_11 
REMARK       I    between atoms: C_11  and  N_12 
REMARK    4  A    between atoms: N_12  and  C_13 
REMARK    5  A    between atoms: C_16  and  C_17 
REMARK    6  A    between atoms: C_29  and  C_30 
ROOT
HETATM    1  C   UNL     1      42.248 -12.989   4.730  1.00  0.00     0.068 C 
HETATM    2  C   UNL     1      43.239 -12.143   3.871  1.00  0.00     0.001 C 
HETATM    3  C   UNL     1      44.433 -11.618   4.701  1.00  0.00     0.040 C 
HETATM    4  C   UNL     1      43.946 -10.865   5.950  1.00  0.00     0.206 C 
HETATM    5  N   UNL     1      42.424 -10.773   5.842  1.00  0.00    -0.065 N 
HETATM    6  H   UNL     1      42.100 -10.247   6.683  1.00  0.00     0.280 HD
HETATM    7  C   UNL     1      41.735 -12.122   5.894  1.00  0.00     0.246 C 
HETATM    8  C   UNL     1      42.466 -10.889   3.388  1.00  0.00     0.033 C 
HETATM    9  C   UNL     1      42.028 -10.035   4.587  1.00  0.00     0.236 C 
ENDROOT
BRANCH   4  10
HETATM   10  C   UNL     1      44.436 -11.493   7.284  1.00  0.00     0.157 C 
BRANCH  10  11
HETATM   11  N   UNL     1      43.541 -11.335   8.431  1.00  0.00    -0.341 N 
HETATM   12  C   UNL     1      43.825 -10.546   9.524  1.00  0.00     0.320 C 
HETATM   13  N   UNL     1      42.759 -10.474  10.382  1.00  0.00    -0.309 N 
HETATM   14  O   UNL     1      44.932 -10.042   9.678  1.00  0.00    -0.247 OA
HETATM   15  H   UNL     1      41.998 -11.117  10.210  1.00  0.00     0.170 HD
HETATM   16  H   UNL     1      42.555 -11.382   8.205  1.00  0.00     0.164 HD
BRANCH  13  17
HETATM   17  C   UNL     1      42.656  -9.714  11.566  1.00  0.00     0.036 A 
HETATM   18  C   UNL     1      43.520  -8.668  11.902  1.00  0.00     0.030 A 
HETATM   19  C   UNL     1      43.351  -7.958  13.099  1.00  0.00     0.017 A 
HETATM   20  C   UNL     1      42.312  -8.285  13.975  1.00  0.00     0.009 A 
HETATM   21  C   UNL     1      41.442  -9.328  13.636  1.00  0.00     0.017 A 
HETATM   22  C   UNL     1      41.610 -10.032  12.439  1.00  0.00     0.030 A 
BRANCH  20  23
HETATM   23  C   UNL     1      42.093  -7.568  15.265  1.00  0.00     0.155 C 
HETATM   24  C   UNL     1      40.988  -8.026  16.181  1.00  0.00     0.096 C 
HETATM   25  O   UNL     1      42.812  -6.615  15.560  1.00  0.00    -0.293 OA
ENDBRANCH  20  23
ENDBRANCH  13  17
ENDBRANCH  10  11
ENDBRANCH   4  10
BRANCH   1  26
HETATM   26  C   UNL     1      42.756 -14.314   5.262  1.00  0.00     0.045 A 
HETATM   27  N   UNL     1      42.820 -14.482   6.594  1.00  0.00    -0.238 NA
HETATM   28  C   UNL     1      43.191 -15.693   7.053  1.00  0.00     0.123 A 
HETATM   29  C   UNL     1      43.344 -15.872   8.531  1.00  0.00     0.093 C 
HETATM   30  N   UNL     1      43.409 -16.760   6.275  1.00  0.00    -0.233 NA
HETATM   31  C   UNL     1      43.296 -16.590   4.942  1.00  0.00     0.072 A 
HETATM   32  C   UNL     1      43.018 -15.354   4.388  1.00  0.00     0.060 A 
BRANCH  31  33
HETATM   33  C   UNL     1      43.477 -17.804   4.132  1.00  0.00     0.010 A 
HETATM   34  C   UNL     1      43.244 -17.865   2.743  1.00  0.00     0.023 A 
HETATM   35 BR   UNL     1      42.594 -16.377   1.740  1.00  0.00    -0.050 Br
HETATM   36  C   UNL     1      43.437 -19.056   2.029  1.00  0.00     0.020 A 
HETATM   37  C   UNL     1      43.850 -20.211   2.691  1.00  0.00     0.001 A 
HETATM   38  C   UNL     1      44.065 -20.182   4.064  1.00  0.00     0.001 A 
HETATM   39  C   UNL     1      43.878 -18.994   4.774  1.00  0.00     0.015 A 
ENDBRANCH  31  33
ENDBRANCH   1  26
TORSDOF 6
ENDMDL
MODEL 3
REMARK VINA RESULT:      -9.2      1.865      2.605
REMARK  6 active torsions:
REMARK  status: ('A' for Active; 'I' for Inactive)
REMARK    1  A    between atoms: C_4  and  C_5 
REMARK    2  A    between atoms: C_8  and  C_9 
REMARK    3  A    between atoms: C_9  and  N_10 
REMARK       I    between atoms: N_10  and  C_11 
REMARK       I    between atoms: C_11  and  N_12 
REMARK    4  A    between atoms: N_12  and  C_13 
REMARK    5  A    between atoms: C_16  and  C_17 
REMARK    6  A    between atoms: C_29  and  C_30 
ROOT
HETATM    1  C   UNL     1      39.482 -13.682   1.994  1.00  0.00     0.068 C 
HETATM    2  C   UNL     1      40.474 -14.209   0.912  1.00  0.00     0.001 C 
HETATM    3  C   UNL     1      41.590 -13.187   0.591  1.00  0.00     0.040 C 
HETATM    4  C   UNL     1      40.992 -11.818   0.225  1.00  0.00     0.206 C 
HETATM    5  N   UNL     1      39.476 -12.004   0.161  1.00  0.00    -0.065 N 
HETATM    6  H   UNL     1      39.077 -11.077  -0.104  1.00  0.00     0.280 HD
HETATM    7  C   UNL     1      38.858 -12.366   1.496  1.00  0.00     0.246 C 
HETATM    8  C   UNL     1      39.665 -14.389  -0.398  1.00  0.00     0.033 C 
HETATM    9  C   UNL     1      39.114 -13.037  -0.878  1.00  0.00     0.236 C 
ENDROOT
BRANCH   4  10
HETATM   10  C   UNL     1      41.437 -10.672   1.175  1.00  0.00     0.157 C 
BRANCH  10  11
HETATM   11  N   UNL     1      42.356 -11.053   2.249  1.00  0.00    -0.341 N 
HETATM   12  C   UNL     1      42.307 -10.531   3.522  1.00  0.00     0.320 C 
HETATM   13  N   UNL     1      43.193 -11.160   4.358  1.00  0.00    -0.309 N 
HETATM   14  O   UNL     1      41.577  -9.585   3.798  1.00  0.00    -0.247 OA
HETATM   15  H   UNL     1      43.866 -11.776   3.920  1.00  0.00     0.170 HD
HETATM   16  H   UNL     1      42.671 -12.015   2.212  1.00  0.00     0.164 HD
BRANCH  13  17
HETATM   17  C   UNL     1      43.378 -10.943   5.739  1.00  0.00     0.036 A 
HETATM   18  C   UNL     1      42.589 -10.084   6.508  1.00  0.00     0.030 A 
HETATM   19  C   UNL     1      42.836  -9.922   7.879  1.00  0.00     0.017 A 
HETATM   20  C   UNL     1      43.875 -10.622   8.498  1.00  0.00     0.009 A 
HETATM   21  C   UNL     1      44.661 -11.488   7.730  1.00  0.00     0.017 A 
HETATM   22  C   UNL     1      44.411 -11.651   6.363  1.00  0.00     0.030 A 
BRANCH  20  23
HETATM   23  C   UNL     1      44.186 -10.479   9.951  1.00  0.00     0.155 C 
HETATM   24  C   UNL     1      43.107 -10.006  10.889  1.00  0.00     0.096 C 
HETATM   25  O   UNL     1      45.315 -10.745  10.359  1.00  0.00    -0.293 OA
ENDBRANCH  20  23
ENDBRANCH  13  17
ENDBRANCH  10  11
ENDBRANCH   4  10
BRANCH   1  26
HETATM   26  C   UNL     1      40.028 -13.493   3.395  1.00  0.00     0.045 A 
HETATM   27  N   UNL     1      39.418 -12.606   4.201  1.00  0.00    -0.238 NA
HETATM   28  C   UNL     1      39.860 -12.511   5.470  1.00  0.00     0.123 A 
HETATM   29  C   UNL     1      39.245 -11.473   6.356  1.00  0.00     0.093 C 
HETATM   30  N   UNL     1      40.798 -13.302   6.004  1.00  0.00    -0.233 NA
HETATM   31  C   UNL     1      41.369 -14.220   5.198  1.00  0.00     0.072 A 
HETATM   32  C   UNL     1      41.043 -14.312   3.857  1.00  0.00     0.060 A 
BRANCH  31  33
HETATM   33  C   UNL     1      42.344 -15.110   5.844  1.00  0.00     0.010 A 
HETATM   34  C   UNL     1      43.195 -15.988   5.141  1.00  0.00     0.023 A 
HETATM   35 BR   UNL     1      43.138 -16.179   3.243  1.00  0.00    -0.050 Br
HETATM   36  C   UNL     1      44.103 -16.812   5.819  1.00  0.00     0.020 A 
HETATM   37  C   UNL     1      44.169 -16.786   7.211  1.00  0.00     0.001 A 
HETATM   38  C   UNL     1      43.326 -15.945   7.928  1.00  0.00     0.001 A 
HETATM   39  C   UNL     1      42.424 -15.120   7.252  1.00  0.00     0.015 A 
ENDBRANCH  31  33
ENDBRANCH   1  26
TORSDOF 6
ENDMDL
MODEL 4
REMARK VINA RESULT:      -9.2      3.079      6.036
REMARK  6 active torsions:
REMARK  status: ('A' for Active; 'I' for Inactive)
REMARK    1  A    between atoms: C_4  and  C_5 
REMARK    2  A    between atoms: C_8  and  C_9 
REMARK    3  A    between atoms: C_9  and  N_10 
REMARK       I    between atoms: N_10  and  C_11 
REMARK       I    between atoms: C_11  and  N_12 
REMARK    4  A    between atoms: N_12  and  C_13 
REMARK    5  A    between atoms: C_16  and  C_17 
REMARK    6  A    between atoms: C_29  and  C_30 
ROOT
HETATM    1  C   UNL     1      41.353  -9.745   2.706  1.00  0.00     0.068 C 
HETATM    2  C   UNL     1      40.119  -9.221   1.909  1.00  0.00     0.001 C 
HETATM    3  C   UNL     1      39.116 -10.349   1.573  1.00  0.00     0.040 C 
HETATM    4  C   UNL     1      39.819 -11.519   0.867  1.00  0.00     0.206 C 
HETATM    5  N   UNL     1      41.259 -11.074   0.608  1.00  0.00    -0.065 N 
HETATM    6  H   UNL     1      41.728 -11.864   0.113  1.00  0.00     0.280 HD
HETATM    7  C   UNL     1      42.053 -10.838   1.877  1.00  0.00     0.246 C 
HETATM    8  C   UNL     1      40.647  -8.695   0.549  1.00  0.00     0.033 C 
HETATM    9  C   UNL     1      41.283  -9.838  -0.257  1.00  0.00     0.236 C 
ENDROOT
BRANCH   4  10
HETATM   10  C   UNL     1      39.715 -12.864   1.637  1.00  0.00     0.157 C 
BRANCH  10  11
HETATM   11  N   UNL     1      40.970 -13.592   1.824  1.00  0.00    -0.341 N 
HETATM   12  C   UNL     1      41.057 -14.834   2.413  1.00  0.00     0.320 C 
HETATM   13  N   UNL     1      42.329 -15.338   2.337  1.00  0.00    -0.309 N 
HETATM   14  O   UNL     1      40.092 -15.348   2.967  1.00  0.00    -0.247 OA
HETATM   15  H   UNL     1      43.051 -14.697   2.034  1.00  0.00     0.170 HD
HETATM   16  H   UNL     1      41.662 -13.432   1.101  1.00  0.00     0.164 HD
BRANCH  13  17
HETATM   17  C   UNL     1      42.783 -16.602   2.769  1.00  0.00     0.036 A 
HETATM   18  C   UNL     1      43.455 -16.822   3.974  1.00  0.00     0.030 A 
HETATM   19  C   UNL     1      43.874 -18.110   4.334  1.00  0.00     0.017 A 
HETATM   20  C   UNL     1      43.622 -19.197   3.493  1.00  0.00     0.009 A 
HETATM   21  C   UNL     1      42.941 -18.979   2.289  1.00  0.00     0.017 A 
HETATM   22  C   UNL     1      42.521 -17.693   1.934  1.00  0.00     0.030 A 
BRANCH  20  23
HETATM   23  C   UNL     1      44.053 -20.587   3.824  1.00  0.00     0.155 C 
HETATM   24  C   UNL     1      44.400 -20.927   5.249  1.00  0.00     0.096 C 
HETATM   25  O   UNL     1      44.125 -21.430   2.931  1.00  0.00    -0.293 OA
ENDBRANCH  20  23
ENDBRANCH  13  17
ENDBRANCH  10  11
ENDBRANCH   4  10
BRANCH   1  26
HETATM   26  C   UNL     1      41.101 -10.252   4.113  1.00  0.00     0.045 A 
HETATM   27  N   UNL     1      40.339  -9.505   4.930  1.00  0.00    -0.238 NA
HETATM   28  C   UNL     1      40.053 -10.007   6.147  1.00  0.00     0.123 A 
HETATM   29  C   UNL     1      39.273  -9.154   7.098  1.00  0.00     0.093 C 
HETATM   30  N   UNL     1      40.397 -11.234   6.557  1.00  0.00    -0.233 NA
HETATM   31  C   UNL     1      41.121 -11.992   5.708  1.00  0.00     0.072 A 
HETATM   32  C   UNL     1      41.542 -11.510   4.482  1.00  0.00     0.060 A 
BRANCH  31  33
HETATM   33  C   UNL     1      41.417 -13.355   6.174  1.00  0.00     0.010 A 
HETATM   34  C   UNL     1      42.678 -13.766   6.653  1.00  0.00     0.023 A 
HETATM   35 BR   UNL     1      44.193 -12.605   6.695  1.00  0.00    -0.050 Br
HETATM   36  C   UNL     1      42.894 -15.082   7.082  1.00  0.00     0.020 A 
HETATM   37  C   UNL     1      41.861 -16.016   7.027  1.00  0.00     0.001 A 
HETATM   38  C   UNL     1      40.615 -15.641   6.538  1.00  0.00     0.001 A 
HETATM   39  C   UNL     1      40.398 -14.328   6.115  1.00  0.00     0.015 A 
ENDBRANCH  31  33
ENDBRANCH   1  26
TORSDOF 6
ENDMDL
MODEL 5
REMARK VINA RESULT:      -9.2      3.258      6.484
REMARK  6 active torsions:
REMARK  status: ('A' for Active; 'I' for Inactive)
REMARK    1  A    between atoms: C_4  and  C_5 
REMARK    2  A    between atoms: C_8  and  C_9 
REMARK    3  A    between atoms: C_9  and  N_10 
REMARK       I    between atoms: N_10  and  C_11 
REMARK       I    between atoms: C_11  and  N_12 
REMARK    4  A    between atoms: N_12  and  C_13 
REMARK    5  A    between atoms: C_16  and  C_17 
REMARK    6  A    between atoms: C_29  and  C_30 
ROOT
HETATM    1  C   UNL     1      40.496  -8.908   4.095  1.00  0.00     0.068 C 
HETATM    2  C   UNL     1      40.951  -8.181   5.398  1.00  0.00     0.001 C 
HETATM    3  C   UNL     1      40.755  -9.056   6.658  1.00  0.00     0.040 C 
HETATM    4  C   UNL     1      39.311  -9.576   6.747  1.00  0.00     0.206 C 
HETATM    5  N   UNL     1      38.531  -8.902   5.617  1.00  0.00    -0.065 N 
HETATM    6  H   UNL     1      37.548  -9.245   5.692  1.00  0.00     0.280 HD
HETATM    7  C   UNL     1      39.013  -9.298   4.236  1.00  0.00     0.246 C 
HETATM    8  C   UNL     1      40.024  -6.951   5.580  1.00  0.00     0.033 C 
HETATM    9  C   UNL     1      38.568  -7.402   5.771  1.00  0.00     0.236 C 
ENDROOT
BRANCH   4  10
HETATM   10  C   UNL     1      39.205 -11.126   6.735  1.00  0.00     0.157 C 
BRANCH  10  11
HETATM   11  N   UNL     1      40.476 -11.852   6.755  1.00  0.00    -0.341 N 
HETATM   12  C   UNL     1      40.602 -13.186   6.435  1.00  0.00     0.320 C 
HETATM   13  N   UNL     1      41.917 -13.572   6.406  1.00  0.00    -0.309 N 
HETATM   14  O   UNL     1      39.620 -13.898   6.262  1.00  0.00    -0.247 OA
HETATM   15  H   UNL     1      42.589 -12.914   6.777  1.00  0.00     0.170 HD
HETATM   16  H   UNL     1      41.284 -11.293   6.509  1.00  0.00     0.164 HD
BRANCH  13  17
HETATM   17  C   UNL     1      42.435 -14.837   6.056  1.00  0.00     0.036 A 
HETATM   18  C   UNL     1      43.010 -15.131   4.816  1.00  0.00     0.030 A 
HETATM   19  C   UNL     1      43.504 -16.415   4.544  1.00  0.00     0.017 A 
HETATM   20  C   UNL     1      43.433 -17.420   5.512  1.00  0.00     0.009 A 
HETATM   21  C   UNL     1      42.864 -17.124   6.756  1.00  0.00     0.017 A 
HETATM   22  C   UNL     1      42.374 -15.842   7.027  1.00  0.00     0.030 A 
BRANCH  20  23
HETATM   23  C   UNL     1      43.935 -18.804   5.271  1.00  0.00     0.155 C 
HETATM   24  C   UNL     1      43.459 -19.923   6.160  1.00  0.00     0.096 C 
HETATM   25  O   UNL     1      44.732 -19.011   4.357  1.00  0.00    -0.293 OA
ENDBRANCH  20  23
ENDBRANCH  13  17
ENDBRANCH  10  11
ENDBRANCH   4  10
BRANCH   1  26
HETATM   26  C   UNL     1      41.304 -10.115   3.662  1.00  0.00     0.045 A 
HETATM   27  N   UNL     1      42.553 -10.249   4.140  1.00  0.00    -0.238 NA
HETATM   28  C   UNL     1      43.228 -11.369   3.814  1.00  0.00     0.123 A 
HETATM   29  C   UNL     1      44.648 -11.496   4.272  1.00  0.00     0.093 C 
HETATM   30  N   UNL     1      42.705 -12.392   3.128  1.00  0.00    -0.233 NA
HETATM   31  C   UNL     1      41.435 -12.266   2.695  1.00  0.00     0.072 A 
HETATM   32  C   UNL     1      40.709 -11.106   2.900  1.00  0.00     0.060 A 
BRANCH  31  33
HETATM   33  C   UNL     1      40.881 -13.441   2.006  1.00  0.00     0.010 A 
HETATM   34  C   UNL     1      40.661 -13.505   0.615  1.00  0.00     0.023 A 
HETATM   35 BR   UNL     1      40.997 -12.033  -0.552  1.00  0.00    -0.050 Br
HETATM   36  C   UNL     1      40.130 -14.658   0.021  1.00  0.00     0.020 A 
HETATM   37  C   UNL     1      39.794 -15.760   0.804  1.00  0.00     0.001 A 
HETATM   38  C   UNL     1      39.981 -15.713   2.181  1.00  0.00     0.001 A 
HETATM   39  C   UNL     1      40.516 -14.566   2.773  1.00  0.00     0.015 A 
ENDBRANCH  31  33
ENDBRANCH   1  26
TORSDOF 6
ENDMDL
MODEL 6
REMARK VINA RESULT:      -9.2      3.542      7.514
REMARK  6 active torsions:
REMARK  status: ('A' for Active; 'I' for Inactive)
REMARK    1  A    between atoms: C_4  and  C_5 
REMARK    2  A    between atoms: C_8  and  C_9 
REMARK    3  A    between atoms: C_9  and  N_10 
REMARK       I    between atoms: N_10  and  C_11 
REMARK       I    between atoms: C_11  and  N_12 
REMARK    4  A    between atoms: N_12  and  C_13 
REMARK    5  A    between atoms: C_16  and  C_17 
REMARK    6  A    between atoms: C_29  and  C_30 
ROOT
HETATM    1  C   UNL     1      39.565  -8.727   4.621  1.00  0.00     0.068 C 
HETATM    2  C   UNL     1      38.572  -9.805   4.086  1.00  0.00     0.001 C 
HETATM    3  C   UNL     1      39.263 -11.164   3.829  1.00  0.00     0.040 C 
HETATM    4  C   UNL     1      40.492 -10.992   2.920  1.00  0.00     0.206 C 
HETATM    5  N   UNL     1      40.501  -9.532   2.464  1.00  0.00    -0.065 N 
HETATM    6  H   UNL     1      41.326  -9.425   1.835  1.00  0.00     0.280 HD
HETATM    7  C   UNL     1      40.703  -8.550   3.600  1.00  0.00     0.246 C 
HETATM    8  C   UNL     1      38.066  -9.310   2.706  1.00  0.00     0.033 C 
HETATM    9  C   UNL     1      39.233  -9.206   1.713  1.00  0.00     0.236 C 
ENDROOT
BRANCH   4  10
HETATM   10  C   UNL     1      41.822 -11.443   3.582  1.00  0.00     0.157 C 
BRANCH  10  11
HETATM   11  N   UNL     1      42.455 -12.628   3.001  1.00  0.00    -0.341 N 
HETATM   12  C   UNL     1      42.582 -13.831   3.660  1.00  0.00     0.320 C 
HETATM   13  N   UNL     1      43.090 -14.803   2.837  1.00  0.00    -0.309 N 
HETATM   14  O   UNL     1      42.308 -13.941   4.850  1.00  0.00    -0.247 OA
HETATM   15  H   UNL     1      43.457 -14.493   1.947  1.00  0.00     0.170 HD
HETATM   16  H   UNL     1      42.338 -12.719   1.999  1.00  0.00     0.164 HD
BRANCH  13  17
HETATM   17  C   UNL     1      43.297 -16.165   3.138  1.00  0.00     0.036 A 
HETATM   18  C   UNL     1      43.759 -16.632   4.371  1.00  0.00     0.030 A 
HETATM   19  C   UNL     1      43.939 -18.005   4.594  1.00  0.00     0.017 A 
HETATM   20  C   UNL     1      43.654 -18.929   3.584  1.00  0.00     0.009 A 
HETATM   21  C   UNL     1      43.183 -18.462   2.352  1.00  0.00     0.017 A 
HETATM   22  C   UNL     1      43.002 -17.093   2.133  1.00  0.00     0.030 A 
BRANCH  20  23
HETATM   23  C   UNL     1      43.836 -20.399   3.765  1.00  0.00     0.155 C 
HETATM   24  C   UNL     1      43.918 -20.961   5.160  1.00  0.00     0.096 C 
HETATM   25  O   UNL     1      43.921 -21.127   2.778  1.00  0.00    -0.293 OA
ENDBRANCH  20  23
ENDBRANCH  13  17
ENDBRANCH  10  11
ENDBRANCH   4  10
BRANCH   1  26
HETATM   26  C   UNL     1      40.147  -8.953   6.003  1.00  0.00     0.045 A 
HETATM   27  N   UNL     1      39.306  -9.273   7.002  1.00  0.00    -0.238 NA
HETATM   28  C   UNL     1      39.847  -9.554   8.204  1.00  0.00     0.123 A 
HETATM   29  C   UNL     1      38.920  -9.834   9.346  1.00  0.00     0.093 C 
HETATM   30  N   UNL     1      41.162  -9.626   8.443  1.00  0.00    -0.233 NA
HETATM   31  C   UNL     1      41.994  -9.348   7.419  1.00  0.00     0.072 A 
HETATM   32  C   UNL     1      41.519  -8.952   6.182  1.00  0.00     0.060 A 
BRANCH  31  33
HETATM   33  C   UNL     1      43.427  -9.506   7.709  1.00  0.00     0.010 A 
HETATM   34  C   UNL     1      44.186  -8.578   8.452  1.00  0.00     0.023 A 
HETATM   35 BR   UNL     1      43.452  -6.949   9.124  1.00  0.00    -0.050 Br
HETATM   36  C   UNL     1      45.550  -8.789   8.693  1.00  0.00     0.020 A 
HETATM   37  C   UNL     1      46.186  -9.920   8.185  1.00  0.00     0.001 A 
HETATM   38  C   UNL     1      45.464 -10.839   7.432  1.00  0.00     0.001 A 
HETATM   39  C   UNL     1      44.103 -10.632   7.196  1.00  0.00     0.015 A 
ENDBRANCH  31  33
ENDBRANCH   1  26
TORSDOF 6
ENDMDL
MODEL 7
REMARK VINA RESULT:      -9.1      4.617      9.863
REMARK  6 active torsions:
REMARK  status: ('A' for Active; 'I' for Inactive)
REMARK    1  A    between atoms: C_4  and  C_5 
REMARK    2  A    between atoms: C_8  and  C_9 
REMARK    3  A    between atoms: C_9  and  N_10 
REMARK       I    between atoms: N_10  and  C_11 
REMARK       I    between atoms: C_11  and  N_12 
REMARK    4  A    between atoms: N_12  and  C_13 
REMARK    5  A    between atoms: C_16  and  C_17 
REMARK    6  A    between atoms: C_29  and  C_30 
ROOT
HETATM    1  C   UNL     1      41.175  -8.225   7.801  1.00  0.00     0.068 C 
HETATM    2  C   UNL     1      39.763  -8.871   7.661  1.00  0.00     0.001 C 
HETATM    3  C   UNL     1      39.837 -10.374   7.303  1.00  0.00     0.040 C 
HETATM    4  C   UNL     1      40.713 -10.599   6.059  1.00  0.00     0.206 C 
HETATM    5  N   UNL     1      41.080  -9.215   5.523  1.00  0.00    -0.065 N 
HETATM    6  H   UNL     1      41.661  -9.374   4.671  1.00  0.00     0.280 HD
HETATM    7  C   UNL     1      41.939  -8.410   6.477  1.00  0.00     0.246 C 
HETATM    8  C   UNL     1      39.062  -8.177   6.465  1.00  0.00     0.033 C 
HETATM    9  C   UNL     1      39.836  -8.441   5.164  1.00  0.00     0.236 C 
ENDROOT
BRANCH   4  10
HETATM   10  C   UNL     1      41.945 -11.508   6.324  1.00  0.00     0.157 C 
BRANCH  10  11
HETATM   11  N   UNL     1      42.377 -12.340   5.201  1.00  0.00    -0.341 N 
HETATM   12  C   UNL     1      42.581 -13.700   5.286  1.00  0.00     0.320 C 
HETATM   13  N   UNL     1      42.850 -14.246   4.058  1.00  0.00    -0.309 N 
HETATM   14  O   UNL     1      42.562 -14.283   6.365  1.00  0.00    -0.247 OA
HETATM   15  H   UNL     1      43.034 -13.596   3.306  1.00  0.00     0.170 HD
HETATM   16  H   UNL     1      42.044 -12.032   4.295  1.00  0.00     0.164 HD
BRANCH  13  17
HETATM   17  C   UNL     1      43.046 -15.608   3.745  1.00  0.00     0.036 A 
HETATM   18  C   UNL     1      42.642 -16.200   2.546  1.00  0.00     0.030 A 
HETATM   19  C   UNL     1      42.874 -17.563   2.308  1.00  0.00     0.017 A 
HETATM   20  C   UNL     1      43.518 -18.348   3.268  1.00  0.00     0.009 A 
HETATM   21  C   UNL     1      43.930 -17.753   4.466  1.00  0.00     0.017 A 
HETATM   22  C   UNL     1      43.700 -16.394   4.699  1.00  0.00     0.030 A 
BRANCH  20  23
HETATM   23  C   UNL     1      43.782 -19.804   3.069  1.00  0.00     0.155 C 
HETATM   24  C   UNL     1      43.621 -20.397   1.694  1.00  0.00     0.096 C 
HETATM   25  O   UNL     1      44.121 -20.496   4.027  1.00  0.00    -0.293 OA
ENDBRANCH  20  23
ENDBRANCH  13  17
ENDBRANCH  10  11
ENDBRANCH   4  10
BRANCH   1  26
HETATM   26  C   UNL     1      42.036  -8.694   8.958  1.00  0.00     0.045 A 
HETATM   27  N   UNL     1      43.236  -9.230   8.682  1.00  0.00    -0.238 NA
HETATM   28  C   UNL     1      44.025  -9.563   9.723  1.00  0.00     0.123 A 
HETATM   29  C   UNL     1      45.331 -10.234   9.433  1.00  0.00     0.093 C 
HETATM   30  N   UNL     1      43.730  -9.309  11.004  1.00  0.00    -0.233 NA
HETATM   31  C   UNL     1      42.542  -8.727  11.264  1.00  0.00     0.072 A 
HETATM   32  C   UNL     1      41.634  -8.448  10.260  1.00  0.00     0.060 A 
BRANCH  31  33
HETATM   33  C   UNL     1      42.292  -8.406  12.677  1.00  0.00     0.010 A 
HETATM   34  C   UNL     1      41.279  -9.008  13.453  1.00  0.00     0.023 A 
HETATM   35 BR   UNL     1      40.051 -10.281  12.737  1.00  0.00    -0.050 Br
HETATM   36  C   UNL     1      41.094  -8.656  14.797  1.00  0.00     0.020 A 
HETATM   37  C   UNL     1      41.904  -7.688  15.387  1.00  0.00     0.001 A 
HETATM   38  C   UNL     1      42.895  -7.065  14.637  1.00  0.00     0.001 A 
HETATM   39  C   UNL     1      43.083  -7.419  13.299  1.00  0.00     0.015 A 
ENDBRANCH  31  33
ENDBRANCH   1  26
TORSDOF 6
ENDMDL
MODEL 8
REMARK VINA RESULT:      -9.0      4.131      8.886
REMARK  6 active torsions:
REMARK  status: ('A' for Active; 'I' for Inactive)
REMARK    1  A    between atoms: C_4  and  C_5 
REMARK    2  A    between atoms: C_8  and  C_9 
REMARK    3  A    between atoms: C_9  and  N_10 
REMARK       I    between atoms: N_10  and  C_11 
REMARK       I    between atoms: C_11  and  N_12 
REMARK    4  A    between atoms: N_12  and  C_13 
REMARK    5  A    between atoms: C_16  and  C_17 
REMARK    6  A    between atoms: C_29  and  C_30 
ROOT
HETATM    1  C   UNL     1      40.350  -9.180   6.562  1.00  0.00     0.068 C 
HETATM    2  C   UNL     1      39.309 -10.306   6.274  1.00  0.00     0.001 C 
HETATM    3  C   UNL     1      39.940 -11.516   5.548  1.00  0.00     0.040 C 
HETATM    4  C   UNL     1      40.688 -11.068   4.281  1.00  0.00     0.206 C 
HETATM    5  N   UNL     1      40.406  -9.575   4.110  1.00  0.00    -0.065 N 
HETATM    6  H   UNL     1      40.902  -9.280   3.240  1.00  0.00     0.280 HD
HETATM    7  C   UNL     1      40.971  -8.725   5.229  1.00  0.00     0.246 C 
HETATM    8  C   UNL     1      38.260  -9.715   5.297  1.00  0.00     0.033 C 
HETATM    9  C   UNL     1      38.924  -9.331   3.966  1.00  0.00     0.236 C 
ENDROOT
BRANCH   4  10
HETATM   10  C   UNL     1      42.203 -11.416   4.299  1.00  0.00     0.157 C 
BRANCH  10  11
HETATM   11  N   UNL     1      42.603 -12.566   3.488  1.00  0.00    -0.341 N 
HETATM   12  C   UNL     1      42.822 -13.827   4.000  1.00  0.00     0.320 C 
HETATM   13  N   UNL     1      43.052 -14.740   3.004  1.00  0.00    -0.309 N 
HETATM   14  O   UNL     1      42.847 -14.031   5.208  1.00  0.00    -0.247 OA
HETATM   15  H   UNL     1      43.204 -14.366   2.076  1.00  0.00     0.170 HD
HETATM   16  H   UNL     1      42.235 -12.565   2.544  1.00  0.00     0.164 HD
BRANCH  13  17
HETATM   17  C   UNL     1      43.251 -16.130   3.139  1.00  0.00     0.036 A 
HETATM   18  C   UNL     1      43.094 -17.047   2.096  1.00  0.00     0.030 A 
HETATM   19  C   UNL     1      43.311 -18.416   2.309  1.00  0.00     0.017 A 
HETATM   20  C   UNL     1      43.690 -18.883   3.571  1.00  0.00     0.009 A 
HETATM   21  C   UNL     1      43.854 -17.965   4.613  1.00  0.00     0.017 A 
HETATM   22  C   UNL     1      43.641 -16.599   4.397  1.00  0.00     0.030 A 
BRANCH  20  23
HETATM   23  C   UNL     1      43.924 -20.330   3.854  1.00  0.00     0.155 C 
HETATM   24  C   UNL     1      44.339 -20.748   5.240  1.00  0.00     0.096 C 
HETATM   25  O   UNL     1      43.779 -21.156   2.955  1.00  0.00    -0.293 OA
ENDBRANCH  20  23
ENDBRANCH  13  17
ENDBRANCH  10  11
ENDBRANCH   4  10
BRANCH   1  26
HETATM   26  C   UNL     1      41.449  -9.497   7.558  1.00  0.00     0.045 A 
HETATM   27  N   UNL     1      42.598 -10.018   7.093  1.00  0.00    -0.238 NA
HETATM   28  C   UNL     1      43.596 -10.214   7.977  1.00  0.00     0.123 A 
HETATM   29  C   UNL     1      44.852 -10.867   7.490  1.00  0.00     0.093 C 
HETATM   30  N   UNL     1      43.551  -9.839   9.261  1.00  0.00    -0.233 NA
HETATM   31  C   UNL     1      42.409  -9.275   9.704  1.00  0.00     0.072 A 
HETATM   32  C   UNL     1      41.304  -9.132   8.885  1.00  0.00     0.060 A 
BRANCH  31  33
HETATM   33  C   UNL     1      42.431  -8.818  11.101  1.00  0.00     0.010 A 
HETATM   34  C   UNL     1      42.537  -7.465  11.485  1.00  0.00     0.023 A 
HETATM   35 BR   UNL     1      42.734  -6.048  10.222  1.00  0.00    -0.050 Br
HETATM   36  C   UNL     1      42.551  -7.097  12.837  1.00  0.00     0.020 A 
HETATM   37  C   UNL     1      42.476  -8.072  13.830  1.00  0.00     0.001 A 
HETATM   38  C   UNL     1      42.393  -9.413  13.477  1.00  0.00     0.001 A 
HETATM   39  C   UNL     1      42.373  -9.780  12.130  1.00  0.00     0.015 A 
ENDBRANCH  31  33
ENDBRANCH   1  26
TORSDOF 6
ENDMDL
MODEL 9
REMARK VINA RESULT:      -8.8     16.623     18.585
REMARK  6 active torsions:
REMARK  status: ('A' for Active; 'I' for Inactive)
REMARK    1  A    between atoms: C_4  and  C_5 
REMARK    2  A    between atoms: C_8  and  C_9 
REMARK    3  A    between atoms: C_9  and  N_10 
REMARK       I    between atoms: N_10  and  C_11 
REMARK       I    between atoms: C_11  and  N_12 
REMARK    4  A    between atoms: N_12  and  C_13 
REMARK    5  A    between atoms: C_16  and  C_17 
REMARK    6  A    between atoms: C_29  and  C_30 
ROOT
HETATM    1  C   UNL     1      44.415 -29.078  -1.464  1.00  0.00     0.068 C 
HETATM    2  C   UNL     1      44.453 -30.344  -2.374  1.00  0.00     0.001 C 
HETATM    3  C   UNL     1      45.884 -30.908  -2.536  1.00  0.00     0.040 C 
HETATM    4  C   UNL     1      46.856 -29.814  -3.008  1.00  0.00     0.206 C 
HETATM    5  N   UNL     1      46.012 -28.573  -3.300  1.00  0.00    -0.065 N 
HETATM    6  H   UNL     1      46.673 -27.839  -3.636  1.00  0.00     0.280 HD
HETATM    7  C   UNL     1      45.335 -28.003  -2.070  1.00  0.00     0.246 C 
HETATM    8  C   UNL     1      44.003 -29.900  -3.790  1.00  0.00     0.033 C 
HETATM    9  C   UNL     1      44.987 -28.871  -4.367  1.00  0.00     0.236 C 
ENDROOT
BRANCH   4  10
HETATM   10  C   UNL     1      48.024 -29.550  -2.018  1.00  0.00     0.157 C 
BRANCH  10  11
HETATM   11  N   UNL     1      48.030 -30.370  -0.806  1.00  0.00    -0.341 N 
HETATM   12  C   UNL     1      49.073 -30.402   0.094  1.00  0.00     0.320 C 
HETATM   13  N   UNL     1      48.759 -31.146   1.201  1.00  0.00    -0.309 N 
HETATM   14  O   UNL     1      50.144 -29.855  -0.148  1.00  0.00    -0.247 OA
HETATM   15  H   UNL     1      47.915 -31.700   1.146  1.00  0.00     0.170 HD
HETATM   16  H   UNL     1      47.120 -30.504  -0.383  1.00  0.00     0.164 HD
BRANCH  13  17
HETATM   17  C   UNL     1      49.546 -31.351   2.354  1.00  0.00     0.036 A 
HETATM   18  C   UNL     1      50.275 -32.515   2.607  1.00  0.00     0.030 A 
HETATM   19  C   UNL     1      51.035 -32.643   3.778  1.00  0.00     0.017 A 
HETATM   20  C   UNL     1      51.077 -31.602   4.710  1.00  0.00     0.009 A 
HETATM   21  C   UNL     1      50.354 -30.432   4.454  1.00  0.00     0.017 A 
HETATM   22  C   UNL     1      49.598 -30.306   3.283  1.00  0.00     0.030 A 
BRANCH  20  23
HETATM   23  C   UNL     1      51.863 -31.689   5.976  1.00  0.00     0.155 C 
HETATM   24  C   UNL     1      51.619 -32.843   6.913  1.00  0.00     0.096 C 
HETATM   25  O   UNL     1      52.691 -30.819   6.238  1.00  0.00    -0.293 OA
ENDBRANCH  20  23
ENDBRANCH  13  17
ENDBRANCH  10  11
ENDBRANCH   4  10
BRANCH   1  26
HETATM   26  C   UNL     1      44.750 -29.273   0.002  1.00  0.00     0.045 A 
HETATM   27  N   UNL     1      45.820 -28.629   0.500  1.00  0.00    -0.238 NA
HETATM   28  C   UNL     1      46.055 -28.744   1.822  1.00  0.00     0.123 A 
HETATM   29  C   UNL     1      47.287 -28.099   2.378  1.00  0.00     0.093 C 
HETATM   30  N   UNL     1      45.246 -29.376   2.681  1.00  0.00    -0.233 NA
HETATM   31  C   UNL     1      44.151 -29.977   2.174  1.00  0.00     0.072 A 
HETATM   32  C   UNL     1      43.893 -29.992   0.815  1.00  0.00     0.060 A 
BRANCH  31  33
HETATM   33  C   UNL     1      43.257 -30.599   3.162  1.00  0.00     0.010 A 
HETATM   34  C   UNL     1      43.556 -31.794   3.850  1.00  0.00     0.023 A 
HETATM   35 BR   UNL     1      45.146 -32.799   3.529  1.00  0.00    -0.050 Br
HETATM   36  C   UNL     1      42.658 -32.335   4.781  1.00  0.00     0.020 A 
HETATM   37  C   UNL     1      41.442 -31.703   5.032  1.00  0.00     0.001 A 
HETATM   38  C   UNL     1      41.116 -30.536   4.351  1.00  0.00     0.001 A 
HETATM   39  C   UNL     1      42.012 -29.994   3.426  1.00  0.00     0.015 A 
ENDBRANCH  31  33
ENDBRANCH   1  26
TORSDOF 6
ENDMDL
MODEL 10
REMARK VINA RESULT:      -8.7      2.965      4.188
REMARK  6 active torsions:
REMARK  status: ('A' for Active; 'I' for Inactive)
REMARK    1  A    between atoms: C_4  and  C_5 
REMARK    2  A    between atoms: C_8  and  C_9 
REMARK    3  A    between atoms: C_9  and  N_10 
REMARK       I    between atoms: N_10  and  C_11 
REMARK       I    between atoms: C_11  and  N_12 
REMARK    4  A    between atoms: N_12  and  C_13 
REMARK    5  A    between atoms: C_16  and  C_17 
REMARK    6  A    between atoms: C_29  and  C_30 
ROOT
HETATM    1  C   UNL     1      40.746 -12.938   2.086  1.00  0.00     0.068 C 
HETATM    2  C   UNL     1      41.848 -11.896   1.722  1.00  0.00     0.001 C 
HETATM    3  C   UNL     1      42.154 -10.932   2.892  1.00  0.00     0.040 C 
HETATM    4  C   UNL     1      40.867 -10.271   3.411  1.00  0.00     0.206 C 
HETATM    5  N   UNL     1      39.742 -10.696   2.466  1.00  0.00    -0.065 N 
HETATM    6  H   UNL     1      38.875 -10.231   2.812  1.00  0.00     0.280 HD
HETATM    7  C   UNL     1      39.466 -12.186   2.493  1.00  0.00     0.246 C 
HETATM    8  C   UNL     1      41.281 -11.017   0.577  1.00  0.00     0.033 C 
HETATM    9  C   UNL     1      40.040 -10.248   1.056  1.00  0.00     0.236 C 
ENDROOT
BRANCH   4  10
HETATM   10  C   UNL     1      40.570 -10.576   4.905  1.00  0.00     0.157 C 
BRANCH  10  11
HETATM   11  N   UNL     1      41.547 -10.066   5.867  1.00  0.00    -0.341 N 
HETATM   12  C   UNL     1      41.278  -9.869   7.204  1.00  0.00     0.320 C 
HETATM   13  N   UNL     1      42.406  -9.514   7.896  1.00  0.00    -0.309 N 
HETATM   14  O   UNL     1      40.139  -9.964   7.647  1.00  0.00    -0.247 OA
HETATM   15  H   UNL     1      43.219  -9.277   7.343  1.00  0.00     0.170 HD
HETATM   16  H   UNL     1      42.505 -10.334   5.677  1.00  0.00     0.164 HD
BRANCH  13  17
HETATM   17  C   UNL     1      42.532  -9.296   9.284  1.00  0.00     0.036 A 
HETATM   18  C   UNL     1      43.324 -10.077  10.130  1.00  0.00     0.030 A 
HETATM   19  C   UNL     1      43.398  -9.796  11.502  1.00  0.00     0.017 A 
HETATM   20  C   UNL     1      42.681  -8.725  12.044  1.00  0.00     0.009 A 
HETATM   21  C   UNL     1      41.894  -7.938  11.196  1.00  0.00     0.017 A 
HETATM   22  C   UNL     1      41.824  -8.218   9.827  1.00  0.00     0.030 A 
BRANCH  20  23
HETATM   23  C   UNL     1      42.717  -8.388  13.497  1.00  0.00     0.155 C 
HETATM   24  C   UNL     1      43.343  -7.090  13.933  1.00  0.00     0.096 C 
HETATM   25  O   UNL     1      42.242  -9.174  14.315  1.00  0.00    -0.293 OA
ENDBRANCH  20  23
ENDBRANCH  13  17
ENDBRANCH  10  11
ENDBRANCH   4  10
BRANCH   1  26
HETATM   26  C   UNL     1      41.094 -13.967   3.144  1.00  0.00     0.045 A 
HETATM   27  N   UNL     1      40.475 -13.889   4.334  1.00  0.00    -0.238 NA
HETATM   28  C   UNL     1      40.731 -14.860   5.234  1.00  0.00     0.123 A 
HETATM   29  C   UNL     1      40.112 -14.744   6.592  1.00  0.00     0.093 C 
HETATM   30  N   UNL     1      41.483 -15.939   4.986  1.00  0.00    -0.233 NA
HETATM   31  C   UNL     1      42.060 -16.028   3.771  1.00  0.00     0.072 A 
HETATM   32  C   UNL     1      41.929 -15.024   2.829  1.00  0.00     0.060 A 
BRANCH  31  33
HETATM   33  C   UNL     1      42.820 -17.262   3.521  1.00  0.00     0.010 A 
HETATM   34  C   UNL     1      43.871 -17.718   4.343  1.00  0.00     0.023 A 
HETATM   35 BR   UNL     1      44.488 -16.743   5.864  1.00  0.00    -0.050 Br
HETATM   36  C   UNL     1      44.556 -18.905   4.048  1.00  0.00     0.020 A 
HETATM   37  C   UNL     1      44.215 -19.649   2.921  1.00  0.00     0.001 A 
HETATM   38  C   UNL     1      43.197 -19.209   2.083  1.00  0.00     0.001 A 
HETATM   39  C   UNL     1      42.511 -18.029   2.379  1.00  0.00     0.015 A 
ENDBRANCH  31  33
ENDBRANCH   1  26
TORSDOF 6
ENDMDL
