MODEL 1
REMARK VINA RESULT:      -8.3      0.000      0.000
REMARK  3 active torsions:
REMARK  status: ('A' for Active; 'I' for Inactive)
REMARK    1  A    between atoms: C_5  and  N_6 
REMARK       I    between atoms: N_6  and  C_7 
REMARK    2  A    between atoms: C_7  and  C_8 
REMARK    3  A    between atoms: C_9  and  C_10 
ROOT
HETATM    1  C   UNL     1      41.262 -14.142   1.450  1.00  0.00     0.062 A 
HETATM    2  C   UNL     1      41.930 -12.906   2.051  1.00  0.00     0.199 A 
HETATM    3  N   UNL     1      41.613 -11.704   1.284  1.00  0.00    -0.092 N 
HETATM    4  C   UNL     1      40.846 -11.682   0.156  1.00  0.00     0.735 A 
HETATM    5  N   UNL     1      40.282 -12.826  -0.277  1.00  0.00    -0.191 N 
HETATM    6  N   UNL     1      42.193 -10.508   1.472  1.00  0.00     0.012 NA
HETATM    7  N   UNL     1      41.691  -9.741   0.510  1.00  0.00     0.033 NA
HETATM    8  N   UNL     1      40.854 -10.462  -0.321  1.00  0.00     0.030 NA
HETATM    9  C   UNL     1      40.476 -14.055   0.345  1.00  0.00     0.037 A 
HETATM   10  C   UNL     1      39.785 -15.230  -0.306  1.00  0.00     0.070 C 
HETATM   11  H   UNL     1      39.703 -12.807  -1.113  1.00  0.00     0.184 HD
ENDROOT
BRANCH   1  12
HETATM   12  C   UNL     1      41.390 -15.436   2.183  1.00  0.00     0.256 C 
HETATM   13  N   UNL     1      42.663 -15.964   2.171  1.00  0.00    -0.323 N 
HETATM   14  H   UNL     1      43.389 -15.473   1.669  1.00  0.00     0.169 HD
HETATM   15  O   UNL     1      40.406 -15.899   2.747  1.00  0.00    -0.267 OA
BRANCH  13  16
HETATM   16  C   UNL     1      43.095 -17.145   2.816  1.00  0.00     0.035 A 
HETATM   17  C   UNL     1      43.138 -18.399   2.206  1.00  0.00     0.030 A 
HETATM   18  C   UNL     1      43.582 -19.520   2.916  1.00  0.00     0.009 A 
HETATM   19  C   UNL     1      43.993 -19.407   4.248  1.00  0.00    -0.062 A 
HETATM   20  C   UNL     1      44.424 -20.622   5.013  1.00  0.00     0.048 C 
HETATM   21  C   UNL     1      43.935 -18.155   4.865  1.00  0.00     0.009 A 
HETATM   22  C   UNL     1      43.502 -17.033   4.152  1.00  0.00     0.030 A 
ENDBRANCH  13  16
ENDBRANCH   1  12
BRANCH   2  23
HETATM   23  C   UNL     1      41.635 -12.679   3.521  1.00  0.00    -0.011 A 
HETATM   24  C   UNL     1      40.337 -12.370   3.928  1.00  0.00     0.125 A 
HETATM   25  N   UNL     1      39.976 -12.130   5.207  1.00  0.00    -0.272 NA
HETATM   26  C   UNL     1      40.946 -12.221   6.140  1.00  0.00     0.116 A 
HETATM   27  C   UNL     1      42.259 -12.546   5.852  1.00  0.00     0.020 A 
HETATM   28  C   UNL     1      42.607 -12.783   4.523  1.00  0.00     0.012 A 
ENDBRANCH   2  23
TORSDOF 3
ENDMDL
MODEL 2
REMARK VINA RESULT:      -8.2      1.697      4.370
REMARK  3 active torsions:
REMARK  status: ('A' for Active; 'I' for Inactive)
REMARK    1  A    between atoms: C_5  and  N_6 
REMARK       I    between atoms: N_6  and  C_7 
REMARK    2  A    between atoms: C_7  and  C_8 
REMARK    3  A    between atoms: C_9  and  C_10 
ROOT
HETATM    1  C   UNL     1      41.604 -13.713   5.565  1.00  0.00     0.062 A 
HETATM    2  C   UNL     1      40.594 -12.793   4.881  1.00  0.00     0.199 A 
HETATM    3  N   UNL     1      40.753 -11.409   5.320  1.00  0.00    -0.092 N 
HETATM    4  C   UNL     1      41.663 -10.986   6.245  1.00  0.00     0.735 A 
HETATM    5  N   UNL     1      42.526 -11.877   6.770  1.00  0.00    -0.191 N 
HETATM    6  N   UNL     1      39.902 -10.414   5.022  1.00  0.00     0.012 NA
HETATM    7  N   UNL     1      40.366  -9.367   5.696  1.00  0.00     0.033 NA
HETATM    8  N   UNL     1      41.460  -9.711   6.466  1.00  0.00     0.030 NA
HETATM    9  C   UNL     1      42.513 -13.231   6.451  1.00  0.00     0.037 A 
HETATM   10  C   UNL     1      43.539 -14.078   7.167  1.00  0.00     0.070 C 
HETATM   11  H   UNL     1      43.210 -11.560   7.453  1.00  0.00     0.184 HD
ENDROOT
BRANCH   1  12
HETATM   12  C   UNL     1      41.651 -15.143   5.139  1.00  0.00     0.256 C 
HETATM   13  N   UNL     1      42.734 -15.456   4.346  1.00  0.00    -0.323 N 
HETATM   14  H   UNL     1      43.383 -14.723   4.097  1.00  0.00     0.169 HD
HETATM   15  O   UNL     1      40.782 -15.910   5.535  1.00  0.00    -0.267 OA
BRANCH  13  16
HETATM   16  C   UNL     1      43.067 -16.730   3.833  1.00  0.00     0.035 A 
HETATM   17  C   UNL     1      43.954 -17.614   4.448  1.00  0.00     0.030 A 
HETATM   18  C   UNL     1      44.229 -18.860   3.875  1.00  0.00     0.009 A 
HETATM   19  C   UNL     1      43.621 -19.245   2.676  1.00  0.00    -0.062 A 
HETATM   20  C   UNL     1      43.958 -20.563   2.045  1.00  0.00     0.048 C 
HETATM   21  C   UNL     1      42.746 -18.355   2.050  1.00  0.00     0.009 A 
HETATM   22  C   UNL     1      42.462 -17.114   2.630  1.00  0.00     0.030 A 
ENDBRANCH  13  16
ENDBRANCH   1  12
BRANCH   2  23
HETATM   23  C   UNL     1      40.598 -12.863   3.367  1.00  0.00    -0.011 A 
HETATM   24  C   UNL     1      41.656 -12.303   2.649  1.00  0.00     0.125 A 
HETATM   25  N   UNL     1      41.744 -12.295   1.302  1.00  0.00    -0.272 NA
HETATM   26  C   UNL     1      40.742 -12.891   0.624  1.00  0.00     0.116 A 
HETATM   27  C   UNL     1      39.659 -13.500   1.233  1.00  0.00     0.020 A 
HETATM   28  C   UNL     1      39.590 -13.489   2.625  1.00  0.00     0.012 A 
ENDBRANCH   2  23
TORSDOF 3
ENDMDL
MODEL 3
REMARK VINA RESULT:      -7.8      2.570      6.334
REMARK  3 active torsions:
REMARK  status: ('A' for Active; 'I' for Inactive)
REMARK    1  A    between atoms: C_5  and  N_6 
REMARK       I    between atoms: N_6  and  C_7 
REMARK    2  A    between atoms: C_7  and  C_8 
REMARK    3  A    between atoms: C_9  and  C_10 
ROOT
HETATM    1  C   UNL     1      41.612 -15.891   3.851  1.00  0.00     0.062 A 
HETATM    2  C   UNL     1      41.403 -15.491   5.311  1.00  0.00     0.199 A 
HETATM    3  N   UNL     1      42.549 -15.870   6.135  1.00  0.00    -0.092 N 
HETATM    4  C   UNL     1      43.654 -16.524   5.675  1.00  0.00     0.735 A 
HETATM    5  N   UNL     1      43.749 -16.809   4.362  1.00  0.00    -0.191 N 
HETATM    6  N   UNL     1      42.577 -15.801   7.476  1.00  0.00     0.012 NA
HETATM    7  N   UNL     1      43.750 -16.328   7.810  1.00  0.00     0.033 NA
HETATM    8  N   UNL     1      44.429 -16.787   6.698  1.00  0.00     0.030 NA
HETATM    9  C   UNL     1      42.750 -16.508   3.442  1.00  0.00     0.037 A 
HETATM   10  C   UNL     1      43.027 -16.934   2.019  1.00  0.00     0.070 C 
HETATM   11  H   UNL     1      44.578 -17.289   4.018  1.00  0.00     0.184 HD
ENDROOT
BRANCH   1  12
HETATM   12  C   UNL     1      40.583 -15.471   2.854  1.00  0.00     0.256 C 
HETATM   13  N   UNL     1      40.974 -14.420   2.054  1.00  0.00    -0.323 N 
HETATM   14  H   UNL     1      41.883 -14.006   2.203  1.00  0.00     0.169 HD
HETATM   15  O   UNL     1      39.524 -16.085   2.800  1.00  0.00    -0.267 OA
BRANCH  13  16
HETATM   16  C   UNL     1      40.235 -13.841   0.997  1.00  0.00     0.035 A 
HETATM   17  C   UNL     1      39.589 -12.607   1.078  1.00  0.00     0.030 A 
HETATM   18  C   UNL     1      38.879 -12.102  -0.017  1.00  0.00     0.009 A 
HETATM   19  C   UNL     1      38.803 -12.822  -1.213  1.00  0.00    -0.062 A 
HETATM   20  C   UNL     1      38.001 -12.295  -2.365  1.00  0.00     0.048 C 
HETATM   21  C   UNL     1      39.435 -14.065  -1.291  1.00  0.00     0.009 A 
HETATM   22  C   UNL     1      40.154 -14.564  -0.200  1.00  0.00     0.030 A 
ENDBRANCH  13  16
ENDBRANCH   1  12
BRANCH   2  23
HETATM   23  C   UNL     1      41.068 -14.028   5.525  1.00  0.00    -0.011 A 
HETATM   24  C   UNL     1      39.841 -13.672   6.084  1.00  0.00     0.125 A 
HETATM   25  N   UNL     1      39.439 -12.401   6.296  1.00  0.00    -0.272 NA
HETATM   26  C   UNL     1      40.306 -11.425   5.957  1.00  0.00     0.116 A 
HETATM   27  C   UNL     1      41.559 -11.664   5.421  1.00  0.00     0.020 A 
HETATM   28  C   UNL     1      41.947 -12.985   5.207  1.00  0.00     0.012 A 
ENDBRANCH   2  23
TORSDOF 3
ENDMDL
MODEL 4
REMARK VINA RESULT:      -7.8      2.438      4.788
REMARK  3 active torsions:
REMARK  status: ('A' for Active; 'I' for Inactive)
REMARK    1  A    between atoms: C_5  and  N_6 
REMARK       I    between atoms: N_6  and  C_7 
REMARK    2  A    between atoms: C_7  and  C_8 
REMARK    3  A    between atoms: C_9  and  C_10 
ROOT
HETATM    1  C   UNL     1      41.992 -12.422   5.500  1.00  0.00     0.062 A 
HETATM    2  C   UNL     1      40.529 -12.029   5.300  1.00  0.00     0.199 A 
HETATM    3  N   UNL     1      40.153 -10.917   6.170  1.00  0.00    -0.092 N 
HETATM    4  C   UNL     1      40.985 -10.321   7.072  1.00  0.00     0.735 A 
HETATM    5  N   UNL     1      42.266 -10.728   7.152  1.00  0.00    -0.191 N 
HETATM    6  N   UNL     1      38.896 -10.474   6.337  1.00  0.00     0.012 NA
HETATM    7  N   UNL     1      38.997  -9.537   7.274  1.00  0.00     0.033 NA
HETATM    8  N   UNL     1      40.292  -9.434   7.744  1.00  0.00     0.030 NA
HETATM    9  C   UNL     1      42.786 -11.767   6.387  1.00  0.00     0.037 A 
HETATM   10  C   UNL     1      44.238 -12.098   6.640  1.00  0.00     0.070 C 
HETATM   11  H   UNL     1      42.888 -10.276   7.818  1.00  0.00     0.184 HD
ENDROOT
BRANCH   1  12
HETATM   12  C   UNL     1      42.568 -13.466   4.602  1.00  0.00     0.256 C 
HETATM   13  N   UNL     1      42.235 -14.755   4.955  1.00  0.00    -0.323 N 
HETATM   14  H   UNL     1      41.667 -14.904   5.777  1.00  0.00     0.169 HD
HETATM   15  O   UNL     1      43.237 -13.115   3.638  1.00  0.00    -0.267 OA
BRANCH  13  16
HETATM   16  C   UNL     1      42.592 -15.939   4.271  1.00  0.00     0.035 A 
HETATM   17  C   UNL     1      42.013 -16.355   3.072  1.00  0.00     0.030 A 
HETATM   18  C   UNL     1      42.425 -17.542   2.456  1.00  0.00     0.009 A 
HETATM   19  C   UNL     1      43.425 -18.334   3.029  1.00  0.00    -0.062 A 
HETATM   20  C   UNL     1      43.827 -19.628   2.386  1.00  0.00     0.048 C 
HETATM   21  C   UNL     1      43.994 -17.928   4.238  1.00  0.00     0.009 A 
HETATM   22  C   UNL     1      43.589 -16.736   4.847  1.00  0.00     0.030 A 
ENDBRANCH  13  16
ENDBRANCH   1  12
BRANCH   2  23
HETATM   23  C   UNL     1      40.147 -11.719   3.865  1.00  0.00    -0.011 A 
HETATM   24  C   UNL     1      39.226 -12.530   3.202  1.00  0.00     0.125 A 
HETATM   25  N   UNL     1      38.837 -12.353   1.922  1.00  0.00    -0.272 NA
HETATM   26  C   UNL     1      39.370 -11.303   1.264  1.00  0.00     0.116 A 
HETATM   27  C   UNL     1      40.270 -10.420   1.832  1.00  0.00     0.020 A 
HETATM   28  C   UNL     1      40.661 -10.629   3.153  1.00  0.00     0.012 A 
ENDBRANCH   2  23
TORSDOF 3
ENDMDL
MODEL 5
REMARK VINA RESULT:      -7.5      1.916      2.256
REMARK  3 active torsions:
REMARK  status: ('A' for Active; 'I' for Inactive)
REMARK    1  A    between atoms: C_5  and  N_6 
REMARK       I    between atoms: N_6  and  C_7 
REMARK    2  A    between atoms: C_7  and  C_8 
REMARK    3  A    between atoms: C_9  and  C_10 
ROOT
HETATM    1  C   UNL     1      41.790 -13.502   2.600  1.00  0.00     0.062 A 
HETATM    2  C   UNL     1      42.342 -12.157   3.071  1.00  0.00     0.199 A 
HETATM    3  N   UNL     1      41.316 -11.117   3.032  1.00  0.00    -0.092 N 
HETATM    4  C   UNL     1      40.035 -11.306   2.602  1.00  0.00     0.735 A 
HETATM    5  N   UNL     1      39.642 -12.540   2.231  1.00  0.00    -0.191 N 
HETATM    6  N   UNL     1      41.551  -9.809   3.223  1.00  0.00     0.012 NA
HETATM    7  N   UNL     1      40.378  -9.226   3.002  1.00  0.00     0.033 NA
HETATM    8  N   UNL     1      39.425 -10.147   2.609  1.00  0.00     0.030 NA
HETATM    9  C   UNL     1      40.494 -13.640   2.218  1.00  0.00     0.037 A 
HETATM   10  C   UNL     1      39.878 -14.935   1.741  1.00  0.00     0.070 C 
HETATM   11  H   UNL     1      38.685 -12.682   1.919  1.00  0.00     0.184 HD
ENDROOT
BRANCH   1  12
HETATM   12  C   UNL     1      42.681 -14.696   2.690  1.00  0.00     0.256 C 
HETATM   13  N   UNL     1      42.257 -15.644   3.595  1.00  0.00    -0.323 N 
HETATM   14  H   UNL     1      41.420 -15.466   4.132  1.00  0.00     0.169 HD
HETATM   15  O   UNL     1      43.663 -14.761   1.961  1.00  0.00    -0.267 OA
BRANCH  13  16
HETATM   16  C   UNL     1      42.865 -16.892   3.862  1.00  0.00     0.035 A 
HETATM   17  C   UNL     1      43.186 -17.832   2.883  1.00  0.00     0.030 A 
HETATM   18  C   UNL     1      43.790 -19.045   3.231  1.00  0.00     0.009 A 
HETATM   19  C   UNL     1      44.086 -19.339   4.565  1.00  0.00    -0.062 A 
HETATM   20  C   UNL     1      44.691 -20.661   4.934  1.00  0.00     0.048 C 
HETATM   21  C   UNL     1      43.751 -18.406   5.550  1.00  0.00     0.009 A 
HETATM   22  C   UNL     1      43.157 -17.189   5.199  1.00  0.00     0.030 A 
ENDBRANCH  13  16
ENDBRANCH   1  12
BRANCH   2  23
HETATM   23  C   UNL     1      43.002 -12.186   4.435  1.00  0.00    -0.011 A 
HETATM   24  C   UNL     1      44.231 -11.554   4.625  1.00  0.00     0.125 A 
HETATM   25  N   UNL     1      44.910 -11.540   5.792  1.00  0.00    -0.272 NA
HETATM   26  C   UNL     1      44.333 -12.167   6.838  1.00  0.00     0.116 A 
HETATM   27  C   UNL     1      43.106 -12.802   6.770  1.00  0.00     0.020 A 
HETATM   28  C   UNL     1      42.429 -12.807   5.552  1.00  0.00     0.012 A 
ENDBRANCH   2  23
TORSDOF 3
ENDMDL
MODEL 6
REMARK VINA RESULT:      -7.3      2.851      5.982
REMARK  3 active torsions:
REMARK  status: ('A' for Active; 'I' for Inactive)
REMARK    1  A    between atoms: C_5  and  N_6 
REMARK       I    between atoms: N_6  and  C_7 
REMARK    2  A    between atoms: C_7  and  C_8 
REMARK    3  A    between atoms: C_9  and  C_10 
ROOT
HETATM    1  C   UNL     1      41.263 -12.810   3.624  1.00  0.00     0.062 A 
HETATM    2  C   UNL     1      40.748 -14.249   3.591  1.00  0.00     0.199 A 
HETATM    3  N   UNL     1      40.486 -14.688   2.223  1.00  0.00    -0.092 N 
HETATM    4  C   UNL     1      40.647 -13.911   1.113  1.00  0.00     0.735 A 
HETATM    5  N   UNL     1      41.131 -12.662   1.251  1.00  0.00    -0.191 N 
HETATM    6  N   UNL     1      39.869 -15.836   1.898  1.00  0.00     0.012 NA
HETATM    7  N   UNL     1      39.752 -15.787   0.575  1.00  0.00     0.033 NA
HETATM    8  N   UNL     1      40.228 -14.590   0.073  1.00  0.00     0.030 NA
HETATM    9  C   UNL     1      41.439 -12.095   2.483  1.00  0.00     0.037 A 
HETATM   10  C   UNL     1      41.942 -10.671   2.437  1.00  0.00     0.070 C 
HETATM   11  H   UNL     1      41.260 -12.087   0.422  1.00  0.00     0.184 HD
ENDROOT
BRANCH   1  12
HETATM   12  C   UNL     1      41.690 -12.247   4.940  1.00  0.00     0.256 C 
HETATM   13  N   UNL     1      43.031 -11.942   5.009  1.00  0.00    -0.323 N 
HETATM   14  H   UNL     1      43.617 -12.132   4.208  1.00  0.00     0.169 HD
HETATM   15  O   UNL     1      40.848 -12.074   5.812  1.00  0.00    -0.267 OA
BRANCH  13  16
HETATM   16  C   UNL     1      43.710 -11.356   6.102  1.00  0.00     0.035 A 
HETATM   17  C   UNL     1      44.967 -11.762   6.551  1.00  0.00     0.030 A 
HETATM   18  C   UNL     1      45.572 -11.127   7.642  1.00  0.00     0.009 A 
HETATM   19  C   UNL     1      44.932 -10.073   8.301  1.00  0.00    -0.062 A 
HETATM   20  C   UNL     1      45.567  -9.431   9.497  1.00  0.00     0.048 C 
HETATM   21  C   UNL     1      43.665  -9.677   7.863  1.00  0.00     0.009 A 
HETATM   22  C   UNL     1      43.066 -10.305   6.767  1.00  0.00     0.030 A 
ENDBRANCH  13  16
ENDBRANCH   1  12
BRANCH   2  23
HETATM   23  C   UNL     1      41.634 -15.254   4.301  1.00  0.00    -0.011 A 
HETATM   24  C   UNL     1      41.177 -15.885   5.458  1.00  0.00     0.125 A 
HETATM   25  N   UNL     1      41.894 -16.778   6.174  1.00  0.00    -0.272 NA
HETATM   26  C   UNL     1      43.124 -17.081   5.710  1.00  0.00     0.116 A 
HETATM   27  C   UNL     1      43.666 -16.536   4.560  1.00  0.00     0.020 A 
HETATM   28  C   UNL     1      42.907 -15.613   3.843  1.00  0.00     0.012 A 
ENDBRANCH   2  23
TORSDOF 3
ENDMDL
MODEL 7
REMARK VINA RESULT:      -7.3     15.324     17.545
REMARK  3 active torsions:
REMARK  status: ('A' for Active; 'I' for Inactive)
REMARK    1  A    between atoms: C_5  and  N_6 
REMARK       I    between atoms: N_6  and  C_7 
REMARK    2  A    between atoms: C_7  and  C_8 
REMARK    3  A    between atoms: C_9  and  C_10 
ROOT
HETATM    1  C   UNL     1      46.798 -29.594   0.668  1.00  0.00     0.062 A 
HETATM    2  C   UNL     1      45.572 -30.126  -0.073  1.00  0.00     0.199 A 
HETATM    3  N   UNL     1      44.346 -29.882   0.682  1.00  0.00    -0.092 N 
HETATM    4  C   UNL     1      44.295 -29.283   1.908  1.00  0.00     0.735 A 
HETATM    5  N   UNL     1      45.434 -28.827   2.464  1.00  0.00    -0.191 N 
HETATM    6  N   UNL     1      43.143 -30.386   0.364  1.00  0.00     0.012 NA
HETATM    7  N   UNL     1      42.348 -30.001   1.358  1.00  0.00     0.033 NA
HETATM    8  N   UNL     1      43.054 -29.318   2.329  1.00  0.00     0.030 NA
HETATM    9  C   UNL     1      46.683 -28.973   1.870  1.00  0.00     0.037 A 
HETATM   10  C   UNL     1      47.847 -28.423   2.661  1.00  0.00     0.070 C 
HETATM   11  H   UNL     1      45.394 -28.373   3.373  1.00  0.00     0.184 HD
ENDROOT
BRANCH   1  12
HETATM   12  C   UNL     1      48.119 -29.660  -0.024  1.00  0.00     0.256 C 
HETATM   13  N   UNL     1      48.711 -30.903   0.016  1.00  0.00    -0.323 N 
HETATM   14  H   UNL     1      48.242 -31.651   0.508  1.00  0.00     0.169 HD
HETATM   15  O   UNL     1      48.548 -28.657  -0.581  1.00  0.00    -0.267 OA
BRANCH  13  16
HETATM   16  C   UNL     1      49.932 -31.279  -0.588  1.00  0.00     0.035 A 
HETATM   17  C   UNL     1      50.212 -31.131  -1.946  1.00  0.00     0.030 A 
HETATM   18  C   UNL     1      51.450 -31.527  -2.466  1.00  0.00     0.009 A 
HETATM   19  C   UNL     1      52.431 -32.077  -1.634  1.00  0.00    -0.062 A 
HETATM   20  C   UNL     1      53.736 -32.541  -2.207  1.00  0.00     0.048 C 
HETATM   21  C   UNL     1      52.146 -32.242  -0.276  1.00  0.00     0.009 A 
HETATM   22  C   UNL     1      50.913 -31.835   0.243  1.00  0.00     0.030 A 
ENDBRANCH  13  16
ENDBRANCH   1  12
BRANCH   2  23
HETATM   23  C   UNL     1      45.419 -29.615  -1.493  1.00  0.00    -0.011 A 
HETATM   24  C   UNL     1      45.467 -30.511  -2.561  1.00  0.00     0.125 A 
HETATM   25  N   UNL     1      45.363 -30.156  -3.859  1.00  0.00    -0.272 NA
HETATM   26  C   UNL     1      45.179 -28.845  -4.118  1.00  0.00     0.116 A 
HETATM   27  C   UNL     1      45.090 -27.875  -3.136  1.00  0.00     0.020 A 
HETATM   28  C   UNL     1      45.207 -28.267  -1.805  1.00  0.00     0.012 A 
ENDBRANCH   2  23
TORSDOF 3
ENDMDL
MODEL 8
REMARK VINA RESULT:      -7.2     10.059     12.898
REMARK  3 active torsions:
REMARK  status: ('A' for Active; 'I' for Inactive)
REMARK    1  A    between atoms: C_5  and  N_6 
REMARK       I    between atoms: N_6  and  C_7 
REMARK    2  A    between atoms: C_7  and  C_8 
REMARK    3  A    between atoms: C_9  and  C_10 
ROOT
HETATM    1  C   UNL     1      40.265  -7.520  13.018  1.00  0.00     0.062 A 
HETATM    2  C   UNL     1      39.076  -6.664  12.583  1.00  0.00     0.199 A 
HETATM    3  N   UNL     1      38.479  -5.967  13.719  1.00  0.00    -0.092 N 
HETATM    4  C   UNL     1      38.902  -6.083  15.012  1.00  0.00     0.735 A 
HETATM    5  N   UNL     1      39.978  -6.846  15.284  1.00  0.00    -0.191 N 
HETATM    6  N   UNL     1      37.324  -5.284  13.671  1.00  0.00     0.012 NA
HETATM    7  N   UNL     1      37.109  -4.906  14.927  1.00  0.00     0.033 NA
HETATM    8  N   UNL     1      38.082  -5.401  15.773  1.00  0.00     0.030 NA
HETATM    9  C   UNL     1      40.666  -7.568  14.314  1.00  0.00     0.037 A 
HETATM   10  C   UNL     1      41.829  -8.390  14.819  1.00  0.00     0.070 C 
HETATM   11  H   UNL     1      40.298  -6.924  16.246  1.00  0.00     0.184 HD
ENDROOT
BRANCH   1  12
HETATM   12  C   UNL     1      41.061  -8.207  11.957  1.00  0.00     0.256 C 
HETATM   13  N   UNL     1      42.255  -7.587  11.663  1.00  0.00    -0.323 N 
HETATM   14  H   UNL     1      42.494  -6.733  12.147  1.00  0.00     0.169 HD
HETATM   15  O   UNL     1      40.629  -9.244  11.470  1.00  0.00    -0.267 OA
BRANCH  13  16
HETATM   16  C   UNL     1      43.234  -8.029  10.743  1.00  0.00     0.035 A 
HETATM   17  C   UNL     1      43.403  -7.496   9.465  1.00  0.00     0.030 A 
HETATM   18  C   UNL     1      44.399  -7.989   8.615  1.00  0.00     0.009 A 
HETATM   19  C   UNL     1      45.244  -9.024   9.028  1.00  0.00    -0.062 A 
HETATM   20  C   UNL     1      46.277  -9.577   8.094  1.00  0.00     0.048 C 
HETATM   21  C   UNL     1      45.065  -9.570  10.302  1.00  0.00     0.009 A 
HETATM   22  C   UNL     1      44.077  -9.068  11.155  1.00  0.00     0.030 A 
ENDBRANCH  13  16
ENDBRANCH   1  12
BRANCH   2  23
HETATM   23  C   UNL     1      39.377  -5.681  11.469  1.00  0.00    -0.011 A 
HETATM   24  C   UNL     1      40.202  -4.584  11.715  1.00  0.00     0.125 A 
HETATM   25  N   UNL     1      40.514  -3.643  10.799  1.00  0.00    -0.272 NA
HETATM   26  C   UNL     1      40.000  -3.804   9.563  1.00  0.00     0.116 A 
HETATM   27  C   UNL     1      39.193  -4.868   9.201  1.00  0.00     0.020 A 
HETATM   28  C   UNL     1      38.881  -5.822  10.167  1.00  0.00     0.012 A 
ENDBRANCH   2  23
TORSDOF 3
ENDMDL
MODEL 9
REMARK VINA RESULT:      -6.9     15.660     18.414
REMARK  3 active torsions:
REMARK  status: ('A' for Active; 'I' for Inactive)
REMARK    1  A    between atoms: C_5  and  N_6 
REMARK       I    between atoms: N_6  and  C_7 
REMARK    2  A    between atoms: C_7  and  C_8 
REMARK    3  A    between atoms: C_9  and  C_10 
ROOT
HETATM    1  C   UNL     1      44.679 -30.277  -3.076  1.00  0.00     0.062 A 
HETATM    2  C   UNL     1      44.358 -31.709  -3.502  1.00  0.00     0.199 A 
HETATM    3  N   UNL     1      44.214 -31.813  -4.952  1.00  0.00    -0.092 N 
HETATM    4  C   UNL     1      44.320 -30.766  -5.820  1.00  0.00     0.735 A 
HETATM    5  N   UNL     1      44.631 -29.546  -5.342  1.00  0.00    -0.191 N 
HETATM    6  N   UNL     1      43.766 -32.903  -5.595  1.00  0.00     0.012 NA
HETATM    7  N   UNL     1      43.700 -32.532  -6.870  1.00  0.00     0.033 NA
HETATM    8  N   UNL     1      44.038 -31.201  -7.023  1.00  0.00     0.030 NA
HETATM    9  C   UNL     1      44.810 -29.280  -3.988  1.00  0.00     0.037 A 
HETATM   10  C   UNL     1      45.125 -27.843  -3.643  1.00  0.00     0.070 C 
HETATM   11  H   UNL     1      44.719 -28.767  -5.991  1.00  0.00     0.184 HD
ENDROOT
BRANCH   1  12
HETATM   12  C   UNL     1      44.973 -30.023  -1.634  1.00  0.00     0.256 C 
HETATM   13  N   UNL     1      46.312 -29.859  -1.356  1.00  0.00    -0.323 N 
HETATM   14  H   UNL     1      46.980 -29.941  -2.109  1.00  0.00     0.169 HD
HETATM   15  O   UNL     1      44.041 -29.949  -0.843  1.00  0.00    -0.267 OA
BRANCH  13  16
HETATM   16  C   UNL     1      46.885 -29.562  -0.098  1.00  0.00     0.035 A 
HETATM   17  C   UNL     1      46.815 -28.312   0.518  1.00  0.00     0.030 A 
HETATM   18  C   UNL     1      47.409 -28.100   1.768  1.00  0.00     0.009 A 
HETATM   19  C   UNL     1      48.081 -29.136   2.424  1.00  0.00    -0.062 A 
HETATM   20  C   UNL     1      48.753 -28.887   3.741  1.00  0.00     0.048 C 
HETATM   21  C   UNL     1      48.166 -30.383   1.801  1.00  0.00     0.009 A 
HETATM   22  C   UNL     1      47.563 -30.597   0.557  1.00  0.00     0.030 A 
ENDBRANCH  13  16
ENDBRANCH   1  12
BRANCH   2  23
HETATM   23  C   UNL     1      45.335 -32.754  -2.999  1.00  0.00    -0.011 A 
HETATM   24  C   UNL     1      44.906 -33.727  -2.097  1.00  0.00     0.125 A 
HETATM   25  N   UNL     1      45.701 -34.686  -1.575  1.00  0.00    -0.272 NA
HETATM   26  C   UNL     1      46.987 -34.699  -1.982  1.00  0.00     0.116 A 
HETATM   27  C   UNL     1      47.511 -33.799  -2.893  1.00  0.00     0.020 A 
HETATM   28  C   UNL     1      46.672 -32.815  -3.412  1.00  0.00     0.012 A 
ENDBRANCH   2  23
TORSDOF 3
ENDMDL
MODEL 10
REMARK VINA RESULT:      -6.8      9.168     12.492
REMARK  3 active torsions:
REMARK  status: ('A' for Active; 'I' for Inactive)
REMARK    1  A    between atoms: C_5  and  N_6 
REMARK       I    between atoms: N_6  and  C_7 
REMARK    2  A    between atoms: C_7  and  C_8 
REMARK    3  A    between atoms: C_9  and  C_10 
ROOT
HETATM    1  C   UNL     1      43.311  -8.947  11.327  1.00  0.00     0.062 A 
HETATM    2  C   UNL     1      43.735  -7.923  10.275  1.00  0.00     0.199 A 
HETATM    3  N   UNL     1      44.646  -8.511   9.296  1.00  0.00    -0.092 N 
HETATM    4  C   UNL     1      45.092  -9.800   9.326  1.00  0.00     0.735 A 
HETATM    5  N   UNL     1      44.636 -10.630  10.284  1.00  0.00    -0.191 N 
HETATM    6  N   UNL     1      45.314  -7.813   8.363  1.00  0.00     0.012 NA
HETATM    7  N   UNL     1      46.089  -8.713   7.767  1.00  0.00     0.033 NA
HETATM    8  N   UNL     1      45.965  -9.954   8.361  1.00  0.00     0.030 NA
HETATM    9  C   UNL     1      43.758 -10.229  11.286  1.00  0.00     0.037 A 
HETATM   10  C   UNL     1      43.384 -11.296  12.288  1.00  0.00     0.070 C 
HETATM   11  H   UNL     1      44.962 -11.593  10.301  1.00  0.00     0.184 HD
ENDROOT
BRANCH   1  12
HETATM   12  C   UNL     1      42.288  -8.537  12.333  1.00  0.00     0.256 C 
HETATM   13  N   UNL     1      42.811  -7.892  13.433  1.00  0.00    -0.323 N 
HETATM   14  H   UNL     1      43.811  -7.765  13.494  1.00  0.00     0.169 HD
HETATM   15  O   UNL     1      41.106  -8.764  12.104  1.00  0.00    -0.267 OA
BRANCH  13  16
HETATM   16  C   UNL     1      42.087  -7.351  14.520  1.00  0.00     0.035 A 
HETATM   17  C   UNL     1      41.576  -8.107  15.574  1.00  0.00     0.030 A 
HETATM   18  C   UNL     1      40.871  -7.492  16.615  1.00  0.00     0.009 A 
HETATM   19  C   UNL     1      40.666  -6.109  16.620  1.00  0.00    -0.062 A 
HETATM   20  C   UNL     1      39.870  -5.465  17.715  1.00  0.00     0.048 C 
HETATM   21  C   UNL     1      41.163  -5.352  15.556  1.00  0.00     0.009 A 
HETATM   22  C   UNL     1      41.877  -5.966  14.522  1.00  0.00     0.030 A 
ENDBRANCH  13  16
ENDBRANCH   1  12
BRANCH   2  23
HETATM   23  C   UNL     1      42.587  -7.230   9.567  1.00  0.00    -0.011 A 
HETATM   24  C   UNL     1      41.754  -7.959   8.718  1.00  0.00     0.125 A 
HETATM   25  N   UNL     1      40.720  -7.433   8.028  1.00  0.00    -0.272 NA
HETATM   26  C   UNL     1      40.481  -6.116   8.200  1.00  0.00     0.116 A 
HETATM   27  C   UNL     1      41.226  -5.305   9.037  1.00  0.00     0.020 A 
HETATM   28  C   UNL     1      42.291  -5.871   9.734  1.00  0.00     0.012 A 
ENDBRANCH   2  23
TORSDOF 3
ENDMDL
