MODEL 1
REMARK VINA RESULT:      -7.2      0.000      0.000
REMARK  8 active torsions:
REMARK  status: ('A' for Active; 'I' for Inactive)
REMARK    1  A    between atoms: C_2  and  C_3 
REMARK    2  A    between atoms: C_3  and  N_4 
REMARK    3  A    between atoms: C_7  and  C_8 
REMARK       I    between atoms: C_8  and  N_9 
REMARK    4  A    between atoms: N_9  and  C_10 
REMARK    5  A    between atoms: C_13  and  O_14 
REMARK    6  A    between atoms: O_14  and  C_15 
REMARK    7  A    between atoms: C_15  and  C_16 
REMARK       I    between atoms: C_16  and  N_17 
REMARK    8  A    between atoms: C_23  and  C_24 
ROOT
HETATM    1  C   UNL     1      41.608 -13.212   3.408  1.00  0.00     0.259 C 
HETATM    2  N   UNL     1      41.995 -12.164   4.206  1.00  0.00    -0.323 N 
HETATM    3  O   UNL     1      40.658 -13.002   2.650  1.00  0.00    -0.267 OA
HETATM    4  H   UNL     1      41.345 -11.397   4.078  1.00  0.00     0.169 HD
ENDROOT
BRANCH   2   5
HETATM    5  C   UNL     1      43.081 -11.905   5.054  1.00  0.00     0.035 A 
HETATM    6  C   UNL     1      44.368 -11.564   4.641  1.00  0.00     0.032 A 
HETATM    7  C   UNL     1      45.361 -11.281   5.591  1.00  0.00     0.039 A 
HETATM    8  C   UNL     1      45.060 -11.301   6.952  1.00  0.00     0.069 A 
HETATM    9  C   UNL     1      43.787 -11.657   7.378  1.00  0.00     0.039 A 
HETATM   10  C   UNL     1      42.804 -11.948   6.431  1.00  0.00     0.032 A 
BRANCH   8  11
HETATM   11  O   UNL     1      46.058 -11.007   7.839  1.00  0.00    -0.342 OA
BRANCH  11  12
HETATM   12  C   UNL     1      46.344  -9.605   7.871  1.00  0.00     0.278 C 
BRANCH  12  13
HETATM   13  C   UNL     1      45.394  -8.807   8.766  1.00  0.00     0.241 C 
HETATM   14  N   UNL     1      45.038  -9.452   9.931  1.00  0.00    -0.364 N 
HETATM   15  C   UNL     1      44.116  -8.863  10.868  1.00  0.00     0.149 C 
HETATM   16  H   UNL     1      45.245 -10.444   9.990  1.00  0.00     0.161 HD
HETATM   17  O   UNL     1      45.025  -7.670   8.481  1.00  0.00    -0.271 OA
ENDBRANCH  12  13
ENDBRANCH  11  12
ENDBRANCH   8  11
ENDBRANCH   2   5
BRANCH   1  18
HETATM   18  C   UNL     1      42.169 -14.536   3.542  1.00  0.00     0.076 C 
HETATM   19  C   UNL     1      42.931 -15.219   2.567  1.00  0.00     0.158 C 
HETATM   20  N   UNL     1      43.488 -16.339   3.030  1.00  0.00    -0.183 NA
HETATM   21  N   UNL     1      43.177 -16.328   4.343  1.00  0.00    -0.268 N 
HETATM   22  C   UNL     1      42.268 -15.341   4.669  1.00  0.00     0.052 C 
BRANCH  21  23
HETATM   23  C   UNL     1      43.818 -17.279   5.255  1.00  0.00     0.106 C 
HETATM   24  C   UNL     1      44.805 -16.617   6.224  1.00  0.00     0.034 C 
BRANCH  23  25
HETATM   25  C   UNL     1      44.428 -18.489   4.523  1.00  0.00     0.022 C 
HETATM   26  C   UNL     1      44.096 -19.845   5.127  1.00  0.00     0.007 C 
ENDBRANCH  23  25
ENDBRANCH  21  23
BRANCH  22  27
HETATM   27  C   UNL     1      41.562 -15.241   6.024  1.00  0.00     0.038 A 
HETATM   28  C   UNL     1      40.206 -14.629   6.247  1.00  0.00     0.011 A 
HETATM   29  C   UNL     1      40.333 -16.112   6.202  1.00  0.00     0.011 A 
ENDBRANCH  22  27
ENDBRANCH   1  18
TORSDOF 8
ENDMDL
MODEL 2
REMARK VINA RESULT:      -7.1      1.262      1.571
REMARK  8 active torsions:
REMARK  status: ('A' for Active; 'I' for Inactive)
REMARK    1  A    between atoms: C_2  and  C_3 
REMARK    2  A    between atoms: C_3  and  N_4 
REMARK    3  A    between atoms: C_7  and  C_8 
REMARK       I    between atoms: C_8  and  N_9 
REMARK    4  A    between atoms: N_9  and  C_10 
REMARK    5  A    between atoms: C_13  and  O_14 
REMARK    6  A    between atoms: O_14  and  C_15 
REMARK    7  A    between atoms: C_15  and  C_16 
REMARK       I    between atoms: C_16  and  N_17 
REMARK    8  A    between atoms: C_23  and  C_24 
ROOT
HETATM    1  C   UNL     1      40.552 -14.700   3.074  1.00  0.00     0.259 C 
HETATM    2  N   UNL     1      40.888 -13.437   3.493  1.00  0.00    -0.323 N 
HETATM    3  O   UNL     1      39.440 -14.830   2.557  1.00  0.00    -0.267 OA
HETATM    4  H   UNL     1      40.088 -12.827   3.369  1.00  0.00     0.169 HD
ENDROOT
BRANCH   2   5
HETATM    5  C   UNL     1      42.058 -12.818   3.956  1.00  0.00     0.035 A 
HETATM    6  C   UNL     1      43.191 -12.552   3.190  1.00  0.00     0.032 A 
HETATM    7  C   UNL     1      44.284 -11.881   3.759  1.00  0.00     0.039 A 
HETATM    8  C   UNL     1      44.231 -11.444   5.081  1.00  0.00     0.069 A 
HETATM    9  C   UNL     1      43.116 -11.719   5.862  1.00  0.00     0.039 A 
HETATM   10  C   UNL     1      42.034 -12.395   5.296  1.00  0.00     0.032 A 
BRANCH   8  11
HETATM   11  O   UNL     1      45.317 -10.784   5.587  1.00  0.00    -0.342 OA
BRANCH  11  12
HETATM   12  C   UNL     1      45.723 -11.318   6.851  1.00  0.00     0.278 C 
BRANCH  12  13
HETATM   13  C   UNL     1      45.828 -10.263   7.955  1.00  0.00     0.241 C 
HETATM   14  N   UNL     1      45.078 -10.542   9.077  1.00  0.00    -0.364 N 
HETATM   15  C   UNL     1      45.026  -9.635  10.194  1.00  0.00     0.149 C 
HETATM   16  H   UNL     1      44.378 -11.272   8.994  1.00  0.00     0.161 HD
HETATM   17  O   UNL     1      46.559  -9.281   7.855  1.00  0.00    -0.271 OA
ENDBRANCH  12  13
ENDBRANCH  11  12
ENDBRANCH   8  11
ENDBRANCH   2   5
BRANCH   1  18
HETATM   18  C   UNL     1      41.377 -15.853   3.350  1.00  0.00     0.076 C 
HETATM   19  C   UNL     1      42.098 -16.609   2.398  1.00  0.00     0.158 C 
HETATM   20  N   UNL     1      42.929 -17.491   2.952  1.00  0.00    -0.183 NA
HETATM   21  N   UNL     1      42.831 -17.233   4.273  1.00  0.00    -0.268 N 
HETATM   22  C   UNL     1      41.808 -16.355   4.571  1.00  0.00     0.052 C 
BRANCH  21  23
HETATM   23  C   UNL     1      43.781 -17.839   5.209  1.00  0.00     0.106 C 
HETATM   24  C   UNL     1      44.760 -16.826   5.818  1.00  0.00     0.034 C 
BRANCH  23  25
HETATM   25  C   UNL     1      44.494 -19.072   4.623  1.00  0.00     0.022 C 
HETATM   26  C   UNL     1      44.065 -20.408   5.210  1.00  0.00     0.007 C 
ENDBRANCH  23  25
ENDBRANCH  21  23
BRANCH  22  27
HETATM   27  C   UNL     1      41.316 -16.066   5.992  1.00  0.00     0.038 A 
HETATM   28  C   UNL     1      40.223 -15.094   6.345  1.00  0.00     0.011 A 
HETATM   29  C   UNL     1      39.919 -16.551   6.328  1.00  0.00     0.011 A 
ENDBRANCH  22  27
ENDBRANCH   1  18
TORSDOF 8
ENDMDL
MODEL 3
REMARK VINA RESULT:      -7.1      3.743      7.430
REMARK  8 active torsions:
REMARK  status: ('A' for Active; 'I' for Inactive)
REMARK    1  A    between atoms: C_2  and  C_3 
REMARK    2  A    between atoms: C_3  and  N_4 
REMARK    3  A    between atoms: C_7  and  C_8 
REMARK       I    between atoms: C_8  and  N_9 
REMARK    4  A    between atoms: N_9  and  C_10 
REMARK    5  A    between atoms: C_13  and  O_14 
REMARK    6  A    between atoms: O_14  and  C_15 
REMARK    7  A    between atoms: C_15  and  C_16 
REMARK       I    between atoms: C_16  and  N_17 
REMARK    8  A    between atoms: C_23  and  C_24 
ROOT
HETATM    1  C   UNL     1      42.746 -13.100   3.918  1.00  0.00     0.259 C 
HETATM    2  N   UNL     1      42.162 -12.055   3.246  1.00  0.00    -0.323 N 
HETATM    3  O   UNL     1      43.347 -12.816   4.957  1.00  0.00    -0.267 OA
HETATM    4  H   UNL     1      42.414 -11.188   3.706  1.00  0.00     0.169 HD
ENDROOT
BRANCH   2   5
HETATM    5  C   UNL     1      41.274 -11.935   2.167  1.00  0.00     0.035 A 
HETATM    6  C   UNL     1      40.015 -12.527   2.084  1.00  0.00     0.032 A 
HETATM    7  C   UNL     1      39.198 -12.291   0.968  1.00  0.00     0.039 A 
HETATM    8  C   UNL     1      39.623 -11.436  -0.047  1.00  0.00     0.069 A 
HETATM    9  C   UNL     1      40.883 -10.855   0.013  1.00  0.00     0.039 A 
HETATM   10  C   UNL     1      41.697 -11.099   1.120  1.00  0.00     0.032 A 
BRANCH   8  11
HETATM   11  O   UNL     1      38.786 -11.229  -1.109  1.00  0.00    -0.342 OA
BRANCH  11  12
HETATM   12  C   UNL     1      39.485 -11.283  -2.356  1.00  0.00     0.278 C 
BRANCH  12  13
HETATM   13  C   UNL     1      39.523 -12.681  -2.976  1.00  0.00     0.241 C 
HETATM   14  N   UNL     1      38.292 -13.296  -3.062  1.00  0.00    -0.364 N 
HETATM   15  C   UNL     1      38.150 -14.632  -3.580  1.00  0.00     0.149 C 
HETATM   16  H   UNL     1      37.533 -12.884  -2.528  1.00  0.00     0.161 HD
HETATM   17  O   UNL     1      40.561 -13.182  -3.402  1.00  0.00    -0.271 OA
ENDBRANCH  12  13
ENDBRANCH  11  12
ENDBRANCH   8  11
ENDBRANCH   2   5
BRANCH   1  18
HETATM   18  C   UNL     1      42.793 -14.439   3.378  1.00  0.00     0.076 C 
HETATM   19  C   UNL     1      43.321 -14.812   2.121  1.00  0.00     0.158 C 
HETATM   20  N   UNL     1      43.416 -16.133   1.965  1.00  0.00    -0.183 NA
HETATM   21  N   UNL     1      43.052 -16.620   3.170  1.00  0.00    -0.268 N 
HETATM   22  C   UNL     1      42.534 -15.650   4.005  1.00  0.00     0.052 C 
BRANCH  21  23
HETATM   23  C   UNL     1      43.259 -18.037   3.479  1.00  0.00     0.106 C 
HETATM   24  C   UNL     1      44.511 -18.295   4.326  1.00  0.00     0.034 C 
BRANCH  23  25
HETATM   25  C   UNL     1      43.194 -18.936   2.230  1.00  0.00     0.022 C 
HETATM   26  C   UNL     1      43.618 -20.380   2.448  1.00  0.00     0.007 C 
ENDBRANCH  23  25
ENDBRANCH  21  23
BRANCH  22  27
HETATM   27  C   UNL     1      41.830 -15.950   5.331  1.00  0.00     0.038 A 
HETATM   28  C   UNL     1      40.721 -15.124   5.925  1.00  0.00     0.011 A 
HETATM   29  C   UNL     1      40.384 -16.399   5.233  1.00  0.00     0.011 A 
ENDBRANCH  22  27
ENDBRANCH   1  18
TORSDOF 8
ENDMDL
MODEL 4
REMARK VINA RESULT:      -6.8      3.395      7.333
REMARK  8 active torsions:
REMARK  status: ('A' for Active; 'I' for Inactive)
REMARK    1  A    between atoms: C_2  and  C_3 
REMARK    2  A    between atoms: C_3  and  N_4 
REMARK    3  A    between atoms: C_7  and  C_8 
REMARK       I    between atoms: C_8  and  N_9 
REMARK    4  A    between atoms: N_9  and  C_10 
REMARK    5  A    between atoms: C_13  and  O_14 
REMARK    6  A    between atoms: O_14  and  C_15 
REMARK    7  A    between atoms: C_15  and  C_16 
REMARK       I    between atoms: C_16  and  N_17 
REMARK    8  A    between atoms: C_23  and  C_24 
ROOT
HETATM    1  C   UNL     1      41.079 -11.852   5.553  1.00  0.00     0.259 C 
HETATM    2  N   UNL     1      41.672 -12.752   6.404  1.00  0.00    -0.323 N 
HETATM    3  O   UNL     1      40.931 -10.706   5.984  1.00  0.00    -0.267 OA
HETATM    4  H   UNL     1      41.811 -12.309   7.305  1.00  0.00     0.169 HD
ENDROOT
BRANCH   2   5
HETATM    5  C   UNL     1      42.174 -14.056   6.283  1.00  0.00     0.035 A 
HETATM    6  C   UNL     1      43.522 -14.409   6.291  1.00  0.00     0.032 A 
HETATM    7  C   UNL     1      43.896 -15.759   6.211  1.00  0.00     0.039 A 
HETATM    8  C   UNL     1      42.926 -16.758   6.160  1.00  0.00     0.069 A 
HETATM    9  C   UNL     1      41.579 -16.419   6.134  1.00  0.00     0.039 A 
HETATM   10  C   UNL     1      41.209 -15.075   6.203  1.00  0.00     0.032 A 
BRANCH   8  11
HETATM   11  O   UNL     1      43.341 -18.059   6.095  1.00  0.00    -0.342 OA
BRANCH  11  12
HETATM   12  C   UNL     1      44.321 -18.254   5.071  1.00  0.00     0.278 C 
BRANCH  12  13
HETATM   13  C   UNL     1      44.080 -19.505   4.224  1.00  0.00     0.241 C 
HETATM   14  N   UNL     1      43.770 -19.245   2.906  1.00  0.00    -0.364 N 
HETATM   15  C   UNL     1      43.470 -20.304   1.978  1.00  0.00     0.149 C 
HETATM   16  H   UNL     1      43.518 -18.289   2.672  1.00  0.00     0.161 HD
HETATM   17  O   UNL     1      44.202 -20.639   4.679  1.00  0.00    -0.271 OA
ENDBRANCH  12  13
ENDBRANCH  11  12
ENDBRANCH   8  11
ENDBRANCH   2   5
BRANCH   1  18
HETATM   18  C   UNL     1      40.519 -12.241   4.280  1.00  0.00     0.076 C 
HETATM   19  C   UNL     1      39.170 -12.581   4.033  1.00  0.00     0.158 C 
HETATM   20  N   UNL     1      38.891 -12.706   2.735  1.00  0.00    -0.183 NA
HETATM   21  N   UNL     1      40.040 -12.338   2.129  1.00  0.00    -0.268 N 
HETATM   22  C   UNL     1      41.088 -12.187   3.015  1.00  0.00     0.052 C 
BRANCH  21  23
HETATM   23  C   UNL     1      40.062 -12.110   0.682  1.00  0.00     0.106 C 
HETATM   24  C   UNL     1      39.087 -11.017   0.226  1.00  0.00     0.034 C 
BRANCH  23  25
HETATM   25  C   UNL     1      39.916 -13.410  -0.130  1.00  0.00     0.022 C 
HETATM   26  C   UNL     1      40.676 -14.607   0.421  1.00  0.00     0.007 C 
ENDBRANCH  23  25
ENDBRANCH  21  23
BRANCH  22  27
HETATM   27  C   UNL     1      42.548 -12.007   2.591  1.00  0.00     0.038 A 
HETATM   28  C   UNL     1      43.721 -11.967   3.532  1.00  0.00     0.011 A 
HETATM   29  C   UNL     1      43.449 -13.214   2.766  1.00  0.00     0.011 A 
ENDBRANCH  22  27
ENDBRANCH   1  18
TORSDOF 8
ENDMDL
MODEL 5
REMARK VINA RESULT:      -6.8      3.294      4.453
REMARK  8 active torsions:
REMARK  status: ('A' for Active; 'I' for Inactive)
REMARK    1  A    between atoms: C_2  and  C_3 
REMARK    2  A    between atoms: C_3  and  N_4 
REMARK    3  A    between atoms: C_7  and  C_8 
REMARK       I    between atoms: C_8  and  N_9 
REMARK    4  A    between atoms: N_9  and  C_10 
REMARK    5  A    between atoms: C_13  and  O_14 
REMARK    6  A    between atoms: O_14  and  C_15 
REMARK    7  A    between atoms: C_15  and  C_16 
REMARK       I    between atoms: C_16  and  N_17 
REMARK    8  A    between atoms: C_23  and  C_24 
ROOT
HETATM    1  C   UNL     1      43.425 -11.569   4.302  1.00  0.00     0.259 C 
HETATM    2  N   UNL     1      42.515 -10.554   4.468  1.00  0.00    -0.323 N 
HETATM    3  O   UNL     1      44.262 -11.414   3.409  1.00  0.00    -0.267 OA
HETATM    4  H   UNL     1      42.653  -9.867   3.736  1.00  0.00     0.169 HD
ENDROOT
BRANCH   2   5
HETATM    5  C   UNL     1      41.540 -10.236   5.424  1.00  0.00     0.035 A 
HETATM    6  C   UNL     1      40.251 -10.765   5.474  1.00  0.00     0.032 A 
HETATM    7  C   UNL     1      39.381 -10.401   6.513  1.00  0.00     0.039 A 
HETATM    8  C   UNL     1      39.809  -9.540   7.522  1.00  0.00     0.069 A 
HETATM    9  C   UNL     1      41.084  -8.991   7.474  1.00  0.00     0.039 A 
HETATM   10  C   UNL     1      41.944  -9.346   6.434  1.00  0.00     0.032 A 
BRANCH   8  11
HETATM   11  O   UNL     1      38.928  -9.225   8.519  1.00  0.00    -0.342 OA
BRANCH  11  12
HETATM   12  C   UNL     1      38.888 -10.234   9.532  1.00  0.00     0.278 C 
BRANCH  12  13
HETATM   13  C   UNL     1      39.561  -9.815  10.840  1.00  0.00     0.241 C 
HETATM   14  N   UNL     1      39.341 -10.678  11.893  1.00  0.00    -0.364 N 
HETATM   15  C   UNL     1      39.865 -10.414  13.207  1.00  0.00     0.149 C 
HETATM   16  H   UNL     1      38.604 -11.366  11.777  1.00  0.00     0.161 HD
HETATM   17  O   UNL     1      40.273  -8.817  10.921  1.00  0.00    -0.271 OA
ENDBRANCH  12  13
ENDBRANCH  11  12
ENDBRANCH   8  11
ENDBRANCH   2   5
BRANCH   1  18
HETATM   18  C   UNL     1      43.332 -12.818   5.020  1.00  0.00     0.076 C 
HETATM   19  C   UNL     1      43.593 -13.010   6.396  1.00  0.00     0.158 C 
HETATM   20  N   UNL     1      43.238 -14.218   6.832  1.00  0.00    -0.183 NA
HETATM   21  N   UNL     1      42.641 -14.779   5.759  1.00  0.00    -0.268 N 
HETATM   22  C   UNL     1      42.799 -14.033   4.608  1.00  0.00     0.052 C 
BRANCH  21  23
HETATM   23  C   UNL     1      41.894 -16.030   5.909  1.00  0.00     0.106 C 
HETATM   24  C   UNL     1      40.508 -15.837   6.538  1.00  0.00     0.034 C 
BRANCH  23  25
HETATM   25  C   UNL     1      42.712 -17.134   6.605  1.00  0.00     0.022 C 
HETATM   26  C   UNL     1      43.900 -17.658   5.812  1.00  0.00     0.007 C 
ENDBRANCH  23  25
ENDBRANCH  21  23
BRANCH  22  27
HETATM   27  C   UNL     1      42.435 -14.532   3.208  1.00  0.00     0.038 A 
HETATM   28  C   UNL     1      43.302 -14.384   1.987  1.00  0.00     0.011 A 
HETATM   29  C   UNL     1      43.249 -15.699   2.682  1.00  0.00     0.011 A 
ENDBRANCH  22  27
ENDBRANCH   1  18
TORSDOF 8
ENDMDL
MODEL 6
REMARK VINA RESULT:      -6.7      1.990      3.485
REMARK  8 active torsions:
REMARK  status: ('A' for Active; 'I' for Inactive)
REMARK    1  A    between atoms: C_2  and  C_3 
REMARK    2  A    between atoms: C_3  and  N_4 
REMARK    3  A    between atoms: C_7  and  C_8 
REMARK       I    between atoms: C_8  and  N_9 
REMARK    4  A    between atoms: N_9  and  C_10 
REMARK    5  A    between atoms: C_13  and  O_14 
REMARK    6  A    between atoms: O_14  and  C_15 
REMARK    7  A    between atoms: C_15  and  C_16 
REMARK       I    between atoms: C_16  and  N_17 
REMARK    8  A    between atoms: C_23  and  C_24 
ROOT
HETATM    1  C   UNL     1      40.093 -15.299   3.114  1.00  0.00     0.259 C 
HETATM    2  N   UNL     1      39.673 -14.020   3.382  1.00  0.00    -0.323 N 
HETATM    3  O   UNL     1      39.448 -15.923   2.267  1.00  0.00    -0.267 OA
HETATM    4  H   UNL     1      38.816 -13.843   2.870  1.00  0.00     0.169 HD
ENDROOT
BRANCH   2   5
HETATM    5  C   UNL     1      40.183 -12.935   4.108  1.00  0.00     0.035 A 
HETATM    6  C   UNL     1      39.767 -12.543   5.379  1.00  0.00     0.032 A 
HETATM    7  C   UNL     1      40.391 -11.464   6.023  1.00  0.00     0.039 A 
HETATM    8  C   UNL     1      41.454 -10.799   5.414  1.00  0.00     0.069 A 
HETATM    9  C   UNL     1      41.866 -11.167   4.139  1.00  0.00     0.039 A 
HETATM   10  C   UNL     1      41.237 -12.234   3.497  1.00  0.00     0.032 A 
BRANCH   8  11
HETATM   11  O   UNL     1      42.037  -9.761   6.086  1.00  0.00    -0.342 OA
BRANCH  11  12
HETATM   12  C   UNL     1      42.613 -10.186   7.325  1.00  0.00     0.278 C 
BRANCH  12  13
HETATM   13  C   UNL     1      44.141 -10.262   7.296  1.00  0.00     0.241 C 
HETATM   14  N   UNL     1      44.767  -9.424   8.193  1.00  0.00    -0.364 N 
HETATM   15  C   UNL     1      46.202  -9.337   8.269  1.00  0.00     0.149 C 
HETATM   16  H   UNL     1      44.199  -8.699   8.619  1.00  0.00     0.161 HD
HETATM   17  O   UNL     1      44.744 -11.043   6.564  1.00  0.00    -0.271 OA
ENDBRANCH  12  13
ENDBRANCH  11  12
ENDBRANCH   8  11
ENDBRANCH   2   5
BRANCH   1  18
HETATM   18  C   UNL     1      41.135 -15.948   3.875  1.00  0.00     0.076 C 
HETATM   19  C   UNL     1      41.033 -16.402   5.210  1.00  0.00     0.158 C 
HETATM   20  N   UNL     1      42.076 -17.138   5.593  1.00  0.00    -0.183 NA
HETATM   21  N   UNL     1      42.811 -17.256   4.467  1.00  0.00    -0.268 N 
HETATM   22  C   UNL     1      42.361 -16.442   3.447  1.00  0.00     0.052 C 
BRANCH  21  23
HETATM   23  C   UNL     1      43.927 -18.204   4.418  1.00  0.00     0.106 C 
HETATM   24  C   UNL     1      44.038 -18.939   3.076  1.00  0.00     0.034 C 
BRANCH  23  25
HETATM   25  C   UNL     1      43.949 -19.163   5.623  1.00  0.00     0.022 C 
HETATM   26  C   UNL     1      44.007 -20.642   5.272  1.00  0.00     0.007 C 
ENDBRANCH  23  25
ENDBRANCH  21  23
BRANCH  22  27
HETATM   27  C   UNL     1      43.131 -16.193   2.147  1.00  0.00     0.038 A 
HETATM   28  C   UNL     1      42.609 -15.414   0.971  1.00  0.00     0.011 A 
HETATM   29  C   UNL     1      43.577 -14.765   1.897  1.00  0.00     0.011 A 
ENDBRANCH  22  27
ENDBRANCH   1  18
TORSDOF 8
ENDMDL
MODEL 7
REMARK VINA RESULT:      -6.7      2.480      8.551
REMARK  8 active torsions:
REMARK  status: ('A' for Active; 'I' for Inactive)
REMARK    1  A    between atoms: C_2  and  C_3 
REMARK    2  A    between atoms: C_3  and  N_4 
REMARK    3  A    between atoms: C_7  and  C_8 
REMARK       I    between atoms: C_8  and  N_9 
REMARK    4  A    between atoms: N_9  and  C_10 
REMARK    5  A    between atoms: C_13  and  O_14 
REMARK    6  A    between atoms: O_14  and  C_15 
REMARK    7  A    between atoms: C_15  and  C_16 
REMARK       I    between atoms: C_16  and  N_17 
REMARK    8  A    between atoms: C_23  and  C_24 
ROOT
HETATM    1  C   UNL     1      44.968  -9.207   8.338  1.00  0.00     0.259 C 
HETATM    2  N   UNL     1      44.914 -10.063   7.267  1.00  0.00    -0.323 N 
HETATM    3  O   UNL     1      45.798  -8.297   8.272  1.00  0.00    -0.267 OA
HETATM    4  H   UNL     1      45.659  -9.828   6.621  1.00  0.00     0.169 HD
ENDROOT
BRANCH   2   5
HETATM    5  C   UNL     1      44.050 -11.087   6.851  1.00  0.00     0.035 A 
HETATM    6  C   UNL     1      44.277 -12.453   7.010  1.00  0.00     0.032 A 
HETATM    7  C   UNL     1      43.311 -13.380   6.593  1.00  0.00     0.039 A 
HETATM    8  C   UNL     1      42.103 -12.944   6.052  1.00  0.00     0.069 A 
HETATM    9  C   UNL     1      41.871 -11.586   5.871  1.00  0.00     0.039 A 
HETATM   10  C   UNL     1      42.838 -10.666   6.277  1.00  0.00     0.032 A 
BRANCH   8  11
HETATM   11  O   UNL     1      41.188 -13.886   5.671  1.00  0.00    -0.342 OA
BRANCH  11  12
HETATM   12  C   UNL     1      41.806 -15.145   5.389  1.00  0.00     0.278 C 
BRANCH  12  13
HETATM   13  C   UNL     1      41.341 -15.774   4.074  1.00  0.00     0.241 C 
HETATM   14  N   UNL     1      40.300 -15.107   3.464  1.00  0.00    -0.364 N 
HETATM   15  C   UNL     1      39.710 -15.586   2.241  1.00  0.00     0.149 C 
HETATM   16  H   UNL     1      39.804 -14.419   4.022  1.00  0.00     0.161 HD
HETATM   17  O   UNL     1      41.888 -16.761   3.590  1.00  0.00    -0.271 OA
ENDBRANCH  12  13
ENDBRANCH  11  12
ENDBRANCH   8  11
ENDBRANCH   2   5
BRANCH   1  18
HETATM   18  C   UNL     1      44.210  -9.430   9.547  1.00  0.00     0.076 C 
HETATM   19  C   UNL     1      44.500 -10.385  10.548  1.00  0.00     0.158 C 
HETATM   20  N   UNL     1      43.755 -10.238  11.643  1.00  0.00    -0.183 NA
HETATM   21  N   UNL     1      43.051  -9.112  11.398  1.00  0.00    -0.268 N 
HETATM   22  C   UNL     1      43.186  -8.670  10.097  1.00  0.00     0.052 C 
BRANCH  21  23
HETATM   23  C   UNL     1      42.286  -8.478  12.475  1.00  0.00     0.106 C 
HETATM   24  C   UNL     1      43.163  -7.693  13.459  1.00  0.00     0.034 C 
BRANCH  23  25
HETATM   25  C   UNL     1      41.331  -9.456  13.184  1.00  0.00     0.022 C 
HETATM   26  C   UNL     1      40.133  -9.903  12.359  1.00  0.00     0.007 C 
ENDBRANCH  23  25
ENDBRANCH  21  23
BRANCH  22  27
HETATM   27  C   UNL     1      42.328  -7.564   9.476  1.00  0.00     0.038 A 
HETATM   28  C   UNL     1      41.982  -7.458   8.015  1.00  0.00     0.011 A 
HETATM   29  C   UNL     1      40.963  -7.985   8.965  1.00  0.00     0.011 A 
ENDBRANCH  22  27
ENDBRANCH   1  18
TORSDOF 8
ENDMDL
MODEL 8
REMARK VINA RESULT:      -6.7      3.434      7.436
REMARK  8 active torsions:
REMARK  status: ('A' for Active; 'I' for Inactive)
REMARK    1  A    between atoms: C_2  and  C_3 
REMARK    2  A    between atoms: C_3  and  N_4 
REMARK    3  A    between atoms: C_7  and  C_8 
REMARK       I    between atoms: C_8  and  N_9 
REMARK    4  A    between atoms: N_9  and  C_10 
REMARK    5  A    between atoms: C_13  and  O_14 
REMARK    6  A    between atoms: O_14  and  C_15 
REMARK    7  A    between atoms: C_15  and  C_16 
REMARK       I    between atoms: C_16  and  N_17 
REMARK    8  A    between atoms: C_23  and  C_24 
ROOT
HETATM    1  C   UNL     1      39.934 -12.639   5.951  1.00  0.00     0.259 C 
HETATM    2  N   UNL     1      39.809 -11.788   4.881  1.00  0.00    -0.323 N 
HETATM    3  O   UNL     1      39.443 -12.257   7.016  1.00  0.00    -0.267 OA
HETATM    4  H   UNL     1      39.387 -10.922   5.198  1.00  0.00     0.169 HD
ENDROOT
BRANCH   2   5
HETATM    5  C   UNL     1      40.050 -11.878   3.503  1.00  0.00     0.035 A 
HETATM    6  C   UNL     1      41.148 -11.339   2.835  1.00  0.00     0.032 A 
HETATM    7  C   UNL     1      41.300 -11.538   1.455  1.00  0.00     0.039 A 
HETATM    8  C   UNL     1      40.377 -12.306   0.748  1.00  0.00     0.069 A 
HETATM    9  C   UNL     1      39.268 -12.833   1.396  1.00  0.00     0.039 A 
HETATM   10  C   UNL     1      39.113 -12.625   2.768  1.00  0.00     0.032 A 
BRANCH   8  11
HETATM   11  O   UNL     1      40.575 -12.481  -0.594  1.00  0.00    -0.342 OA
BRANCH  11  12
HETATM   12  C   UNL     1      40.408 -13.848  -0.982  1.00  0.00     0.278 C 
BRANCH  12  13
HETATM   13  C   UNL     1      39.877 -14.019  -2.407  1.00  0.00     0.241 C 
HETATM   14  N   UNL     1      38.609 -14.556  -2.478  1.00  0.00    -0.364 N 
HETATM   15  C   UNL     1      37.974 -14.824  -3.742  1.00  0.00     0.149 C 
HETATM   16  H   UNL     1      38.241 -14.981  -1.633  1.00  0.00     0.161 HD
HETATM   17  O   UNL     1      40.516 -13.659  -3.392  1.00  0.00    -0.271 OA
ENDBRANCH  12  13
ENDBRANCH  11  12
ENDBRANCH   8  11
ENDBRANCH   2   5
BRANCH   1  18
HETATM   18  C   UNL     1      40.722 -13.848   5.892  1.00  0.00     0.076 C 
HETATM   19  C   UNL     1      40.230 -15.169   6.001  1.00  0.00     0.158 C 
HETATM   20  N   UNL     1      41.146 -16.093   5.712  1.00  0.00    -0.183 NA
HETATM   21  N   UNL     1      42.210 -15.368   5.306  1.00  0.00    -0.268 N 
HETATM   22  C   UNL     1      42.052 -14.015   5.530  1.00  0.00     0.052 C 
BRANCH  21  23
HETATM   23  C   UNL     1      43.348 -16.035   4.669  1.00  0.00     0.106 C 
HETATM   24  C   UNL     1      43.009 -16.637   3.299  1.00  0.00     0.034 C 
BRANCH  23  25
HETATM   25  C   UNL     1      44.049 -17.041   5.601  1.00  0.00     0.022 C 
HETATM   26  C   UNL     1      44.677 -16.439   6.849  1.00  0.00     0.007 C 
ENDBRANCH  23  25
ENDBRANCH  21  23
BRANCH  22  27
HETATM   27  C   UNL     1      43.178 -12.987   5.388  1.00  0.00     0.038 A 
HETATM   28  C   UNL     1      43.245 -11.675   6.121  1.00  0.00     0.011 A 
HETATM   29  C   UNL     1      44.080 -12.813   6.595  1.00  0.00     0.011 A 
ENDBRANCH  22  27
ENDBRANCH   1  18
TORSDOF 8
ENDMDL
MODEL 9
REMARK VINA RESULT:      -6.6      6.502     12.753
REMARK  8 active torsions:
REMARK  status: ('A' for Active; 'I' for Inactive)
REMARK    1  A    between atoms: C_2  and  C_3 
REMARK    2  A    between atoms: C_3  and  N_4 
REMARK    3  A    between atoms: C_7  and  C_8 
REMARK       I    between atoms: C_8  and  N_9 
REMARK    4  A    between atoms: N_9  and  C_10 
REMARK    5  A    between atoms: C_13  and  O_14 
REMARK    6  A    between atoms: O_14  and  C_15 
REMARK    7  A    between atoms: C_15  and  C_16 
REMARK       I    between atoms: C_16  and  N_17 
REMARK    8  A    between atoms: C_23  and  C_24 
ROOT
HETATM    1  C   UNL     1      41.407  -5.505  16.143  1.00  0.00     0.259 C 
HETATM    2  N   UNL     1      42.229  -6.560  15.834  1.00  0.00    -0.323 N 
HETATM    3  O   UNL     1      41.798  -4.747  17.033  1.00  0.00    -0.267 OA
HETATM    4  H   UNL     1      43.008  -6.570  16.483  1.00  0.00     0.169 HD
ENDROOT
BRANCH   2   5
HETATM    5  C   UNL     1      42.270  -7.529  14.821  1.00  0.00     0.035 A 
HETATM    6  C   UNL     1      41.414  -8.623  14.711  1.00  0.00     0.032 A 
HETATM    7  C   UNL     1      41.527  -9.499  13.621  1.00  0.00     0.039 A 
HETATM    8  C   UNL     1      42.469  -9.262  12.622  1.00  0.00     0.069 A 
HETATM    9  C   UNL     1      43.342  -8.187  12.728  1.00  0.00     0.039 A 
HETATM   10  C   UNL     1      43.234  -7.323  13.819  1.00  0.00     0.032 A 
BRANCH   8  11
HETATM   11  O   UNL     1      42.533 -10.138  11.573  1.00  0.00    -0.342 OA
BRANCH  11  12
HETATM   12  C   UNL     1      43.881 -10.514  11.275  1.00  0.00     0.278 C 
BRANCH  12  13
HETATM   13  C   UNL     1      44.191 -10.540   9.777  1.00  0.00     0.241 C 
HETATM   14  N   UNL     1      43.096 -10.325   8.967  1.00  0.00    -0.364 N 
HETATM   15  C   UNL     1      43.201 -10.359   7.532  1.00  0.00     0.149 C 
HETATM   16  H   UNL     1      42.182 -10.388   9.404  1.00  0.00     0.161 HD
HETATM   17  O   UNL     1      45.331 -10.692   9.346  1.00  0.00    -0.271 OA
ENDBRANCH  12  13
ENDBRANCH  11  12
ENDBRANCH   8  11
ENDBRANCH   2   5
BRANCH   1  18
HETATM   18  C   UNL     1      40.087  -5.359  15.574  1.00  0.00     0.076 C 
HETATM   19  C   UNL     1      38.884  -5.856  16.124  1.00  0.00     0.158 C 
HETATM   20  N   UNL     1      37.797  -5.406  15.496  1.00  0.00    -0.183 NA
HETATM   21  N   UNL     1      38.292  -4.525  14.601  1.00  0.00    -0.268 N 
HETATM   22  C   UNL     1      39.669  -4.567  14.513  1.00  0.00     0.052 C 
BRANCH  21  23
HETATM   23  C   UNL     1      37.384  -3.633  13.875  1.00  0.00     0.106 C 
HETATM   24  C   UNL     1      36.280  -3.041  14.761  1.00  0.00     0.034 C 
BRANCH  23  25
HETATM   25  C   UNL     1      36.832  -4.264  12.584  1.00  0.00     0.022 C 
HETATM   26  C   UNL     1      35.885  -3.381  11.785  1.00  0.00     0.007 C 
ENDBRANCH  23  25
ENDBRANCH  21  23
BRANCH  22  27
HETATM   27  C   UNL     1      40.479  -3.856  13.426  1.00  0.00     0.038 A 
HETATM   28  C   UNL     1      41.934  -4.104  13.133  1.00  0.00     0.011 A 
HETATM   29  C   UNL     1      40.903  -4.707  12.244  1.00  0.00     0.011 A 
ENDBRANCH  22  27
ENDBRANCH   1  18
TORSDOF 8
ENDMDL
MODEL 10
REMARK VINA RESULT:      -6.3     16.520     18.619
REMARK  8 active torsions:
REMARK  status: ('A' for Active; 'I' for Inactive)
REMARK    1  A    between atoms: C_2  and  C_3 
REMARK    2  A    between atoms: C_3  and  N_4 
REMARK    3  A    between atoms: C_7  and  C_8 
REMARK       I    between atoms: C_8  and  N_9 
REMARK    4  A    between atoms: N_9  and  C_10 
REMARK    5  A    between atoms: C_13  and  O_14 
REMARK    6  A    between atoms: O_14  and  C_15 
REMARK    7  A    between atoms: C_15  and  C_16 
REMARK       I    between atoms: C_16  and  N_17 
REMARK    8  A    between atoms: C_23  and  C_24 
ROOT
HETATM    1  C   UNL     1      43.299 -29.434   0.916  1.00  0.00     0.259 C 
HETATM    2  N   UNL     1      44.012 -29.152   2.054  1.00  0.00    -0.323 N 
HETATM    3  O   UNL     1      42.161 -28.961   0.850  1.00  0.00    -0.267 OA
HETATM    4  H   UNL     1      43.414 -28.650   2.700  1.00  0.00     0.169 HD
ENDROOT
BRANCH   2   5
HETATM    5  C   UNL     1      45.341 -29.325   2.466  1.00  0.00     0.035 A 
HETATM    6  C   UNL     1      46.410 -28.498   2.125  1.00  0.00     0.032 A 
HETATM    7  C   UNL     1      47.689 -28.751   2.642  1.00  0.00     0.039 A 
HETATM    8  C   UNL     1      47.894 -29.807   3.529  1.00  0.00     0.069 A 
HETATM    9  C   UNL     1      46.843 -30.650   3.863  1.00  0.00     0.039 A 
HETATM   10  C   UNL     1      45.573 -30.402   3.339  1.00  0.00     0.032 A 
BRANCH   8  11
HETATM   11  O   UNL     1      49.157 -30.005   4.015  1.00  0.00    -0.342 OA
BRANCH  11  12
HETATM   12  C   UNL     1      50.156 -29.740   3.026  1.00  0.00     0.278 C 
BRANCH  12  13
HETATM   13  C   UNL     1      50.670 -30.997   2.323  1.00  0.00     0.241 C 
HETATM   14  N   UNL     1      51.018 -30.806   1.003  1.00  0.00    -0.364 N 
HETATM   15  C   UNL     1      51.480 -31.893   0.180  1.00  0.00     0.149 C 
HETATM   16  H   UNL     1      50.708 -29.945   0.565  1.00  0.00     0.161 HD
HETATM   17  O   UNL     1      50.802 -32.069   2.909  1.00  0.00    -0.271 OA
ENDBRANCH  12  13
ENDBRANCH  11  12
ENDBRANCH   8  11
ENDBRANCH   2   5
BRANCH   1  18
HETATM   18  C   UNL     1      43.777 -30.352  -0.091  1.00  0.00     0.076 C 
HETATM   19  C   UNL     1      43.624 -31.757  -0.078  1.00  0.00     0.158 C 
HETATM   20  N   UNL     1      43.985 -32.333  -1.225  1.00  0.00    -0.183 NA
HETATM   21  N   UNL     1      44.272 -31.286  -2.028  1.00  0.00    -0.268 N 
HETATM   22  C   UNL     1      44.299 -30.084  -1.351  1.00  0.00     0.052 C 
BRANCH  21  23
HETATM   23  C   UNL     1      44.480 -31.501  -3.462  1.00  0.00     0.106 C 
HETATM   24  C   UNL     1      45.948 -31.753  -3.830  1.00  0.00     0.034 C 
BRANCH  23  25
HETATM   25  C   UNL     1      43.832 -30.406  -4.330  1.00  0.00     0.022 C 
HETATM   26  C   UNL     1      44.039 -30.561  -5.829  1.00  0.00     0.007 C 
ENDBRANCH  23  25
ENDBRANCH  21  23
BRANCH  22  27
HETATM   27  C   UNL     1      44.821 -28.776  -1.949  1.00  0.00     0.038 A 
HETATM   28  C   UNL     1      45.428 -27.647  -1.161  1.00  0.00     0.011 A 
HETATM   29  C   UNL     1      46.324 -28.574  -1.906  1.00  0.00     0.011 A 
ENDBRANCH  22  27
ENDBRANCH   1  18
TORSDOF 8
ENDMDL
