MODEL 1
REMARK VINA RESULT:      -9.3      0.000      0.000
REMARK  10 active torsions:
REMARK  status: ('A' for Active; 'I' for Inactive)
REMARK    1  A    between atoms: C_6  and  C_7 
REMARK    2  A    between atoms: C_7  and  C_8 
REMARK       I    between atoms: C_8  and  N_9 
REMARK    3  A    between atoms: N_9  and  C_10 
REMARK    4  A    between atoms: C_10  and  C_11 
REMARK    5  A    between atoms: C_11  and  N_12 
REMARK    6  A    between atoms: C_17  and  C_18 
REMARK    7  A    between atoms: C_27  and  C_28 
REMARK    8  A    between atoms: C_28  and  O_29 
REMARK    9  A    between atoms: O_29  and  C_30 
REMARK   10  A    between atoms: C_30  and  C_31 
ROOT
HETATM    1  C   UNL     1      41.181 -15.848   6.764  1.00  0.00     0.071 C 
HETATM    2  C   UNL     1      40.604 -14.825   5.814  1.00  0.00     0.048 C 
HETATM    3  N   UNL     1      39.837 -13.834   6.440  1.00  0.00    -0.229 NA
HETATM    4  C   UNL     1      39.840 -12.666   5.878  1.00  0.00     0.170 C 
HETATM    5  N   UNL     1      40.456 -12.423   4.462  1.00  0.00    -0.318 N 
HETATM    6  C   UNL     1      41.148 -11.332   4.495  1.00  0.00     0.011 C 
HETATM    7  C   UNL     1      40.248 -13.668   3.707  1.00  0.00     0.169 C 
HETATM    8  S   UNL     1      39.474 -11.171   6.651  1.00  0.00    -0.086 SA
HETATM    9  C   UNL     1      40.715 -10.348   5.578  1.00  0.00     0.135 C 
HETATM   10  C   UNL     1      40.938 -14.729   4.501  1.00  0.00     0.069 C 
ENDROOT
BRANCH   6  11
HETATM   11  C   UNL     1      42.339 -11.111   3.604  1.00  0.00     0.156 C 
BRANCH  11  12
HETATM   12  C   UNL     1      43.641 -11.482   4.296  1.00  0.00     0.223 C 
HETATM   13  N   UNL     1      43.556 -11.967   5.573  1.00  0.00    -0.359 N 
HETATM   14  H   UNL     1      42.636 -12.059   6.010  1.00  0.00     0.162 HD
HETATM   15  O   UNL     1      44.729 -11.302   3.752  1.00  0.00    -0.273 OA
BRANCH  13  16
HETATM   16  C   UNL     1      44.718 -12.106   6.462  1.00  0.00     0.150 C 
BRANCH  16  17
HETATM   17  C   UNL     1      45.154 -10.841   7.246  1.00  0.00     0.253 C 
BRANCH  17  18
HETATM   18  N   UNL     1      44.400 -10.652   8.549  1.00  0.00    -0.077 N 
HETATM   19  H   UNL     1      44.083 -11.595   8.849  1.00  0.00     0.279 HD
HETATM   20  C   UNL     1      45.240 -10.122   9.677  1.00  0.00     0.269 C 
HETATM   21  C   UNL     1      43.157  -9.822   8.371  1.00  0.00     0.269 C 
ENDBRANCH  17  18
ENDBRANCH  16  17
ENDBRANCH  13  16
ENDBRANCH  11  12
ENDBRANCH   6  11
BRANCH   7  22
HETATM   22  C   UNL     1      40.171 -13.712   2.193  1.00  0.00     0.008 A 
HETATM   23  C   UNL     1      39.777 -14.847   1.471  1.00  0.00     0.125 A 
HETATM   24  F   UNL     1      39.311 -15.924   2.116  1.00  0.00    -0.205 F 
HETATM   25  C   UNL     1      39.924 -14.940   0.088  1.00  0.00     0.043 A 
HETATM   26  C   UNL     1      40.523 -13.902  -0.615  1.00  0.00     0.003 A 
HETATM   27  C   UNL     1      40.959 -12.771   0.069  1.00  0.00     0.001 A 
HETATM   28  C   UNL     1      40.780 -12.673   1.453  1.00  0.00     0.013 A 
ENDBRANCH   7  22
BRANCH  10  29
HETATM   29  C   UNL     1      42.216 -15.241   3.986  1.00  0.00     0.294 C 
HETATM   30  O   UNL     1      43.245 -14.605   4.176  1.00  0.00    -0.259 OA
BRANCH  29  31
HETATM   31  O   UNL     1      42.077 -16.435   3.401  1.00  0.00    -0.313 OA
BRANCH  31  32
HETATM   32  C   UNL     1      43.162 -16.870   2.569  1.00  0.00     0.217 C 
BRANCH  32  33
HETATM   33  C   UNL     1      43.504 -18.258   3.024  1.00  0.00    -0.034 A 
HETATM   34  C   UNL     1      43.306 -19.349   2.167  1.00  0.00     0.009 A 
HETATM   35  C   UNL     1      43.554 -20.647   2.613  1.00  0.00     0.001 A 
HETATM   36  C   UNL     1      43.995 -20.865   3.916  1.00  0.00     0.000 A 
HETATM   37  C   UNL     1      44.195 -19.787   4.776  1.00  0.00     0.001 A 
HETATM   38  C   UNL     1      43.948 -18.487   4.334  1.00  0.00     0.009 A 
ENDBRANCH  32  33
ENDBRANCH  31  32
ENDBRANCH  29  31
ENDBRANCH  10  29
TORSDOF 10
ENDMDL
MODEL 2
REMARK VINA RESULT:      -8.4      2.388      4.337
REMARK  10 active torsions:
REMARK  status: ('A' for Active; 'I' for Inactive)
REMARK    1  A    between atoms: C_6  and  C_7 
REMARK    2  A    between atoms: C_7  and  C_8 
REMARK       I    between atoms: C_8  and  N_9 
REMARK    3  A    between atoms: N_9  and  C_10 
REMARK    4  A    between atoms: C_10  and  C_11 
REMARK    5  A    between atoms: C_11  and  N_12 
REMARK    6  A    between atoms: C_17  and  C_18 
REMARK    7  A    between atoms: C_27  and  C_28 
REMARK    8  A    between atoms: C_28  and  O_29 
REMARK    9  A    between atoms: O_29  and  C_30 
REMARK   10  A    between atoms: C_30  and  C_31 
ROOT
HETATM    1  C   UNL     1      41.246 -14.946   0.778  1.00  0.00     0.071 C 
HETATM    2  C   UNL     1      41.541 -13.764   1.671  1.00  0.00     0.048 C 
HETATM    3  N   UNL     1      40.996 -12.556   1.216  1.00  0.00    -0.229 NA
HETATM    4  C   UNL     1      40.658 -11.700   2.129  1.00  0.00     0.170 C 
HETATM    5  N   UNL     1      41.047 -11.885   3.632  1.00  0.00    -0.318 N 
HETATM    6  C   UNL     1      40.020 -11.601   4.363  1.00  0.00     0.011 C 
HETATM    7  C   UNL     1      42.344 -12.580   3.635  1.00  0.00     0.169 C 
HETATM    8  S   UNL     1      39.515 -10.426   1.946  1.00  0.00    -0.086 SA
HETATM    9  C   UNL     1      39.021 -10.658   3.699  1.00  0.00     0.135 C 
HETATM   10  C   UNL     1      42.106 -13.860   2.903  1.00  0.00     0.069 C 
ENDROOT
BRANCH   6  11
HETATM   11  C   UNL     1      39.792 -12.235   5.707  1.00  0.00     0.156 C 
BRANCH  11  12
HETATM   12  C   UNL     1      39.190 -11.255   6.701  1.00  0.00     0.223 C 
HETATM   13  N   UNL     1      40.058 -10.516   7.458  1.00  0.00    -0.359 N 
HETATM   14  H   UNL     1      41.064 -10.648   7.332  1.00  0.00     0.162 HD
HETATM   15  O   UNL     1      37.973 -11.169   6.858  1.00  0.00    -0.273 OA
BRANCH  13  16
HETATM   16  C   UNL     1      39.643  -9.741   8.637  1.00  0.00     0.150 C 
BRANCH  16  17
HETATM   17  C   UNL     1      40.746  -8.929   9.363  1.00  0.00     0.253 C 
BRANCH  17  18
HETATM   18  N   UNL     1      41.784  -9.801  10.044  1.00  0.00    -0.077 N 
HETATM   19  H   UNL     1      41.493 -10.786   9.890  1.00  0.00     0.279 HD
HETATM   20  C   UNL     1      43.166  -9.684   9.463  1.00  0.00     0.269 C 
HETATM   21  C   UNL     1      41.810  -9.594  11.534  1.00  0.00     0.269 C 
ENDBRANCH  17  18
ENDBRANCH  16  17
ENDBRANCH  13  16
ENDBRANCH  11  12
ENDBRANCH   6  11
BRANCH   7  22
HETATM   22  C   UNL     1      43.334 -12.476   4.780  1.00  0.00     0.008 A 
HETATM   23  C   UNL     1      43.079 -12.963   6.069  1.00  0.00     0.125 A 
HETATM   24  F   UNL     1      41.975 -13.680   6.309  1.00  0.00    -0.205 F 
HETATM   25  C   UNL     1      43.900 -12.664   7.155  1.00  0.00     0.043 A 
HETATM   26  C   UNL     1      44.988 -11.816   6.987  1.00  0.00     0.003 A 
HETATM   27  C   UNL     1      45.256 -11.284   5.729  1.00  0.00     0.001 A 
HETATM   28  C   UNL     1      44.444 -11.613   4.638  1.00  0.00     0.013 A 
ENDBRANCH   7  22
BRANCH  10  29
HETATM   29  C   UNL     1      42.028 -15.095   3.697  1.00  0.00     0.294 C 
HETATM   30  O   UNL     1      40.984 -15.383   4.269  1.00  0.00    -0.259 OA
BRANCH  29  31
HETATM   31  O   UNL     1      43.157 -15.805   3.627  1.00  0.00    -0.313 OA
BRANCH  31  32
HETATM   32  C   UNL     1      43.441 -16.670   4.737  1.00  0.00     0.217 C 
BRANCH  32  33
HETATM   33  C   UNL     1      43.614 -18.044   4.161  1.00  0.00    -0.034 A 
HETATM   34  C   UNL     1      43.322 -18.283   2.812  1.00  0.00     0.009 A 
HETATM   35  C   UNL     1      43.412 -19.574   2.291  1.00  0.00     0.001 A 
HETATM   36  C   UNL     1      43.787 -20.634   3.115  1.00  0.00     0.000 A 
HETATM   37  C   UNL     1      44.079 -20.405   4.458  1.00  0.00     0.001 A 
HETATM   38  C   UNL     1      43.991 -19.116   4.983  1.00  0.00     0.009 A 
ENDBRANCH  32  33
ENDBRANCH  31  32
ENDBRANCH  29  31
ENDBRANCH  10  29
TORSDOF 10
ENDMDL
MODEL 3
REMARK VINA RESULT:      -8.3      2.550      4.371
REMARK  10 active torsions:
REMARK  status: ('A' for Active; 'I' for Inactive)
REMARK    1  A    between atoms: C_6  and  C_7 
REMARK    2  A    between atoms: C_7  and  C_8 
REMARK       I    between atoms: C_8  and  N_9 
REMARK    3  A    between atoms: N_9  and  C_10 
REMARK    4  A    between atoms: C_10  and  C_11 
REMARK    5  A    between atoms: C_11  and  N_12 
REMARK    6  A    between atoms: C_17  and  C_18 
REMARK    7  A    between atoms: C_27  and  C_28 
REMARK    8  A    between atoms: C_28  and  O_29 
REMARK    9  A    between atoms: O_29  and  C_30 
REMARK   10  A    between atoms: C_30  and  C_31 
ROOT
HETATM    1  C   UNL     1      40.109 -15.391   2.272  1.00  0.00     0.071 C 
HETATM    2  C   UNL     1      40.556 -14.035   2.767  1.00  0.00     0.048 C 
HETATM    3  N   UNL     1      39.951 -12.959   2.104  1.00  0.00    -0.229 NA
HETATM    4  C   UNL     1      39.775 -11.881   2.803  1.00  0.00     0.170 C 
HETATM    5  N   UNL     1      40.409 -11.693   4.220  1.00  0.00    -0.318 N 
HETATM    6  C   UNL     1      39.520 -11.180   5.004  1.00  0.00     0.011 C 
HETATM    7  C   UNL     1      41.683 -12.428   4.198  1.00  0.00     0.169 C 
HETATM    8  S   UNL     1      38.626 -10.642   2.477  1.00  0.00    -0.086 SA
HETATM    9  C   UNL     1      38.430 -10.391   4.285  1.00  0.00     0.135 C 
HETATM   10  C   UNL     1      41.318 -13.840   3.874  1.00  0.00     0.069 C 
ENDROOT
BRANCH   6  11
HETATM   11  C   UNL     1      39.516 -11.435   6.487  1.00  0.00     0.156 C 
BRANCH  11  12
HETATM   12  C   UNL     1      39.746 -10.160   7.281  1.00  0.00     0.223 C 
HETATM   13  N   UNL     1      40.997  -9.964   7.803  1.00  0.00    -0.359 N 
HETATM   14  H   UNL     1      41.719 -10.670   7.644  1.00  0.00     0.162 HD
HETATM   15  O   UNL     1      38.833  -9.364   7.494  1.00  0.00    -0.273 OA
BRANCH  13  16
HETATM   16  C   UNL     1      41.298  -8.936   8.810  1.00  0.00     0.150 C 
BRANCH  16  17
HETATM   17  C   UNL     1      41.039  -9.313  10.292  1.00  0.00     0.253 C 
BRANCH  17  18
HETATM   18  N   UNL     1      42.306  -9.384  11.124  1.00  0.00    -0.077 N 
HETATM   19  H   UNL     1      42.653  -8.410  11.221  1.00  0.00     0.279 HD
HETATM   20  C   UNL     1      42.097  -9.889  12.525  1.00  0.00     0.269 C 
HETATM   21  C   UNL     1      43.396 -10.158  10.434  1.00  0.00     0.269 C 
ENDBRANCH  17  18
ENDBRANCH  16  17
ENDBRANCH  13  16
ENDBRANCH  11  12
ENDBRANCH   6  11
BRANCH   7  22
HETATM   22  C   UNL     1      42.851 -12.083   5.102  1.00  0.00     0.008 A 
HETATM   23  C   UNL     1      44.094 -11.644   4.627  1.00  0.00     0.125 A 
HETATM   24  F   UNL     1      44.259 -11.376   3.326  1.00  0.00    -0.205 F 
HETATM   25  C   UNL     1      45.214 -11.544   5.450  1.00  0.00     0.043 A 
HETATM   26  C   UNL     1      45.132 -11.935   6.781  1.00  0.00     0.003 A 
HETATM   27  C   UNL     1      43.924 -12.408   7.285  1.00  0.00     0.001 A 
HETATM   28  C   UNL     1      42.796 -12.476   6.459  1.00  0.00     0.013 A 
ENDBRANCH   7  22
BRANCH  10  29
HETATM   29  C   UNL     1      41.366 -14.823   4.966  1.00  0.00     0.294 C 
HETATM   30  O   UNL     1      40.379 -14.997   5.670  1.00  0.00    -0.259 OA
BRANCH  29  31
HETATM   31  O   UNL     1      42.531 -15.476   4.999  1.00  0.00    -0.313 OA
BRANCH  31  32
HETATM   32  C   UNL     1      43.206 -15.646   3.744  1.00  0.00     0.217 C 
BRANCH  32  33
HETATM   33  C   UNL     1      43.375 -17.124   3.559  1.00  0.00    -0.034 A 
HETATM   34  C   UNL     1      44.052 -17.882   4.524  1.00  0.00     0.009 A 
HETATM   35  C   UNL     1      44.275 -19.244   4.320  1.00  0.00     0.001 A 
HETATM   36  C   UNL     1      43.829 -19.856   3.150  1.00  0.00     0.000 A 
HETATM   37  C   UNL     1      43.155 -19.111   2.185  1.00  0.00     0.001 A 
HETATM   38  C   UNL     1      42.930 -17.749   2.385  1.00  0.00     0.009 A 
ENDBRANCH  32  33
ENDBRANCH  31  32
ENDBRANCH  29  31
ENDBRANCH  10  29
TORSDOF 10
ENDMDL
MODEL 4
REMARK VINA RESULT:      -8.2      3.531      6.109
REMARK  10 active torsions:
REMARK  status: ('A' for Active; 'I' for Inactive)
REMARK    1  A    between atoms: C_6  and  C_7 
REMARK    2  A    between atoms: C_7  and  C_8 
REMARK       I    between atoms: C_8  and  N_9 
REMARK    3  A    between atoms: N_9  and  C_10 
REMARK    4  A    between atoms: C_10  and  C_11 
REMARK    5  A    between atoms: C_11  and  N_12 
REMARK    6  A    between atoms: C_17  and  C_18 
REMARK    7  A    between atoms: C_27  and  C_28 
REMARK    8  A    between atoms: C_28  and  O_29 
REMARK    9  A    between atoms: O_29  and  C_30 
REMARK   10  A    between atoms: C_30  and  C_31 
ROOT
HETATM    1  C   UNL     1      40.183 -10.088   4.644  1.00  0.00     0.071 C 
HETATM    2  C   UNL     1      39.896 -11.238   3.707  1.00  0.00     0.048 C 
HETATM    3  N   UNL     1      38.597 -11.235   3.182  1.00  0.00    -0.229 NA
HETATM    4  C   UNL     1      38.457 -11.734   1.994  1.00  0.00     0.170 C 
HETATM    5  N   UNL     1      39.607 -12.514   1.276  1.00  0.00    -0.318 N 
HETATM    6  C   UNL     1      39.666 -12.123   0.047  1.00  0.00     0.011 C 
HETATM    7  C   UNL     1      40.367 -13.190   2.340  1.00  0.00     0.169 C 
HETATM    8  S   UNL     1      37.172 -11.397   0.900  1.00  0.00    -0.086 SA
HETATM    9  C   UNL     1      38.357 -11.554  -0.493  1.00  0.00     0.135 C 
HETATM   10  C   UNL     1      40.839 -12.097   3.241  1.00  0.00     0.069 C 
ENDROOT
BRANCH   6  11
HETATM   11  C   UNL     1      40.948 -12.138  -0.739  1.00  0.00     0.156 C 
BRANCH  11  12
HETATM   12  C   UNL     1      41.306 -10.758  -1.266  1.00  0.00     0.223 C 
HETATM   13  N   UNL     1      41.763  -9.840  -0.359  1.00  0.00    -0.359 N 
HETATM   14  H   UNL     1      41.844 -10.109   0.624  1.00  0.00     0.162 HD
HETATM   15  O   UNL     1      41.139 -10.460  -2.448  1.00  0.00    -0.273 OA
BRANCH  13  16
HETATM   16  C   UNL     1      41.885  -8.404  -0.656  1.00  0.00     0.150 C 
BRANCH  16  17
HETATM   17  C   UNL     1      42.888  -8.004  -1.769  1.00  0.00     0.253 C 
BRANCH  17  18
HETATM   18  N   UNL     1      42.214  -7.608  -3.069  1.00  0.00    -0.077 N 
HETATM   19  H   UNL     1      42.109  -8.477  -3.627  1.00  0.00     0.279 HD
HETATM   20  C   UNL     1      40.826  -7.054  -2.902  1.00  0.00     0.269 C 
HETATM   21  C   UNL     1      43.066  -6.677  -3.890  1.00  0.00     0.269 C 
ENDBRANCH  17  18
ENDBRANCH  16  17
ENDBRANCH  13  16
ENDBRANCH  11  12
ENDBRANCH   6  11
BRANCH   7  22
HETATM   22  C   UNL     1      41.179 -14.449   2.101  1.00  0.00     0.008 A 
HETATM   23  C   UNL     1      40.788 -15.718   2.548  1.00  0.00     0.125 A 
HETATM   24  F   UNL     1      39.582 -15.892   3.101  1.00  0.00    -0.205 F 
HETATM   25  C   UNL     1      41.645 -16.817   2.515  1.00  0.00     0.043 A 
HETATM   26  C   UNL     1      42.952 -16.662   2.071  1.00  0.00     0.003 A 
HETATM   27  C   UNL     1      43.390 -15.411   1.649  1.00  0.00     0.001 A 
HETATM   28  C   UNL     1      42.515 -14.319   1.658  1.00  0.00     0.013 A 
ENDBRANCH   7  22
BRANCH  10  29
HETATM   29  C   UNL     1      42.261 -11.727   3.176  1.00  0.00     0.294 C 
HETATM   30  O   UNL     1      42.629 -10.874   2.377  1.00  0.00    -0.259 OA
BRANCH  29  31
HETATM   31  O   UNL     1      42.986 -12.365   4.098  1.00  0.00    -0.313 OA
BRANCH  31  32
HETATM   32  C   UNL     1      42.410 -12.468   5.408  1.00  0.00     0.217 C 
BRANCH  32  33
HETATM   33  C   UNL     1      42.298 -13.935   5.699  1.00  0.00    -0.034 A 
HETATM   34  C   UNL     1      43.397 -14.780   5.492  1.00  0.00     0.009 A 
HETATM   35  C   UNL     1      43.274 -16.155   5.692  1.00  0.00     0.001 A 
HETATM   36  C   UNL     1      42.054 -16.696   6.093  1.00  0.00     0.000 A 
HETATM   37  C   UNL     1      40.956 -15.864   6.301  1.00  0.00     0.001 A 
HETATM   38  C   UNL     1      41.074 -14.488   6.103  1.00  0.00     0.009 A 
ENDBRANCH  32  33
ENDBRANCH  31  32
ENDBRANCH  29  31
ENDBRANCH  10  29
TORSDOF 10
ENDMDL
MODEL 5
REMARK VINA RESULT:      -8.0      2.577      4.053
REMARK  10 active torsions:
REMARK  status: ('A' for Active; 'I' for Inactive)
REMARK    1  A    between atoms: C_6  and  C_7 
REMARK    2  A    between atoms: C_7  and  C_8 
REMARK       I    between atoms: C_8  and  N_9 
REMARK    3  A    between atoms: N_9  and  C_10 
REMARK    4  A    between atoms: C_10  and  C_11 
REMARK    5  A    between atoms: C_11  and  N_12 
REMARK    6  A    between atoms: C_17  and  C_18 
REMARK    7  A    between atoms: C_27  and  C_28 
REMARK    8  A    between atoms: C_28  and  O_29 
REMARK    9  A    between atoms: O_29  and  C_30 
REMARK   10  A    between atoms: C_30  and  C_31 
ROOT
HETATM    1  C   UNL     1      41.175 -15.683   6.639  1.00  0.00     0.071 C 
HETATM    2  C   UNL     1      40.569 -14.648   5.720  1.00  0.00     0.048 C 
HETATM    3  N   UNL     1      39.765 -13.705   6.374  1.00  0.00    -0.229 NA
HETATM    4  C   UNL     1      39.732 -12.519   5.851  1.00  0.00     0.170 C 
HETATM    5  N   UNL     1      40.347 -12.208   4.448  1.00  0.00    -0.318 N 
HETATM    6  C   UNL     1      41.002 -11.097   4.522  1.00  0.00     0.011 C 
HETATM    7  C   UNL     1      40.185 -13.434   3.651  1.00  0.00     0.169 C 
HETATM    8  S   UNL     1      39.312 -11.065   6.671  1.00  0.00    -0.086 SA
HETATM    9  C   UNL     1      40.531 -10.165   5.634  1.00  0.00     0.135 C 
HETATM   10  C   UNL     1      40.906 -14.497   4.413  1.00  0.00     0.069 C 
ENDROOT
BRANCH   6  11
HETATM   11  C   UNL     1      42.190 -10.807   3.647  1.00  0.00     0.156 C 
BRANCH  11  12
HETATM   12  C   UNL     1      41.791 -10.084   2.370  1.00  0.00     0.223 C 
HETATM   13  N   UNL     1      41.018  -8.963   2.500  1.00  0.00    -0.359 N 
HETATM   14  H   UNL     1      40.739  -8.656   3.435  1.00  0.00     0.162 HD
HETATM   15  O   UNL     1      42.103 -10.520   1.263  1.00  0.00    -0.273 OA
BRANCH  13  16
HETATM   16  C   UNL     1      40.329  -8.322   1.370  1.00  0.00     0.150 C 
BRANCH  16  17
HETATM   17  C   UNL     1      40.615  -6.815   1.141  1.00  0.00     0.253 C 
BRANCH  17  18
HETATM   18  N   UNL     1      41.242  -6.520  -0.209  1.00  0.00    -0.077 N 
HETATM   19  H   UNL     1      41.944  -5.771  -0.054  1.00  0.00     0.279 HD
HETATM   20  C   UNL     1      41.997  -7.676  -0.804  1.00  0.00     0.269 C 
HETATM   21  C   UNL     1      40.244  -5.971  -1.191  1.00  0.00     0.269 C 
ENDBRANCH  17  18
ENDBRANCH  16  17
ENDBRANCH  13  16
ENDBRANCH  11  12
ENDBRANCH   6  11
BRANCH   7  22
HETATM   22  C   UNL     1      40.118 -13.430   2.135  1.00  0.00     0.008 A 
HETATM   23  C   UNL     1      39.384 -12.492   1.396  1.00  0.00     0.125 A 
HETATM   24  F   UNL     1      38.808 -11.454   2.014  1.00  0.00    -0.205 F 
HETATM   25  C   UNL     1      39.156 -12.635   0.029  1.00  0.00     0.043 A 
HETATM   26  C   UNL     1      39.621 -13.762  -0.637  1.00  0.00     0.003 A 
HETATM   27  C   UNL     1      40.325 -14.734   0.067  1.00  0.00     0.001 A 
HETATM   28  C   UNL     1      40.576 -14.569   1.434  1.00  0.00     0.013 A 
ENDBRANCH   7  22
BRANCH  10  29
HETATM   29  C   UNL     1      42.204 -14.949   3.889  1.00  0.00     0.294 C 
HETATM   30  O   UNL     1      43.149 -14.170   3.858  1.00  0.00    -0.259 OA
BRANCH  29  31
HETATM   31  O   UNL     1      42.187 -16.244   3.561  1.00  0.00    -0.313 OA
BRANCH  31  32
HETATM   32  C   UNL     1      43.275 -16.714   2.752  1.00  0.00     0.217 C 
BRANCH  32  33
HETATM   33  C   UNL     1      43.452 -18.163   3.095  1.00  0.00    -0.034 A 
HETATM   34  C   UNL     1      43.938 -18.534   4.356  1.00  0.00     0.009 A 
HETATM   35  C   UNL     1      44.173 -19.877   4.652  1.00  0.00     0.001 A 
HETATM   36  C   UNL     1      43.931 -20.856   3.690  1.00  0.00     0.000 A 
HETATM   37  C   UNL     1      43.448 -20.497   2.434  1.00  0.00     0.001 A 
HETATM   38  C   UNL     1      43.211 -19.155   2.133  1.00  0.00     0.009 A 
ENDBRANCH  32  33
ENDBRANCH  31  32
ENDBRANCH  29  31
ENDBRANCH  10  29
TORSDOF 10
ENDMDL
MODEL 6
REMARK VINA RESULT:      -8.0      2.985      4.870
REMARK  10 active torsions:
REMARK  status: ('A' for Active; 'I' for Inactive)
REMARK    1  A    between atoms: C_6  and  C_7 
REMARK    2  A    between atoms: C_7  and  C_8 
REMARK       I    between atoms: C_8  and  N_9 
REMARK    3  A    between atoms: N_9  and  C_10 
REMARK    4  A    between atoms: C_10  and  C_11 
REMARK    5  A    between atoms: C_11  and  N_12 
REMARK    6  A    between atoms: C_17  and  C_18 
REMARK    7  A    between atoms: C_27  and  C_28 
REMARK    8  A    between atoms: C_28  and  O_29 
REMARK    9  A    between atoms: O_29  and  C_30 
REMARK   10  A    between atoms: C_30  and  C_31 
ROOT
HETATM    1  C   UNL     1      39.443 -14.054   2.436  1.00  0.00     0.071 C 
HETATM    2  C   UNL     1      40.021 -12.870   3.175  1.00  0.00     0.048 C 
HETATM    3  N   UNL     1      39.599 -11.628   2.681  1.00  0.00    -0.229 NA
HETATM    4  C   UNL     1      39.512 -10.667   3.547  1.00  0.00     0.170 C 
HETATM    5  N   UNL     1      40.070 -10.801   5.002  1.00  0.00    -0.318 N 
HETATM    6  C   UNL     1      39.202 -10.311   5.823  1.00  0.00     0.011 C 
HETATM    7  C   UNL     1      41.243 -11.685   4.908  1.00  0.00     0.169 C 
HETATM    8  S   UNL     1      38.549  -9.249   3.390  1.00  0.00    -0.086 SA
HETATM    9  C   UNL     1      38.268  -9.276   5.204  1.00  0.00     0.135 C 
HETATM   10  C   UNL     1      40.727 -12.962   4.331  1.00  0.00     0.069 C 
ENDROOT
BRANCH   6  11
HETATM   11  C   UNL     1      39.070 -10.804   7.238  1.00  0.00     0.156 C 
BRANCH  11  12
HETATM   12  C   UNL     1      39.481  -9.745   8.248  1.00  0.00     0.223 C 
HETATM   13  N   UNL     1      40.691  -9.906   8.868  1.00  0.00    -0.359 N 
HETATM   14  H   UNL     1      41.265 -10.720   8.635  1.00  0.00     0.162 HD
HETATM   15  O   UNL     1      38.734  -8.812   8.537  1.00  0.00    -0.273 OA
BRANCH  13  16
HETATM   16  C   UNL     1      41.101  -9.133  10.050  1.00  0.00     0.150 C 
BRANCH  16  17
HETATM   17  C   UNL     1      40.723  -9.721  11.434  1.00  0.00     0.253 C 
BRANCH  17  18
HETATM   18  N   UNL     1      41.922 -10.206  12.228  1.00  0.00    -0.077 N 
HETATM   19  H   UNL     1      41.690 -11.161  12.564  1.00  0.00     0.279 HD
HETATM   20  C   UNL     1      43.181 -10.349  11.419  1.00  0.00     0.269 C 
HETATM   21  C   UNL     1      42.166  -9.371  13.455  1.00  0.00     0.269 C 
ENDBRANCH  17  18
ENDBRANCH  16  17
ENDBRANCH  13  16
ENDBRANCH  11  12
ENDBRANCH   6  11
BRANCH   7  22
HETATM   22  C   UNL     1      42.383 -11.652   5.909  1.00  0.00     0.008 A 
HETATM   23  C   UNL     1      42.878 -10.470   6.477  1.00  0.00     0.125 A 
HETATM   24  F   UNL     1      42.256  -9.306   6.254  1.00  0.00    -0.205 F 
HETATM   25  C   UNL     1      44.059 -10.437   7.217  1.00  0.00     0.043 A 
HETATM   26  C   UNL     1      44.813 -11.594   7.369  1.00  0.00     0.003 A 
HETATM   27  C   UNL     1      44.374 -12.781   6.792  1.00  0.00     0.001 A 
HETATM   28  C   UNL     1      43.171 -12.813   6.076  1.00  0.00     0.013 A 
ENDBRANCH   7  22
BRANCH  10  29
HETATM   29  C   UNL     1      40.583 -14.110   5.239  1.00  0.00     0.294 C 
HETATM   30  O   UNL     1      39.984 -13.973   6.298  1.00  0.00    -0.259 OA
BRANCH  29  31
HETATM   31  O   UNL     1      41.100 -15.227   4.719  1.00  0.00    -0.313 OA
BRANCH  31  32
HETATM   32  C   UNL     1      42.060 -15.924   5.526  1.00  0.00     0.217 C 
BRANCH  32  33
HETATM   33  C   UNL     1      42.780 -16.860   4.601  1.00  0.00    -0.034 A 
HETATM   34  C   UNL     1      42.454 -16.893   3.238  1.00  0.00     0.009 A 
HETATM   35  C   UNL     1      43.069 -17.813   2.390  1.00  0.00     0.001 A 
HETATM   36  C   UNL     1      44.009 -18.709   2.896  1.00  0.00     0.000 A 
HETATM   37  C   UNL     1      44.340 -18.684   4.249  1.00  0.00     0.001 A 
HETATM   38  C   UNL     1      43.727 -17.765   5.101  1.00  0.00     0.009 A 
ENDBRANCH  32  33
ENDBRANCH  31  32
ENDBRANCH  29  31
ENDBRANCH  10  29
TORSDOF 10
ENDMDL
MODEL 7
REMARK VINA RESULT:      -7.8      4.019      6.962
REMARK  10 active torsions:
REMARK  status: ('A' for Active; 'I' for Inactive)
REMARK    1  A    between atoms: C_6  and  C_7 
REMARK    2  A    between atoms: C_7  and  C_8 
REMARK       I    between atoms: C_8  and  N_9 
REMARK    3  A    between atoms: N_9  and  C_10 
REMARK    4  A    between atoms: C_10  and  C_11 
REMARK    5  A    between atoms: C_11  and  N_12 
REMARK    6  A    between atoms: C_17  and  C_18 
REMARK    7  A    between atoms: C_27  and  C_28 
REMARK    8  A    between atoms: C_28  and  O_29 
REMARK    9  A    between atoms: O_29  and  C_30 
REMARK   10  A    between atoms: C_30  and  C_31 
ROOT
HETATM    1  C   UNL     1      40.802 -12.382  -2.171  1.00  0.00     0.071 C 
HETATM    2  C   UNL     1      41.222 -11.693  -0.893  1.00  0.00     0.048 C 
HETATM    3  N   UNL     1      41.787 -10.426  -1.088  1.00  0.00    -0.229 NA
HETATM    4  C   UNL     1      41.600  -9.563  -0.139  1.00  0.00     0.170 C 
HETATM    5  N   UNL     1      40.994  -9.963   1.246  1.00  0.00    -0.318 N 
HETATM    6  C   UNL     1      40.124  -9.072   1.588  1.00  0.00     0.011 C 
HETATM    7  C   UNL     1      41.437 -11.343   1.501  1.00  0.00     0.169 C 
HETATM    8  S   UNL     1      41.678  -7.851  -0.300  1.00  0.00    -0.086 SA
HETATM    9  C   UNL     1      40.347  -7.702   0.955  1.00  0.00     0.135 C 
HETATM   10  C   UNL     1      40.917 -12.142   0.352  1.00  0.00     0.069 C 
ENDROOT
BRANCH   6  11
HETATM   11  C   UNL     1      38.940  -9.400   2.456  1.00  0.00     0.156 C 
BRANCH  11  12
HETATM   12  C   UNL     1      37.628  -9.008   1.795  1.00  0.00     0.223 C 
HETATM   13  N   UNL     1      36.896 -10.007   1.214  1.00  0.00    -0.359 N 
HETATM   14  H   UNL     1      37.251 -10.965   1.241  1.00  0.00     0.162 HD
HETATM   15  O   UNL     1      37.266  -7.833   1.738  1.00  0.00    -0.273 OA
BRANCH  13  16
HETATM   16  C   UNL     1      35.763  -9.756   0.310  1.00  0.00     0.150 C 
BRANCH  16  17
HETATM   17  C   UNL     1      36.044  -9.877  -1.211  1.00  0.00     0.253 C 
BRANCH  17  18
HETATM   18  N   UNL     1      37.364 -10.555  -1.526  1.00  0.00    -0.077 N 
HETATM   19  H   UNL     1      37.742 -10.904  -0.624  1.00  0.00     0.279 HD
HETATM   20  C   UNL     1      37.243 -11.760  -2.416  1.00  0.00     0.269 C 
HETATM   21  C   UNL     1      38.383  -9.590  -2.068  1.00  0.00     0.269 C 
ENDBRANCH  17  18
ENDBRANCH  16  17
ENDBRANCH  13  16
ENDBRANCH  11  12
ENDBRANCH   6  11
BRANCH   7  22
HETATM   22  C   UNL     1      41.567 -11.922   2.897  1.00  0.00     0.008 A 
HETATM   23  C   UNL     1      42.738 -12.521   3.380  1.00  0.00     0.125 A 
HETATM   24  F   UNL     1      43.861 -12.481   2.653  1.00  0.00    -0.205 F 
HETATM   25  C   UNL     1      42.770 -13.240   4.574  1.00  0.00     0.043 A 
HETATM   26  C   UNL     1      41.602 -13.424   5.303  1.00  0.00     0.003 A 
HETATM   27  C   UNL     1      40.410 -12.874   4.840  1.00  0.00     0.001 A 
HETATM   28  C   UNL     1      40.392 -12.128   3.656  1.00  0.00     0.013 A 
ENDBRANCH   7  22
BRANCH  10  29
HETATM   29  C   UNL     1      39.762 -13.018   0.599  1.00  0.00     0.294 C 
HETATM   30  O   UNL     1      38.654 -12.526   0.770  1.00  0.00    -0.259 OA
BRANCH  29  31
HETATM   31  O   UNL     1      40.093 -14.311   0.535  1.00  0.00    -0.313 OA
BRANCH  31  32
HETATM   32  C   UNL     1      39.763 -15.114   1.677  1.00  0.00     0.217 C 
BRANCH  32  33
HETATM   33  C   UNL     1      41.064 -15.643   2.204  1.00  0.00    -0.034 A 
HETATM   34  C   UNL     1      42.237 -15.507   1.449  1.00  0.00     0.009 A 
HETATM   35  C   UNL     1      43.433 -16.063   1.902  1.00  0.00     0.001 A 
HETATM   36  C   UNL     1      43.466 -16.762   3.107  1.00  0.00     0.000 A 
HETATM   37  C   UNL     1      42.305 -16.902   3.865  1.00  0.00     0.001 A 
HETATM   38  C   UNL     1      41.107 -16.348   3.416  1.00  0.00     0.009 A 
ENDBRANCH  32  33
ENDBRANCH  31  32
ENDBRANCH  29  31
ENDBRANCH  10  29
TORSDOF 10
ENDMDL
MODEL 8
REMARK VINA RESULT:      -7.8      2.577      7.501
REMARK  10 active torsions:
REMARK  status: ('A' for Active; 'I' for Inactive)
REMARK    1  A    between atoms: C_6  and  C_7 
REMARK    2  A    between atoms: C_7  and  C_8 
REMARK       I    between atoms: C_8  and  N_9 
REMARK    3  A    between atoms: N_9  and  C_10 
REMARK    4  A    between atoms: C_10  and  C_11 
REMARK    5  A    between atoms: C_11  and  N_12 
REMARK    6  A    between atoms: C_17  and  C_18 
REMARK    7  A    between atoms: C_27  and  C_28 
REMARK    8  A    between atoms: C_28  and  O_29 
REMARK    9  A    between atoms: O_29  and  C_30 
REMARK   10  A    between atoms: C_30  and  C_31 
ROOT
HETATM    1  C   UNL     1      42.096  -9.237   5.651  1.00  0.00     0.071 C 
HETATM    2  C   UNL     1      41.339 -10.436   5.129  1.00  0.00     0.048 C 
HETATM    3  N   UNL     1      40.038 -10.145   4.698  1.00  0.00    -0.229 NA
HETATM    4  C   UNL     1      39.578 -10.875   3.730  1.00  0.00     0.170 C 
HETATM    5  N   UNL     1      40.319 -12.157   3.227  1.00  0.00    -0.318 N 
HETATM    6  C   UNL     1      40.309 -12.160   1.935  1.00  0.00     0.011 C 
HETATM    7  C   UNL     1      40.990 -12.729   4.406  1.00  0.00     0.169 C 
HETATM    8  S   UNL     1      38.306 -10.442   2.654  1.00  0.00    -0.086 SA
HETATM    9  C   UNL     1      39.167 -11.359   1.316  1.00  0.00     0.135 C 
HETATM   10  C   UNL     1      41.899 -11.652   4.901  1.00  0.00     0.069 C 
ENDROOT
BRANCH   6  11
HETATM   11  C   UNL     1      41.395 -12.814   1.126  1.00  0.00     0.156 C 
BRANCH  11  12
HETATM   12  C   UNL     1      40.829 -13.751   0.072  1.00  0.00     0.223 C 
HETATM   13  N   UNL     1      40.884 -13.335  -1.231  1.00  0.00    -0.359 N 
HETATM   14  H   UNL     1      41.294 -12.423  -1.445  1.00  0.00     0.162 HD
HETATM   15  O   UNL     1      40.295 -14.815   0.381  1.00  0.00    -0.273 OA
BRANCH  13  16
HETATM   16  C   UNL     1      40.142 -13.990  -2.319  1.00  0.00     0.150 C 
BRANCH  16  17
HETATM   17  C   UNL     1      39.052 -13.145  -3.029  1.00  0.00     0.253 C 
BRANCH  17  18
HETATM   18  N   UNL     1      38.824 -11.792  -2.381  1.00  0.00    -0.077 N 
HETATM   19  H   UNL     1      39.387 -11.782  -1.507  1.00  0.00     0.279 HD
HETATM   20  C   UNL     1      39.310 -10.627  -3.198  1.00  0.00     0.269 C 
HETATM   21  C   UNL     1      37.392 -11.594  -1.967  1.00  0.00     0.269 C 
ENDBRANCH  17  18
ENDBRANCH  16  17
ENDBRANCH  13  16
ENDBRANCH  11  12
ENDBRANCH   6  11
BRANCH   7  22
HETATM   22  C   UNL     1      41.340 -14.200   4.523  1.00  0.00     0.008 A 
HETATM   23  C   UNL     1      40.923 -15.012   5.586  1.00  0.00     0.125 A 
HETATM   24  F   UNL     1      40.062 -14.538   6.494  1.00  0.00    -0.205 F 
HETATM   25  C   UNL     1      41.433 -16.293   5.791  1.00  0.00     0.043 A 
HETATM   26  C   UNL     1      42.426 -16.784   4.953  1.00  0.00     0.003 A 
HETATM   27  C   UNL     1      42.892 -15.997   3.905  1.00  0.00     0.001 A 
HETATM   28  C   UNL     1      42.353 -14.723   3.688  1.00  0.00     0.013 A 
ENDBRANCH   7  22
BRANCH  10  29
HETATM   29  C   UNL     1      43.340 -11.808   4.651  1.00  0.00     0.294 C 
HETATM   30  O   UNL     1      43.789 -11.579   3.534  1.00  0.00    -0.259 OA
BRANCH  29  31
HETATM   31  O   UNL     1      44.007 -12.135   5.761  1.00  0.00    -0.313 OA
BRANCH  31  32
HETATM   32  C   UNL     1      45.241 -11.441   5.995  1.00  0.00     0.217 C 
BRANCH  32  33
HETATM   33  C   UNL     1      45.087 -10.754   7.319  1.00  0.00    -0.034 A 
HETATM   34  C   UNL     1      46.005  -9.772   7.714  1.00  0.00     0.009 A 
HETATM   35  C   UNL     1      45.908  -9.184   8.975  1.00  0.00     0.001 A 
HETATM   36  C   UNL     1      44.898  -9.576   9.851  1.00  0.00     0.000 A 
HETATM   37  C   UNL     1      43.980 -10.551   9.467  1.00  0.00     0.001 A 
HETATM   38  C   UNL     1      44.073 -11.142   8.207  1.00  0.00     0.009 A 
ENDBRANCH  32  33
ENDBRANCH  31  32
ENDBRANCH  29  31
ENDBRANCH  10  29
TORSDOF 10
ENDMDL
MODEL 9
REMARK VINA RESULT:      -7.7      3.356      7.749
REMARK  10 active torsions:
REMARK  status: ('A' for Active; 'I' for Inactive)
REMARK    1  A    between atoms: C_6  and  C_7 
REMARK    2  A    between atoms: C_7  and  C_8 
REMARK       I    between atoms: C_8  and  N_9 
REMARK    3  A    between atoms: N_9  and  C_10 
REMARK    4  A    between atoms: C_10  and  C_11 
REMARK    5  A    between atoms: C_11  and  N_12 
REMARK    6  A    between atoms: C_17  and  C_18 
REMARK    7  A    between atoms: C_27  and  C_28 
REMARK    8  A    between atoms: C_28  and  O_29 
REMARK    9  A    between atoms: O_29  and  C_30 
REMARK   10  A    between atoms: C_30  and  C_31 
ROOT
HETATM    1  C   UNL     1      42.919 -15.868   7.570  1.00  0.00     0.071 C 
HETATM    2  C   UNL     1      43.034 -15.511   6.106  1.00  0.00     0.048 C 
HETATM    3  N   UNL     1      43.853 -16.379   5.371  1.00  0.00    -0.229 NA
HETATM    4  C   UNL     1      43.537 -16.547   4.125  1.00  0.00     0.170 C 
HETATM    5  N   UNL     1      42.466 -15.661   3.409  1.00  0.00    -0.318 N 
HETATM    6  C   UNL     1      41.709 -16.426   2.695  1.00  0.00     0.011 C 
HETATM    7  C   UNL     1      42.548 -14.333   4.038  1.00  0.00     0.169 C 
HETATM    8  S   UNL     1      43.972 -17.893   3.144  1.00  0.00    -0.086 SA
HETATM    9  C   UNL     1      42.364 -17.737   2.272  1.00  0.00     0.135 C 
HETATM   10  C   UNL     1      42.278 -14.568   5.488  1.00  0.00     0.069 C 
ENDROOT
BRANCH   6  11
HETATM   11  C   UNL     1      40.274 -16.086   2.401  1.00  0.00     0.156 C 
BRANCH  11  12
HETATM   12  C   UNL     1      40.054 -15.780   0.928  1.00  0.00     0.223 C 
HETATM   13  N   UNL     1      40.763 -14.740   0.391  1.00  0.00    -0.359 N 
HETATM   14  H   UNL     1      41.404 -14.213   0.989  1.00  0.00     0.162 HD
HETATM   15  O   UNL     1      39.232 -16.405   0.260  1.00  0.00    -0.273 OA
BRANCH  13  16
HETATM   16  C   UNL     1      40.463 -14.152  -0.923  1.00  0.00     0.150 C 
BRANCH  16  17
HETATM   17  C   UNL     1      39.145 -13.343  -1.041  1.00  0.00     0.253 C 
BRANCH  17  18
HETATM   18  N   UNL     1      38.092 -14.032  -1.888  1.00  0.00    -0.077 N 
HETATM   19  H   UNL     1      37.500 -14.585  -1.237  1.00  0.00     0.279 HD
HETATM   20  C   UNL     1      37.157 -13.091  -2.597  1.00  0.00     0.269 C 
HETATM   21  C   UNL     1      38.694 -15.015  -2.854  1.00  0.00     0.269 C 
ENDBRANCH  17  18
ENDBRANCH  16  17
ENDBRANCH  13  16
ENDBRANCH  11  12
ENDBRANCH   6  11
BRANCH   7  22
HETATM   22  C   UNL     1      42.125 -13.059   3.333  1.00  0.00     0.008 A 
HETATM   23  C   UNL     1      42.940 -11.923   3.234  1.00  0.00     0.125 A 
HETATM   24  F   UNL     1      44.209 -11.969   3.654  1.00  0.00    -0.205 F 
HETATM   25  C   UNL     1      42.457 -10.696   2.781  1.00  0.00     0.043 A 
HETATM   26  C   UNL     1      41.113 -10.559   2.456  1.00  0.00     0.003 A 
HETATM   27  C   UNL     1      40.263 -11.654   2.572  1.00  0.00     0.001 A 
HETATM   28  C   UNL     1      40.762 -12.890   2.999  1.00  0.00     0.013 A 
ENDBRANCH   7  22
BRANCH  10  29
HETATM   29  C   UNL     1      40.965 -14.161   6.011  1.00  0.00     0.294 C 
HETATM   30  O   UNL     1      40.056 -14.980   6.069  1.00  0.00    -0.259 OA
BRANCH  29  31
HETATM   31  O   UNL     1      40.967 -12.895   6.436  1.00  0.00    -0.313 OA
BRANCH  31  32
HETATM   32  C   UNL     1      39.716 -12.195   6.369  1.00  0.00     0.217 C 
BRANCH  32  33
HETATM   33  C   UNL     1      40.057 -10.761   6.088  1.00  0.00    -0.034 A 
HETATM   34  C   UNL     1      39.090  -9.900   5.551  1.00  0.00     0.009 A 
HETATM   35  C   UNL     1      39.424  -8.587   5.219  1.00  0.00     0.001 A 
HETATM   36  C   UNL     1      40.725  -8.127   5.417  1.00  0.00     0.000 A 
HETATM   37  C   UNL     1      41.692  -8.976   5.950  1.00  0.00     0.001 A 
HETATM   38  C   UNL     1      41.363 -10.289   6.283  1.00  0.00     0.009 A 
ENDBRANCH  32  33
ENDBRANCH  31  32
ENDBRANCH  29  31
ENDBRANCH  10  29
TORSDOF 10
ENDMDL
MODEL 10
REMARK VINA RESULT:      -7.7      4.308      6.663
REMARK  10 active torsions:
REMARK  status: ('A' for Active; 'I' for Inactive)
REMARK    1  A    between atoms: C_6  and  C_7 
REMARK    2  A    between atoms: C_7  and  C_8 
REMARK       I    between atoms: C_8  and  N_9 
REMARK    3  A    between atoms: N_9  and  C_10 
REMARK    4  A    between atoms: C_10  and  C_11 
REMARK    5  A    between atoms: C_11  and  N_12 
REMARK    6  A    between atoms: C_17  and  C_18 
REMARK    7  A    between atoms: C_27  and  C_28 
REMARK    8  A    between atoms: C_28  and  O_29 
REMARK    9  A    between atoms: O_29  and  C_30 
REMARK   10  A    between atoms: C_30  and  C_31 
ROOT
HETATM    1  C   UNL     1      41.180 -12.041  -2.579  1.00  0.00     0.071 C 
HETATM    2  C   UNL     1      41.348 -11.410  -1.217  1.00  0.00     0.048 C 
HETATM    3  N   UNL     1      41.803 -10.085  -1.255  1.00  0.00    -0.229 NA
HETATM    4  C   UNL     1      41.400  -9.313  -0.294  1.00  0.00     0.170 C 
HETATM    5  N   UNL     1      40.654  -9.866   0.964  1.00  0.00    -0.318 N 
HETATM    6  C   UNL     1      39.658  -9.086   1.229  1.00  0.00     0.011 C 
HETATM    7  C   UNL     1      41.196 -11.214   1.200  1.00  0.00     0.169 C 
HETATM    8  S   UNL     1      41.325  -7.594  -0.343  1.00  0.00    -0.086 SA
HETATM    9  C   UNL     1      39.825  -7.660   0.714  1.00  0.00     0.135 C 
HETATM   10  C   UNL     1      40.922 -11.973  -0.057  1.00  0.00     0.069 C 
ENDROOT
BRANCH   6  11
HETATM   11  C   UNL     1      38.406  -9.584   1.896  1.00  0.00     0.156 C 
BRANCH  11  12
HETATM   12  C   UNL     1      38.195  -8.940   3.257  1.00  0.00     0.223 C 
HETATM   13  N   UNL     1      37.024  -8.259   3.454  1.00  0.00    -0.359 N 
HETATM   14  H   UNL     1      36.345  -8.207   2.692  1.00  0.00     0.162 HD
HETATM   15  O   UNL     1      39.064  -8.982   4.127  1.00  0.00    -0.273 OA
BRANCH  13  16
HETATM   16  C   UNL     1      36.795  -7.363   4.597  1.00  0.00     0.150 C 
BRANCH  16  17
HETATM   17  C   UNL     1      35.434  -6.620   4.640  1.00  0.00     0.253 C 
BRANCH  17  18
HETATM   18  N   UNL     1      34.242  -7.555   4.729  1.00  0.00    -0.077 N 
HETATM   19  H   UNL     1      34.620  -8.523   4.699  1.00  0.00     0.279 HD
HETATM   20  C   UNL     1      33.473  -7.454   6.017  1.00  0.00     0.269 C 
HETATM   21  C   UNL     1      33.324  -7.420   3.546  1.00  0.00     0.269 C 
ENDBRANCH  17  18
ENDBRANCH  16  17
ENDBRANCH  13  16
ENDBRANCH  11  12
ENDBRANCH   6  11
BRANCH   7  22
HETATM   22  C   UNL     1      41.190 -11.877   2.564  1.00  0.00     0.008 A 
HETATM   23  C   UNL     1      42.344 -12.371   3.188  1.00  0.00     0.125 A 
HETATM   24  F   UNL     1      43.547 -12.146   2.648  1.00  0.00    -0.205 F 
HETATM   25  C   UNL     1      42.290 -13.168   4.330  1.00  0.00     0.043 A 
HETATM   26  C   UNL     1      41.060 -13.541   4.857  1.00  0.00     0.003 A 
HETATM   27  C   UNL     1      39.890 -13.100   4.247  1.00  0.00     0.001 A 
HETATM   28  C   UNL     1      39.952 -12.274   3.119  1.00  0.00     0.013 A 
ENDBRANCH   7  22
BRANCH  10  29
HETATM   29  C   UNL     1      39.840 -12.968  -0.029  1.00  0.00     0.294 C 
HETATM   30  O   UNL     1      38.673 -12.595  -0.011  1.00  0.00    -0.259 OA
BRANCH  29  31
HETATM   31  O   UNL     1      40.308 -14.218  -0.097  1.00  0.00    -0.313 OA
BRANCH  31  32
HETATM   32  C   UNL     1      39.831 -15.135   0.898  1.00  0.00     0.217 C 
BRANCH  32  33
HETATM   33  C   UNL     1      41.050 -15.653   1.603  1.00  0.00    -0.034 A 
HETATM   34  C   UNL     1      40.916 -16.413   2.773  1.00  0.00     0.009 A 
HETATM   35  C   UNL     1      42.048 -16.834   3.472  1.00  0.00     0.001 A 
HETATM   36  C   UNL     1      43.318 -16.495   3.010  1.00  0.00     0.000 A 
HETATM   37  C   UNL     1      43.461 -15.740   1.847  1.00  0.00     0.001 A 
HETATM   38  C   UNL     1      42.332 -15.317   1.146  1.00  0.00     0.009 A 
ENDBRANCH  32  33
ENDBRANCH  31  32
ENDBRANCH  29  31
ENDBRANCH  10  29
TORSDOF 10
ENDMDL
