MODEL 1
REMARK VINA RESULT:      -9.4      0.000      0.000
REMARK  5 active torsions:
REMARK  status: ('A' for Active; 'I' for Inactive)
REMARK    1  A    between atoms: O_2  and  C_3 
REMARK    2  A    between atoms: C_6  and  N_7 
REMARK    3  A    between atoms: C_11  and  C_12 
REMARK    4  A    between atoms: C_12  and  N_13 
REMARK       I    between atoms: N_13  and  C_14 
REMARK    5  A    between atoms: C_14  and  C_15 
ROOT
HETATM    1  N   UNL     1      43.552 -13.479   5.998  1.00  0.00    -0.360 N 
HETATM    2  C   UNL     1      42.711 -14.496   6.412  1.00  0.00     0.230 C 
HETATM    3  O   UNL     1      42.844 -15.061   7.497  1.00  0.00    -0.272 OA
HETATM    4  H   UNL     1      43.336 -13.006   5.127  1.00  0.00     0.162 HD
ENDROOT
BRANCH   1   5
HETATM    5  C   UNL     1      44.563 -12.917   6.865  1.00  0.00     0.129 C 
BRANCH   5   6
HETATM    6  C   UNL     1      44.397 -11.418   7.079  1.00  0.00     0.031 C 
HETATM    7  C   UNL     1      45.729 -10.684   7.057  1.00  0.00     0.111 C 
HETATM    8  C   UNL     1      45.502  -9.495   7.958  1.00  0.00     0.224 C 
HETATM    9  N   UNL     1      44.372  -9.759   8.746  1.00  0.00    -0.318 N 
HETATM   10  O   UNL     1      46.254  -8.534   7.975  1.00  0.00    -0.273 OA
HETATM   11  C   UNL     1      43.823 -11.062   8.440  1.00  0.00     0.139 C 
BRANCH   9  12
HETATM   12  C   UNL     1      43.862  -8.942   9.794  1.00  0.00     0.037 A 
HETATM   13  C   UNL     1      43.187  -7.743   9.537  1.00  0.00     0.032 A 
HETATM   14  C   UNL     1      42.671  -6.952  10.575  1.00  0.00     0.039 A 
HETATM   15  C   UNL     1      42.815  -7.349  11.900  1.00  0.00     0.068 A 
HETATM   16  C   UNL     1      43.500  -8.531  12.175  1.00  0.00     0.039 A 
HETATM   17  C   UNL     1      44.015  -9.319  11.136  1.00  0.00     0.032 A 
BRANCH  15  18
HETATM   18  O   UNL     1      42.352  -6.681  12.997  1.00  0.00    -0.356 OA
HETATM   19  C   UNL     1      42.999  -6.963  14.232  1.00  0.00     0.210 C 
ENDBRANCH  15  18
ENDBRANCH   9  12
ENDBRANCH   5   6
ENDBRANCH   1   5
BRANCH   2  20
HETATM   20  C   UNL     1      41.609 -14.894   5.416  1.00  0.00     0.149 C 
HETATM   21  C   UNL     1      42.197 -15.588   4.210  1.00  0.00    -0.007 A 
HETATM   22  C   UNL     1      42.108 -14.998   2.947  1.00  0.00     0.083 A 
HETATM   23  C   UNL     1      42.847 -16.827   4.340  1.00  0.00     0.011 A 
HETATM   24  C   UNL     1      42.664 -15.628   1.832  1.00  0.00     0.038 A 
HETATM   25  O   UNL     1      41.489 -13.794   2.715  1.00  0.00    -0.310 OA
HETATM   26  C   UNL     1      43.308 -16.857   1.969  1.00  0.00     0.003 A 
HETATM   27  C   UNL     1      43.398 -17.457   3.223  1.00  0.00     0.001 A 
HETATM   28  C   UNL     1      40.760 -13.224   3.728  1.00  0.00     0.083 A 
HETATM   29  C   UNL     1      40.753 -13.705   5.038  1.00  0.00    -0.007 A 
HETATM   30  C   UNL     1      40.014 -12.094   3.387  1.00  0.00     0.038 A 
HETATM   31  C   UNL     1      39.973 -13.048   6.004  1.00  0.00     0.011 A 
HETATM   32  C   UNL     1      39.225 -11.921   5.661  1.00  0.00     0.001 A 
HETATM   33  C   UNL     1      39.248 -11.443   4.352  1.00  0.00     0.003 A 
ENDBRANCH   2  20
TORSDOF 5
ENDMDL
MODEL 2
REMARK VINA RESULT:      -9.2      4.232      6.437
REMARK  5 active torsions:
REMARK  status: ('A' for Active; 'I' for Inactive)
REMARK    1  A    between atoms: O_2  and  C_3 
REMARK    2  A    between atoms: C_6  and  N_7 
REMARK    3  A    between atoms: C_11  and  C_12 
REMARK    4  A    between atoms: C_12  and  N_13 
REMARK       I    between atoms: N_13  and  C_14 
REMARK    5  A    between atoms: C_14  and  C_15 
ROOT
HETATM    1  N   UNL     1      41.588 -15.851   1.951  1.00  0.00    -0.360 N 
HETATM    2  C   UNL     1      41.647 -16.392   3.223  1.00  0.00     0.230 C 
HETATM    3  O   UNL     1      40.639 -16.614   3.893  1.00  0.00    -0.272 OA
HETATM    4  H   UNL     1      42.453 -15.768   1.427  1.00  0.00     0.162 HD
ENDROOT
BRANCH   1   5
HETATM    5  C   UNL     1      40.333 -15.633   1.267  1.00  0.00     0.129 C 
BRANCH   5   6
HETATM    6  C   UNL     1      39.926 -14.165   1.228  1.00  0.00     0.031 C 
HETATM    7  C   UNL     1      41.031 -13.278   0.674  1.00  0.00     0.111 C 
HETATM    8  C   UNL     1      40.806 -11.951   1.357  1.00  0.00     0.224 C 
HETATM    9  N   UNL     1      39.993 -12.174   2.479  1.00  0.00    -0.318 N 
HETATM   10  O   UNL     1      41.326 -10.918   0.967  1.00  0.00    -0.273 OA
HETATM   11  C   UNL     1      39.660 -13.576   2.604  1.00  0.00     0.139 C 
BRANCH   9  12
HETATM   12  C   UNL     1      39.614 -11.209   3.453  1.00  0.00     0.037 A 
HETATM   13  C   UNL     1      38.668 -10.213   3.181  1.00  0.00     0.032 A 
HETATM   14  C   UNL     1      38.285  -9.276   4.154  1.00  0.00     0.039 A 
HETATM   15  C   UNL     1      38.840  -9.319   5.428  1.00  0.00     0.068 A 
HETATM   16  C   UNL     1      39.796 -10.292   5.710  1.00  0.00     0.039 A 
HETATM   17  C   UNL     1      40.176 -11.227   4.737  1.00  0.00     0.032 A 
BRANCH  15  18
HETATM   18  O   UNL     1      38.547  -8.479   6.464  1.00  0.00    -0.356 OA
HETATM   19  C   UNL     1      39.372  -8.582   7.618  1.00  0.00     0.210 C 
ENDBRANCH  15  18
ENDBRANCH   9  12
ENDBRANCH   5   6
ENDBRANCH   1   5
BRANCH   2  20
HETATM   20  C   UNL     1      43.060 -16.676   3.759  1.00  0.00     0.149 C 
HETATM   21  C   UNL     1      43.386 -18.148   3.670  1.00  0.00    -0.007 A 
HETATM   22  C   UNL     1      43.587 -18.895   4.833  1.00  0.00     0.083 A 
HETATM   23  C   UNL     1      43.481 -18.789   2.423  1.00  0.00     0.011 A 
HETATM   24  C   UNL     1      43.872 -20.260   4.757  1.00  0.00     0.038 A 
HETATM   25  O   UNL     1      43.521 -18.362   6.097  1.00  0.00    -0.310 OA
HETATM   26  C   UNL     1      43.965 -20.888   3.515  1.00  0.00     0.003 A 
HETATM   27  C   UNL     1      43.770 -20.152   2.349  1.00  0.00     0.001 A 
HETATM   28  C   UNL     1      43.438 -16.998   6.232  1.00  0.00     0.083 A 
HETATM   29  C   UNL     1      43.237 -16.128   5.159  1.00  0.00    -0.007 A 
HETATM   30  C   UNL     1      43.548 -16.502   7.532  1.00  0.00     0.038 A 
HETATM   31  C   UNL     1      43.165 -14.747   5.402  1.00  0.00     0.011 A 
HETATM   32  C   UNL     1      43.278 -14.252   6.702  1.00  0.00     0.001 A 
HETATM   33  C   UNL     1      43.467 -15.130   7.768  1.00  0.00     0.003 A 
ENDBRANCH   2  20
TORSDOF 5
ENDMDL
MODEL 3
REMARK VINA RESULT:      -9.2      5.265      8.703
REMARK  5 active torsions:
REMARK  status: ('A' for Active; 'I' for Inactive)
REMARK    1  A    between atoms: O_2  and  C_3 
REMARK    2  A    between atoms: C_6  and  N_7 
REMARK    3  A    between atoms: C_11  and  C_12 
REMARK    4  A    between atoms: C_12  and  N_13 
REMARK       I    between atoms: N_13  and  C_14 
REMARK    5  A    between atoms: C_14  and  C_15 
ROOT
HETATM    1  N   UNL     1      41.195 -15.544   1.295  1.00  0.00    -0.360 N 
HETATM    2  C   UNL     1      41.389 -15.853   2.629  1.00  0.00     0.230 C 
HETATM    3  O   UNL     1      40.454 -16.074   3.398  1.00  0.00    -0.272 OA
HETATM    4  H   UNL     1      42.014 -15.451   0.703  1.00  0.00     0.162 HD
ENDROOT
BRANCH   1   5
HETATM    5  C   UNL     1      39.888 -15.589   0.678  1.00  0.00     0.129 C 
BRANCH   5   6
HETATM    6  C   UNL     1      39.604 -14.377  -0.200  1.00  0.00     0.031 C 
HETATM    7  C   UNL     1      40.001 -14.613  -1.650  1.00  0.00     0.111 C 
HETATM    8  C   UNL     1      40.356 -13.237  -2.156  1.00  0.00     0.224 C 
HETATM    9  N   UNL     1      40.582 -12.412  -1.045  1.00  0.00    -0.318 N 
HETATM   10  O   UNL     1      40.463 -12.985  -3.346  1.00  0.00    -0.273 OA
HETATM   11  C   UNL     1      40.410 -13.148   0.188  1.00  0.00     0.139 C 
BRANCH   9  12
HETATM   12  C   UNL     1      41.030 -11.061  -1.071  1.00  0.00     0.037 A 
HETATM   13  C   UNL     1      41.168 -10.349  -2.269  1.00  0.00     0.032 A 
HETATM   14  C   UNL     1      41.593  -9.011  -2.285  1.00  0.00     0.039 A 
HETATM   15  C   UNL     1      41.885  -8.352  -1.096  1.00  0.00     0.068 A 
HETATM   16  C   UNL     1      41.770  -9.051   0.104  1.00  0.00     0.039 A 
HETATM   17  C   UNL     1      41.346 -10.387   0.117  1.00  0.00     0.032 A 
BRANCH  15  18
HETATM   18  O   UNL     1      42.294  -7.055  -0.973  1.00  0.00    -0.356 OA
HETATM   19  C   UNL     1      43.510  -6.708  -1.624  1.00  0.00     0.210 C 
ENDBRANCH  15  18
ENDBRANCH   9  12
ENDBRANCH   5   6
ENDBRANCH   1   5
BRANCH   2  20
HETATM   20  C   UNL     1      42.853 -15.879   3.099  1.00  0.00     0.149 C 
HETATM   21  C   UNL     1      43.300 -17.291   3.397  1.00  0.00    -0.007 A 
HETATM   22  C   UNL     1      43.641 -17.660   4.700  1.00  0.00     0.083 A 
HETATM   23  C   UNL     1      43.371 -18.252   2.374  1.00  0.00     0.011 A 
HETATM   24  C   UNL     1      44.039 -18.968   4.983  1.00  0.00     0.038 A 
HETATM   25  O   UNL     1      43.610 -16.794   5.766  1.00  0.00    -0.310 OA
HETATM   26  C   UNL     1      44.107 -19.916   3.962  1.00  0.00     0.003 A 
HETATM   27  C   UNL     1      43.773 -19.557   2.658  1.00  0.00     0.001 A 
HETATM   28  C   UNL     1      43.416 -15.458   5.521  1.00  0.00     0.083 A 
HETATM   29  C   UNL     1      43.072 -14.944   4.270  1.00  0.00    -0.007 A 
HETATM   30  C   UNL     1      43.565 -14.605   6.617  1.00  0.00     0.038 A 
HETATM   31  C   UNL     1      42.894 -13.559   4.123  1.00  0.00     0.011 A 
HETATM   32  C   UNL     1      43.047 -12.708   5.218  1.00  0.00     0.001 A 
HETATM   33  C   UNL     1      43.380 -13.231   6.466  1.00  0.00     0.003 A 
ENDBRANCH   2  20
TORSDOF 5
ENDMDL
MODEL 4
REMARK VINA RESULT:      -8.8      2.040      3.425
REMARK  5 active torsions:
REMARK  status: ('A' for Active; 'I' for Inactive)
REMARK    1  A    between atoms: O_2  and  C_3 
REMARK    2  A    between atoms: C_6  and  N_7 
REMARK    3  A    between atoms: C_11  and  C_12 
REMARK    4  A    between atoms: C_12  and  N_13 
REMARK       I    between atoms: N_13  and  C_14 
REMARK    5  A    between atoms: C_14  and  C_15 
ROOT
HETATM    1  N   UNL     1      42.390 -11.435   5.453  1.00  0.00    -0.360 N 
HETATM    2  C   UNL     1      41.733 -12.648   5.351  1.00  0.00     0.230 C 
HETATM    3  O   UNL     1      40.666 -12.870   5.923  1.00  0.00    -0.272 OA
HETATM    4  H   UNL     1      43.224 -11.295   4.892  1.00  0.00     0.162 HD
ENDROOT
BRANCH   1   5
HETATM    5  C   UNL     1      41.804 -10.298   6.128  1.00  0.00     0.129 C 
BRANCH   5   6
HETATM    6  C   UNL     1      42.670  -9.773   7.266  1.00  0.00     0.031 C 
HETATM    7  C   UNL     1      43.765 -10.756   7.653  1.00  0.00     0.111 C 
HETATM    8  C   UNL     1      43.996 -10.481   9.119  1.00  0.00     0.224 C 
HETATM    9  N   UNL     1      42.884  -9.781   9.608  1.00  0.00    -0.318 N 
HETATM   10  O   UNL     1      44.984 -10.884   9.712  1.00  0.00    -0.273 OA
HETATM   11  C   UNL     1      41.906  -9.571   8.564  1.00  0.00     0.139 C 
BRANCH   9  12
HETATM   12  C   UNL     1      42.649  -9.404  10.960  1.00  0.00     0.037 A 
HETATM   13  C   UNL     1      41.581  -9.925  11.701  1.00  0.00     0.032 A 
HETATM   14  C   UNL     1      41.368  -9.562  13.040  1.00  0.00     0.039 A 
HETATM   15  C   UNL     1      42.227  -8.670  13.672  1.00  0.00     0.068 A 
HETATM   16  C   UNL     1      43.284  -8.128  12.944  1.00  0.00     0.039 A 
HETATM   17  C   UNL     1      43.495  -8.492  11.608  1.00  0.00     0.032 A 
BRANCH  15  18
HETATM   18  O   UNL     1      42.139  -8.246  14.967  1.00  0.00    -0.356 OA
HETATM   19  C   UNL     1      42.526  -6.901  15.222  1.00  0.00     0.210 C 
ENDBRANCH  15  18
ENDBRANCH   9  12
ENDBRANCH   5   6
ENDBRANCH   1   5
BRANCH   2  20
HETATM   20  C   UNL     1      42.436 -13.714   4.495  1.00  0.00     0.149 C 
HETATM   21  C   UNL     1      41.603 -14.074   3.288  1.00  0.00    -0.007 A 
HETATM   22  C   UNL     1      41.079 -15.362   3.153  1.00  0.00     0.083 A 
HETATM   23  C   UNL     1      41.334 -13.120   2.290  1.00  0.00     0.011 A 
HETATM   24  C   UNL     1      40.294 -15.694   2.047  1.00  0.00     0.038 A 
HETATM   25  O   UNL     1      41.289 -16.364   4.068  1.00  0.00    -0.310 OA
HETATM   26  C   UNL     1      40.032 -14.742   1.062  1.00  0.00     0.003 A 
HETATM   27  C   UNL     1      40.553 -13.456   1.184  1.00  0.00     0.001 A 
HETATM   28  C   UNL     1      42.204 -16.159   5.070  1.00  0.00     0.083 A 
HETATM   29  C   UNL     1      42.808 -14.926   5.322  1.00  0.00    -0.007 A 
HETATM   30  C   UNL     1      42.504 -17.267   5.865  1.00  0.00     0.038 A 
HETATM   31  C   UNL     1      43.733 -14.819   6.374  1.00  0.00     0.011 A 
HETATM   32  C   UNL     1      44.033 -15.928   7.165  1.00  0.00     0.001 A 
HETATM   33  C   UNL     1      43.417 -17.152   6.912  1.00  0.00     0.003 A 
ENDBRANCH   2  20
TORSDOF 5
ENDMDL
MODEL 5
REMARK VINA RESULT:      -8.7      2.378      9.667
REMARK  5 active torsions:
REMARK  status: ('A' for Active; 'I' for Inactive)
REMARK    1  A    between atoms: O_2  and  C_3 
REMARK    2  A    between atoms: C_6  and  N_7 
REMARK    3  A    between atoms: C_11  and  C_12 
REMARK    4  A    between atoms: C_12  and  N_13 
REMARK       I    between atoms: N_13  and  C_14 
REMARK    5  A    between atoms: C_14  and  C_15 
ROOT
HETATM    1  N   UNL     1      41.047 -11.186   6.444  1.00  0.00    -0.360 N 
HETATM    2  C   UNL     1      41.695  -9.977   6.624  1.00  0.00     0.230 C 
HETATM    3  O   UNL     1      41.823  -9.156   5.716  1.00  0.00    -0.272 OA
HETATM    4  H   UNL     1      40.911 -11.779   7.256  1.00  0.00     0.162 HD
ENDROOT
BRANCH   1   5
HETATM    5  C   UNL     1      40.357 -11.513   5.217  1.00  0.00     0.129 C 
BRANCH   5   6
HETATM    6  C   UNL     1      40.137 -13.010   5.041  1.00  0.00     0.031 C 
HETATM    7  C   UNL     1      39.976 -13.726   6.373  1.00  0.00     0.111 C 
HETATM    8  C   UNL     1      40.499 -15.116   6.102  1.00  0.00     0.224 C 
HETATM    9  N   UNL     1      41.275 -15.066   4.934  1.00  0.00    -0.318 N 
HETATM   10  O   UNL     1      40.284 -16.054   6.854  1.00  0.00    -0.273 OA
HETATM   11  C   UNL     1      41.316 -13.723   4.400  1.00  0.00     0.139 C 
BRANCH   9  12
HETATM   12  C   UNL     1      42.028 -16.135   4.373  1.00  0.00     0.037 A 
HETATM   13  C   UNL     1      42.966 -16.855   5.123  1.00  0.00     0.032 A 
HETATM   14  C   UNL     1      43.692 -17.920   4.567  1.00  0.00     0.039 A 
HETATM   15  C   UNL     1      43.489 -18.293   3.243  1.00  0.00     0.068 A 
HETATM   16  C   UNL     1      42.573 -17.576   2.477  1.00  0.00     0.039 A 
HETATM   17  C   UNL     1      41.849 -16.513   3.035  1.00  0.00     0.032 A 
BRANCH  15  18
HETATM   18  O   UNL     1      44.118 -19.313   2.588  1.00  0.00    -0.356 OA
HETATM   19  C   UNL     1      43.842 -20.630   3.051  1.00  0.00     0.210 C 
ENDBRANCH  15  18
ENDBRANCH   9  12
ENDBRANCH   5   6
ENDBRANCH   1   5
BRANCH   2  20
HETATM   20  C   UNL     1      42.271  -9.734   8.029  1.00  0.00     0.149 C 
HETATM   21  C   UNL     1      41.766  -8.431   8.602  1.00  0.00    -0.007 A 
HETATM   22  C   UNL     1      42.654  -7.383   8.854  1.00  0.00     0.083 A 
HETATM   23  C   UNL     1      40.400  -8.250   8.880  1.00  0.00     0.011 A 
HETATM   24  C   UNL     1      42.190  -6.171   9.368  1.00  0.00     0.038 A 
HETATM   25  O   UNL     1      44.006  -7.462   8.622  1.00  0.00    -0.310 OA
HETATM   26  C   UNL     1      40.833  -5.999   9.641  1.00  0.00     0.003 A 
HETATM   27  C   UNL     1      39.939  -7.039   9.397  1.00  0.00     0.001 A 
HETATM   28  C   UNL     1      44.547  -8.683   8.303  1.00  0.00     0.083 A 
HETATM   29  C   UNL     1      43.783  -9.817   8.025  1.00  0.00    -0.007 A 
HETATM   30  C   UNL     1      45.941  -8.741   8.248  1.00  0.00     0.038 A 
HETATM   31  C   UNL     1      44.433 -11.020   7.707  1.00  0.00     0.011 A 
HETATM   32  C   UNL     1      45.826 -11.077   7.656  1.00  0.00     0.001 A 
HETATM   33  C   UNL     1      46.581  -9.936   7.924  1.00  0.00     0.003 A 
ENDBRANCH   2  20
TORSDOF 5
ENDMDL
MODEL 6
REMARK VINA RESULT:      -8.7      2.688      9.193
REMARK  5 active torsions:
REMARK  status: ('A' for Active; 'I' for Inactive)
REMARK    1  A    between atoms: O_2  and  C_3 
REMARK    2  A    between atoms: C_6  and  N_7 
REMARK    3  A    between atoms: C_11  and  C_12 
REMARK    4  A    between atoms: C_12  and  N_13 
REMARK       I    between atoms: N_13  and  C_14 
REMARK    5  A    between atoms: C_14  and  C_15 
ROOT
HETATM    1  N   UNL     1      41.618 -10.816   7.086  1.00  0.00    -0.360 N 
HETATM    2  C   UNL     1      41.833  -9.492   6.749  1.00  0.00     0.230 C 
HETATM    3  O   UNL     1      41.774  -9.090   5.587  1.00  0.00    -0.272 OA
HETATM    4  H   UNL     1      41.605 -11.061   8.071  1.00  0.00     0.162 HD
ENDROOT
BRANCH   1   5
HETATM    5  C   UNL     1      41.179 -11.795   6.117  1.00  0.00     0.129 C 
BRANCH   5   6
HETATM    6  C   UNL     1      42.332 -12.559   5.480  1.00  0.00     0.031 C 
HETATM    7  C   UNL     1      42.515 -12.202   4.012  1.00  0.00     0.111 C 
HETATM    8  C   UNL     1      43.093 -13.457   3.405  1.00  0.00     0.224 C 
HETATM    9  N   UNL     1      42.841 -14.520   4.285  1.00  0.00    -0.318 N 
HETATM   10  O   UNL     1      43.622 -13.467   2.305  1.00  0.00    -0.273 OA
HETATM   11  C   UNL     1      42.119 -14.063   5.452  1.00  0.00     0.139 C 
BRANCH   9  12
HETATM   12  C   UNL     1      43.136 -15.893   4.059  1.00  0.00     0.037 A 
HETATM   13  C   UNL     1      43.904 -16.645   4.957  1.00  0.00     0.032 A 
HETATM   14  C   UNL     1      44.174 -18.004   4.735  1.00  0.00     0.039 A 
HETATM   15  C   UNL     1      43.675 -18.646   3.607  1.00  0.00     0.068 A 
HETATM   16  C   UNL     1      42.925 -17.908   2.693  1.00  0.00     0.039 A 
HETATM   17  C   UNL     1      42.656 -16.551   2.917  1.00  0.00     0.032 A 
BRANCH  15  18
HETATM   18  O   UNL     1      43.854 -19.960   3.281  1.00  0.00    -0.356 OA
HETATM   19  C   UNL     1      43.683 -20.303   1.911  1.00  0.00     0.210 C 
ENDBRANCH  15  18
ENDBRANCH   9  12
ENDBRANCH   5   6
ENDBRANCH   1   5
BRANCH   2  20
HETATM   20  C   UNL     1      42.175  -8.555   7.919  1.00  0.00     0.149 C 
HETATM   21  C   UNL     1      43.302  -9.119   8.751  1.00  0.00    -0.007 A 
HETATM   22  C   UNL     1      43.076  -9.495  10.077  1.00  0.00     0.083 A 
HETATM   23  C   UNL     1      44.587  -9.282   8.204  1.00  0.00     0.011 A 
HETATM   24  C   UNL     1      44.111 -10.033  10.845  1.00  0.00     0.038 A 
HETATM   25  O   UNL     1      41.861  -9.371  10.703  1.00  0.00    -0.310 OA
HETATM   26  C   UNL     1      45.383 -10.192  10.295  1.00  0.00     0.003 A 
HETATM   27  C   UNL     1      45.620  -9.815   8.975  1.00  0.00     0.001 A 
HETATM   28  C   UNL     1      40.862  -8.675  10.068  1.00  0.00     0.083 A 
HETATM   29  C   UNL     1      40.948  -8.236   8.746  1.00  0.00    -0.007 A 
HETATM   30  C   UNL     1      39.710  -8.432  10.819  1.00  0.00     0.038 A 
HETATM   31  C   UNL     1      39.870  -7.533   8.186  1.00  0.00     0.011 A 
HETATM   32  C   UNL     1      38.720  -7.288   8.939  1.00  0.00     0.001 A 
HETATM   33  C   UNL     1      38.640  -7.739  10.255  1.00  0.00     0.003 A 
ENDBRANCH   2  20
TORSDOF 5
ENDMDL
MODEL 7
REMARK VINA RESULT:      -8.7      5.329      9.914
REMARK  5 active torsions:
REMARK  status: ('A' for Active; 'I' for Inactive)
REMARK    1  A    between atoms: O_2  and  C_3 
REMARK    2  A    between atoms: C_6  and  N_7 
REMARK    3  A    between atoms: C_11  and  C_12 
REMARK    4  A    between atoms: C_12  and  N_13 
REMARK       I    between atoms: N_13  and  C_14 
REMARK    5  A    between atoms: C_14  and  C_15 
ROOT
HETATM    1  N   UNL     1      39.966 -14.983   0.671  1.00  0.00    -0.360 N 
HETATM    2  C   UNL     1      41.089 -14.931   1.477  1.00  0.00     0.230 C 
HETATM    3  O   UNL     1      42.138 -14.401   1.113  1.00  0.00    -0.272 OA
HETATM    4  H   UNL     1      39.113 -15.366   1.065  1.00  0.00     0.162 HD
ENDROOT
BRANCH   1   5
HETATM    5  C   UNL     1      39.903 -14.301  -0.603  1.00  0.00     0.129 C 
BRANCH   5   6
HETATM    6  C   UNL     1      39.855 -12.785  -0.463  1.00  0.00     0.031 C 
HETATM    7  C   UNL     1      38.529 -12.207  -0.937  1.00  0.00     0.111 C 
HETATM    8  C   UNL     1      38.891 -10.824  -1.419  1.00  0.00     0.224 C 
HETATM    9  N   UNL     1      40.277 -10.787  -1.629  1.00  0.00    -0.318 N 
HETATM   10  O   UNL     1      38.050  -9.961  -1.622  1.00  0.00    -0.273 OA
HETATM   11  C   UNL     1      40.879 -12.066  -1.325  1.00  0.00     0.139 C 
BRANCH   9  12
HETATM   12  C   UNL     1      41.021  -9.702  -2.171  1.00  0.00     0.037 A 
HETATM   13  C   UNL     1      41.977  -9.009  -1.418  1.00  0.00     0.032 A 
HETATM   14  C   UNL     1      42.721  -7.951  -1.966  1.00  0.00     0.039 A 
HETATM   15  C   UNL     1      42.526  -7.566  -3.288  1.00  0.00     0.068 A 
HETATM   16  C   UNL     1      41.566  -8.233  -4.046  1.00  0.00     0.039 A 
HETATM   17  C   UNL     1      40.825  -9.288  -3.497  1.00  0.00     0.032 A 
BRANCH  15  18
HETATM   18  O   UNL     1      43.189  -6.568  -3.942  1.00  0.00    -0.356 OA
HETATM   19  C   UNL     1      42.896  -6.413  -5.326  1.00  0.00     0.210 C 
ENDBRANCH  15  18
ENDBRANCH   9  12
ENDBRANCH   5   6
ENDBRANCH   1   5
BRANCH   2  20
HETATM   20  C   UNL     1      40.951 -15.603   2.853  1.00  0.00     0.149 C 
HETATM   21  C   UNL     1      40.904 -14.573   3.956  1.00  0.00    -0.007 A 
HETATM   22  C   UNL     1      41.928 -14.511   4.903  1.00  0.00     0.083 A 
HETATM   23  C   UNL     1      39.840 -13.659   4.040  1.00  0.00     0.011 A 
HETATM   24  C   UNL     1      41.898 -13.549   5.915  1.00  0.00     0.038 A 
HETATM   25  O   UNL     1      43.006 -15.361   4.911  1.00  0.00    -0.310 OA
HETATM   26  C   UNL     1      40.838 -12.645   5.991  1.00  0.00     0.003 A 
HETATM   27  C   UNL     1      39.810 -12.701   5.054  1.00  0.00     0.001 A 
HETATM   28  C   UNL     1      42.996 -16.443   4.066  1.00  0.00     0.083 A 
HETATM   29  C   UNL     1      42.036 -16.636   3.072  1.00  0.00    -0.007 A 
HETATM   30  C   UNL     1      44.031 -17.365   4.237  1.00  0.00     0.038 A 
HETATM   31  C   UNL     1      42.114 -17.777   2.257  1.00  0.00     0.011 A 
HETATM   32  C   UNL     1      43.146 -18.700   2.431  1.00  0.00     0.001 A 
HETATM   33  C   UNL     1      44.106 -18.492   3.420  1.00  0.00     0.003 A 
ENDBRANCH   2  20
TORSDOF 5
ENDMDL
MODEL 8
REMARK VINA RESULT:      -8.6      2.820      8.862
REMARK  5 active torsions:
REMARK  status: ('A' for Active; 'I' for Inactive)
REMARK    1  A    between atoms: O_2  and  C_3 
REMARK    2  A    between atoms: C_6  and  N_7 
REMARK    3  A    between atoms: C_11  and  C_12 
REMARK    4  A    between atoms: C_12  and  N_13 
REMARK       I    between atoms: N_13  and  C_14 
REMARK    5  A    between atoms: C_14  and  C_15 
ROOT
HETATM    1  N   UNL     1      42.017 -13.417   6.495  1.00  0.00    -0.360 N 
HETATM    2  C   UNL     1      43.375 -13.179   6.380  1.00  0.00     0.230 C 
HETATM    3  O   UNL     1      44.215 -14.066   6.526  1.00  0.00    -0.272 OA
HETATM    4  H   UNL     1      41.380 -12.656   6.285  1.00  0.00     0.162 HD
ENDROOT
BRANCH   1   5
HETATM    5  C   UNL     1      41.483 -14.750   6.663  1.00  0.00     0.129 C 
BRANCH   5   6
HETATM    6  C   UNL     1      40.832 -15.292   5.396  1.00  0.00     0.031 C 
HETATM    7  C   UNL     1      41.735 -16.272   4.662  1.00  0.00     0.111 C 
HETATM    8  C   UNL     1      41.331 -16.122   3.216  1.00  0.00     0.224 C 
HETATM    9  N   UNL     1      40.639 -14.909   3.084  1.00  0.00    -0.318 N 
HETATM   10  O   UNL     1      41.644 -16.935   2.361  1.00  0.00    -0.273 OA
HETATM   11  C   UNL     1      40.555 -14.221   4.354  1.00  0.00     0.139 C 
BRANCH   9  12
HETATM   12  C   UNL     1      40.163 -14.334   1.872  1.00  0.00     0.037 A 
HETATM   13  C   UNL     1      39.578 -13.063   1.834  1.00  0.00     0.032 A 
HETATM   14  C   UNL     1      39.127 -12.496   0.631  1.00  0.00     0.039 A 
HETATM   15  C   UNL     1      39.257 -13.191  -0.566  1.00  0.00     0.068 A 
HETATM   16  C   UNL     1      39.820 -14.465  -0.544  1.00  0.00     0.039 A 
HETATM   17  C   UNL     1      40.269 -15.029   0.659  1.00  0.00     0.032 A 
BRANCH  15  18
HETATM   18  O   UNL     1      38.873 -12.750  -1.800  1.00  0.00    -0.356 OA
HETATM   19  C   UNL     1      38.048 -13.627  -2.558  1.00  0.00     0.210 C 
ENDBRANCH  15  18
ENDBRANCH   9  12
ENDBRANCH   5   6
ENDBRANCH   1   5
BRANCH   2  20
HETATM   20  C   UNL     1      43.771 -11.723   6.081  1.00  0.00     0.149 C 
HETATM   21  C   UNL     1      43.575 -10.849   7.297  1.00  0.00    -0.007 A 
HETATM   22  C   UNL     1      42.626  -9.825   7.280  1.00  0.00     0.083 A 
HETATM   23  C   UNL     1      44.333 -11.059   8.462  1.00  0.00     0.011 A 
HETATM   24  C   UNL     1      42.429  -9.025   8.408  1.00  0.00     0.038 A 
HETATM   25  O   UNL     1      41.841  -9.537   6.191  1.00  0.00    -0.310 OA
HETATM   26  C   UNL     1      43.186  -9.239   9.560  1.00  0.00     0.003 A 
HETATM   27  C   UNL     1      44.138 -10.256   9.586  1.00  0.00     0.001 A 
HETATM   28  C   UNL     1      42.119 -10.155   4.998  1.00  0.00     0.083 A 
HETATM   29  C   UNL     1      43.043 -11.194   4.864  1.00  0.00    -0.007 A 
HETATM   30  C   UNL     1      41.405  -9.699   3.888  1.00  0.00     0.038 A 
HETATM   31  C   UNL     1      43.255 -11.762   3.598  1.00  0.00     0.011 A 
HETATM   32  C   UNL     1      42.542 -11.303   2.490  1.00  0.00     0.001 A 
HETATM   33  C   UNL     1      41.615 -10.273   2.635  1.00  0.00     0.003 A 
ENDBRANCH   2  20
TORSDOF 5
ENDMDL
MODEL 9
REMARK VINA RESULT:      -8.6      5.317     10.666
REMARK  5 active torsions:
REMARK  status: ('A' for Active; 'I' for Inactive)
REMARK    1  A    between atoms: O_2  and  C_3 
REMARK    2  A    between atoms: C_6  and  N_7 
REMARK    3  A    between atoms: C_11  and  C_12 
REMARK    4  A    between atoms: C_12  and  N_13 
REMARK       I    between atoms: N_13  and  C_14 
REMARK    5  A    between atoms: C_14  and  C_15 
ROOT
HETATM    1  N   UNL     1      41.148 -14.801   1.459  1.00  0.00    -0.360 N 
HETATM    2  C   UNL     1      42.288 -15.115   2.175  1.00  0.00     0.230 C 
HETATM    3  O   UNL     1      43.406 -14.726   1.839  1.00  0.00    -0.272 OA
HETATM    4  H   UNL     1      40.251 -15.090   1.837  1.00  0.00     0.162 HD
ENDROOT
BRANCH   1   5
HETATM    5  C   UNL     1      41.171 -13.883   0.342  1.00  0.00     0.129 C 
BRANCH   5   6
HETATM    6  C   UNL     1      39.781 -13.575  -0.202  1.00  0.00     0.031 C 
HETATM    7  C   UNL     1      39.388 -14.512  -1.335  1.00  0.00     0.111 C 
HETATM    8  C   UNL     1      38.455 -13.683  -2.183  1.00  0.00     0.224 C 
HETATM    9  N   UNL     1      38.653 -12.334  -1.851  1.00  0.00    -0.318 N 
HETATM   10  O   UNL     1      37.728 -14.177  -3.030  1.00  0.00    -0.273 OA
HETATM   11  C   UNL     1      39.671 -12.197  -0.833  1.00  0.00     0.139 C 
BRANCH   9  12
HETATM   12  C   UNL     1      38.043 -11.211  -2.478  1.00  0.00     0.037 A 
HETATM   13  C   UNL     1      36.730 -10.822  -2.187  1.00  0.00     0.032 A 
HETATM   14  C   UNL     1      36.142  -9.702  -2.796  1.00  0.00     0.039 A 
HETATM   15  C   UNL     1      36.862  -8.940  -3.710  1.00  0.00     0.068 A 
HETATM   16  C   UNL     1      38.164  -9.324  -4.025  1.00  0.00     0.039 A 
HETATM   17  C   UNL     1      38.748 -10.443  -3.415  1.00  0.00     0.032 A 
BRANCH  15  18
HETATM   18  O   UNL     1      36.414  -7.826  -4.360  1.00  0.00    -0.356 OA
HETATM   19  C   UNL     1      37.276  -7.281  -5.352  1.00  0.00     0.210 C 
ENDBRANCH  15  18
ENDBRANCH   9  12
ENDBRANCH   5   6
ENDBRANCH   1   5
BRANCH   2  20
HETATM   20  C   UNL     1      42.073 -16.007   3.409  1.00  0.00     0.149 C 
HETATM   21  C   UNL     1      42.480 -15.288   4.673  1.00  0.00    -0.007 A 
HETATM   22  C   UNL     1      43.555 -15.755   5.432  1.00  0.00     0.083 A 
HETATM   23  C   UNL     1      41.792 -14.139   5.099  1.00  0.00     0.011 A 
HETATM   24  C   UNL     1      43.946 -15.083   6.593  1.00  0.00     0.038 A 
HETATM   25  O   UNL     1      44.287 -16.870   5.105  1.00  0.00    -0.310 OA
HETATM   26  C   UNL     1      43.258 -13.944   7.008  1.00  0.00     0.003 A 
HETATM   27  C   UNL     1      42.181 -13.472   6.261  1.00  0.00     0.001 A 
HETATM   28  C   UNL     1      43.835 -17.677   4.091  1.00  0.00     0.083 A 
HETATM   29  C   UNL     1      42.771 -17.341   3.252  1.00  0.00    -0.007 A 
HETATM   30  C   UNL     1      44.518 -18.883   3.915  1.00  0.00     0.038 A 
HETATM   31  C   UNL     1      42.386 -18.237   2.242  1.00  0.00     0.011 A 
HETATM   32  C   UNL     1      43.067 -19.442   2.070  1.00  0.00     0.001 A 
HETATM   33  C   UNL     1      44.135 -19.764   2.905  1.00  0.00     0.003 A 
ENDBRANCH   2  20
TORSDOF 5
ENDMDL
MODEL 10
REMARK VINA RESULT:      -8.5      4.084      6.767
REMARK  5 active torsions:
REMARK  status: ('A' for Active; 'I' for Inactive)
REMARK    1  A    between atoms: O_2  and  C_3 
REMARK    2  A    between atoms: C_6  and  N_7 
REMARK    3  A    between atoms: C_11  and  C_12 
REMARK    4  A    between atoms: C_12  and  N_13 
REMARK       I    between atoms: N_13  and  C_14 
REMARK    5  A    between atoms: C_14  and  C_15 
ROOT
HETATM    1  N   UNL     1      40.534 -15.288   1.324  1.00  0.00    -0.360 N 
HETATM    2  C   UNL     1      41.758 -15.511   1.929  1.00  0.00     0.230 C 
HETATM    3  O   UNL     1      42.814 -15.094   1.454  1.00  0.00    -0.272 OA
HETATM    4  H   UNL     1      39.699 -15.593   1.812  1.00  0.00     0.162 HD
ENDROOT
BRANCH   1   5
HETATM    5  C   UNL     1      40.394 -14.437   0.164  1.00  0.00     0.129 C 
BRANCH   5   6
HETATM    6  C   UNL     1      40.208 -12.969   0.524  1.00  0.00     0.031 C 
HETATM    7  C   UNL     1      41.490 -12.168   0.347  1.00  0.00     0.111 C 
HETATM    8  C   UNL     1      41.370 -11.063   1.368  1.00  0.00     0.224 C 
HETATM    9  N   UNL     1      40.397 -11.443   2.304  1.00  0.00    -0.318 N 
HETATM   10  O   UNL     1      42.078 -10.069   1.341  1.00  0.00    -0.273 OA
HETATM   11  C   UNL     1      39.854 -12.745   1.984  1.00  0.00     0.139 C 
BRANCH   9  12
HETATM   12  C   UNL     1      40.037 -10.734   3.483  1.00  0.00     0.037 A 
HETATM   13  C   UNL     1      40.996 -10.253   4.383  1.00  0.00     0.032 A 
HETATM   14  C   UNL     1      40.633  -9.539   5.535  1.00  0.00     0.039 A 
HETATM   15  C   UNL     1      39.294  -9.283   5.811  1.00  0.00     0.068 A 
HETATM   16  C   UNL     1      38.325  -9.770   4.936  1.00  0.00     0.039 A 
HETATM   17  C   UNL     1      38.691 -10.483   3.786  1.00  0.00     0.032 A 
BRANCH  15  18
HETATM   18  O   UNL     1      38.810  -8.593   6.885  1.00  0.00    -0.356 OA
HETATM   19  C   UNL     1      39.674  -7.616   7.453  1.00  0.00     0.210 C 
ENDBRANCH  15  18
ENDBRANCH   9  12
ENDBRANCH   5   6
ENDBRANCH   1   5
BRANCH   2  20
HETATM   20  C   UNL     1      41.719 -16.337   3.225  1.00  0.00     0.149 C 
HETATM   21  C   UNL     1      42.046 -15.478   4.424  1.00  0.00    -0.007 A 
HETATM   22  C   UNL     1      43.202 -15.722   5.168  1.00  0.00     0.083 A 
HETATM   23  C   UNL     1      41.201 -14.420   4.801  1.00  0.00     0.011 A 
HETATM   24  C   UNL     1      43.517 -14.921   6.267  1.00  0.00     0.038 A 
HETATM   25  O   UNL     1      44.087 -16.734   4.885  1.00  0.00    -0.310 OA
HETATM   26  C   UNL     1      42.674 -13.872   6.635  1.00  0.00     0.003 A 
HETATM   27  C   UNL     1      41.517 -13.623   5.902  1.00  0.00     0.001 A 
HETATM   28  C   UNL     1      43.736 -17.669   3.943  1.00  0.00     0.083 A 
HETATM   29  C   UNL     1      42.610 -17.557   3.127  1.00  0.00    -0.007 A 
HETATM   30  C   UNL     1      44.591 -18.766   3.819  1.00  0.00     0.038 A 
HETATM   31  C   UNL     1      42.338 -18.569   2.192  1.00  0.00     0.011 A 
HETATM   32  C   UNL     1      43.192 -19.666   2.071  1.00  0.00     0.001 A 
HETATM   33  C   UNL     1      44.320 -19.763   2.884  1.00  0.00     0.003 A 
ENDBRANCH   2  20
TORSDOF 5
ENDMDL
