MODEL 1
REMARK VINA RESULT:      -8.4      0.000      0.000
REMARK  4 active torsions:
REMARK  status: ('A' for Active; 'I' for Inactive)
REMARK    1  A    between atoms: C_9  and  C_10 
REMARK    2  A    between atoms: C_18  and  C_19 
REMARK       I    between atoms: C_19  and  N_20 
REMARK    3  A    between atoms: N_20  and  C_21 
REMARK    4  A    between atoms: C_24  and  O_25 
ROOT
HETATM    1  C   UNL     1      39.892 -14.749  -0.335  1.00  0.00     0.070 C 
HETATM    2  C   UNL     1      39.906 -13.692   0.741  1.00  0.00     0.037 C 
HETATM    3  N   UNL     1      39.482 -12.427   0.343  1.00  0.00    -0.192 N 
HETATM    4  C   UNL     1      39.225 -11.429   1.211  1.00  0.00     0.725 A 
HETATM    5  N   UNL     1      39.503 -11.605   2.539  1.00  0.00    -0.084 N 
HETATM    6  N   UNL     1      39.121 -10.535   3.267  1.00  0.00    -0.149 NA
HETATM    7  C   UNL     1      38.652  -9.735   2.301  1.00  0.00     0.275 A 
HETATM    8  N   UNL     1      38.700 -10.246   1.029  1.00  0.00    -0.054 NA
HETATM    9  C   UNL     1      40.103 -12.822   3.100  1.00  0.00     0.202 C 
HETATM   10  C   UNL     1      40.231 -13.911   2.039  1.00  0.00     0.062 C 
HETATM   11  H   UNL     1      39.173 -12.313  -0.619  1.00  0.00     0.184 HD
ENDROOT
BRANCH  10  12
HETATM   12  C   UNL     1      40.643 -15.228   2.595  1.00  0.00     0.256 C 
HETATM   13  N   UNL     1      42.006 -15.431   2.574  1.00  0.00    -0.323 N 
HETATM   14  H   UNL     1      42.578 -14.694   2.181  1.00  0.00     0.169 HD
HETATM   15  O   UNL     1      39.782 -15.961   3.064  1.00  0.00    -0.267 OA
BRANCH  13  16
HETATM   16  C   UNL     1      42.707 -16.564   3.039  1.00  0.00     0.035 A 
HETATM   17  C   UNL     1      42.890 -17.728   2.294  1.00  0.00     0.032 A 
HETATM   18  C   UNL     1      43.601 -18.806   2.832  1.00  0.00     0.039 A 
HETATM   19  C   UNL     1      44.149 -18.737   4.114  1.00  0.00     0.068 A 
HETATM   20  C   UNL     1      43.969 -17.578   4.862  1.00  0.00     0.039 A 
HETATM   21  C   UNL     1      43.248 -16.500   4.328  1.00  0.00     0.032 A 
BRANCH  19  22
HETATM   22  O   UNL     1      44.823 -19.858   4.510  1.00  0.00    -0.356 OA
HETATM   23  C   UNL     1      44.122 -20.774   5.340  1.00  0.00     0.210 C 
ENDBRANCH  19  22
ENDBRANCH  13  16
ENDBRANCH  10  12
BRANCH   9  24
HETATM   24  C   UNL     1      41.445 -12.500   3.757  1.00  0.00    -0.026 A 
HETATM   25  C   UNL     1      41.778 -12.978   5.038  1.00  0.00     0.035 A 
HETATM   26  C   UNL     1      43.007 -12.657   5.626  1.00  0.00     0.056 A 
HETATM   27 CL   UNL     1      43.329 -13.288   7.202  1.00  0.00    -0.083 Cl
HETATM   28  C   UNL     1      43.919 -11.847   4.942  1.00  0.00     0.055 A 
HETATM   29 CL   UNL     1      45.452 -11.410   5.606  1.00  0.00    -0.083 Cl
HETATM   30  C   UNL     1      43.594 -11.358   3.675  1.00  0.00     0.026 A 
HETATM   31  C   UNL     1      42.367 -11.678   3.088  1.00  0.00     0.011 A 
ENDBRANCH   9  24
TORSDOF 4
ENDMDL
MODEL 2
REMARK VINA RESULT:      -7.7      3.306      4.744
REMARK  4 active torsions:
REMARK  status: ('A' for Active; 'I' for Inactive)
REMARK    1  A    between atoms: C_9  and  C_10 
REMARK    2  A    between atoms: C_18  and  C_19 
REMARK       I    between atoms: C_19  and  N_20 
REMARK    3  A    between atoms: N_20  and  C_21 
REMARK    4  A    between atoms: C_24  and  O_25 
ROOT
HETATM    1  C   UNL     1      39.487 -12.584   5.605  1.00  0.00     0.070 C 
HETATM    2  C   UNL     1      39.756 -11.855   4.313  1.00  0.00     0.037 C 
HETATM    3  N   UNL     1      39.561 -10.477   4.351  1.00  0.00    -0.192 N 
HETATM    4  C   UNL     1      39.958  -9.649   3.365  1.00  0.00     0.725 A 
HETATM    5  N   UNL     1      40.467 -10.175   2.210  1.00  0.00    -0.084 N 
HETATM    6  N   UNL     1      40.873  -9.205   1.365  1.00  0.00    -0.149 NA
HETATM    7  C   UNL     1      40.544  -8.114   2.067  1.00  0.00     0.275 A 
HETATM    8  N   UNL     1      39.979  -8.344   3.295  1.00  0.00    -0.054 NA
HETATM    9  C   UNL     1      40.590 -11.614   1.945  1.00  0.00     0.202 C 
HETATM   10  C   UNL     1      40.222 -12.433   3.178  1.00  0.00     0.062 C 
HETATM   11  H   UNL     1      39.283 -10.063   5.237  1.00  0.00     0.184 HD
ENDROOT
BRANCH  10  12
HETATM   12  C   UNL     1      40.522 -13.884   3.032  1.00  0.00     0.256 C 
HETATM   13  N   UNL     1      41.840 -14.200   3.283  1.00  0.00    -0.323 N 
HETATM   14  H   UNL     1      42.462 -13.438   3.520  1.00  0.00     0.169 HD
HETATM   15  O   UNL     1      39.601 -14.648   2.777  1.00  0.00    -0.267 OA
BRANCH  13  16
HETATM   16  C   UNL     1      42.431 -15.480   3.241  1.00  0.00     0.035 A 
HETATM   17  C   UNL     1      42.519 -16.262   2.090  1.00  0.00     0.032 A 
HETATM   18  C   UNL     1      43.126 -17.522   2.137  1.00  0.00     0.039 A 
HETATM   19  C   UNL     1      43.662 -18.017   3.327  1.00  0.00     0.068 A 
HETATM   20  C   UNL     1      43.578 -17.240   4.479  1.00  0.00     0.039 A 
HETATM   21  C   UNL     1      42.962 -15.982   4.436  1.00  0.00     0.032 A 
BRANCH  19  22
HETATM   22  O   UNL     1      44.230 -19.256   3.227  1.00  0.00    -0.356 OA
HETATM   23  C   UNL     1      43.719 -20.121   2.222  1.00  0.00     0.210 C 
ENDBRANCH  19  22
ENDBRANCH  13  16
ENDBRANCH  10  12
BRANCH   9  24
HETATM   24  C   UNL     1      39.755 -12.005   0.726  1.00  0.00    -0.026 A 
HETATM   25  C   UNL     1      40.296 -12.755  -0.335  1.00  0.00     0.035 A 
HETATM   26  C   UNL     1      39.514 -13.088  -1.448  1.00  0.00     0.056 A 
HETATM   27 CL   UNL     1      40.263 -14.011  -2.703  1.00  0.00    -0.083 Cl
HETATM   28  C   UNL     1      38.183 -12.669  -1.518  1.00  0.00     0.055 A 
HETATM   29 CL   UNL     1      37.162 -13.042  -2.861  1.00  0.00    -0.083 Cl
HETATM   30  C   UNL     1      37.640 -11.914  -0.477  1.00  0.00     0.026 A 
HETATM   31  C   UNL     1      38.419 -11.582   0.635  1.00  0.00     0.011 A 
ENDBRANCH   9  24
TORSDOF 4
ENDMDL
MODEL 3
REMARK VINA RESULT:      -7.7      3.440      4.756
REMARK  4 active torsions:
REMARK  status: ('A' for Active; 'I' for Inactive)
REMARK    1  A    between atoms: C_9  and  C_10 
REMARK    2  A    between atoms: C_18  and  C_19 
REMARK       I    between atoms: C_19  and  N_20 
REMARK    3  A    between atoms: N_20  and  C_21 
REMARK    4  A    between atoms: C_24  and  O_25 
ROOT
HETATM    1  C   UNL     1      39.539 -12.580   5.014  1.00  0.00     0.070 C 
HETATM    2  C   UNL     1      39.925 -12.091   3.641  1.00  0.00     0.037 C 
HETATM    3  N   UNL     1      39.764 -10.725   3.424  1.00  0.00    -0.192 N 
HETATM    4  C   UNL     1      40.257 -10.087   2.345  1.00  0.00     0.725 A 
HETATM    5  N   UNL     1      40.839 -10.813   1.343  1.00  0.00    -0.084 N 
HETATM    6  N   UNL     1      41.335 -10.010   0.378  1.00  0.00    -0.149 NA
HETATM    7  C   UNL     1      40.982  -8.809   0.852  1.00  0.00     0.275 A 
HETATM    8  N   UNL     1      40.318  -8.814   2.053  1.00  0.00    -0.054 NA
HETATM    9  C   UNL     1      40.945 -12.277   1.342  1.00  0.00     0.202 C 
HETATM   10  C   UNL     1      40.462 -12.864   2.665  1.00  0.00     0.062 C 
HETATM   11  H   UNL     1      39.430 -10.160   4.201  1.00  0.00     0.184 HD
ENDROOT
BRANCH  10  12
HETATM   12  C   UNL     1      40.734 -14.321   2.796  1.00  0.00     0.256 C 
HETATM   13  N   UNL     1      42.062 -14.614   3.020  1.00  0.00    -0.323 N 
HETATM   14  H   UNL     1      42.708 -13.836   3.058  1.00  0.00     0.169 HD
HETATM   15  O   UNL     1      39.789 -15.098   2.761  1.00  0.00    -0.267 OA
BRANCH  13  16
HETATM   16  C   UNL     1      42.634 -15.891   3.200  1.00  0.00     0.035 A 
HETATM   17  C   UNL     1      42.672 -16.876   2.214  1.00  0.00     0.032 A 
HETATM   18  C   UNL     1      43.263 -18.117   2.477  1.00  0.00     0.039 A 
HETATM   19  C   UNL     1      43.832 -18.391   3.721  1.00  0.00     0.068 A 
HETATM   20  C   UNL     1      43.798 -17.412   4.709  1.00  0.00     0.039 A 
HETATM   21  C   UNL     1      43.197 -16.172   4.451  1.00  0.00     0.032 A 
BRANCH  19  22
HETATM   22  O   UNL     1      44.379 -19.638   3.837  1.00  0.00    -0.356 OA
HETATM   23  C   UNL     1      44.111 -20.351   5.037  1.00  0.00     0.210 C 
ENDBRANCH  19  22
ENDBRANCH  13  16
ENDBRANCH  10  12
BRANCH   9  24
HETATM   24  C   UNL     1      40.195 -12.865   0.146  1.00  0.00    -0.026 A 
HETATM   25  C   UNL     1      39.094 -12.210  -0.435  1.00  0.00     0.035 A 
HETATM   26  C   UNL     1      38.414 -12.777  -1.520  1.00  0.00     0.056 A 
HETATM   27 CL   UNL     1      37.072 -11.902  -2.169  1.00  0.00    -0.083 Cl
HETATM   28  C   UNL     1      38.824 -14.010  -2.035  1.00  0.00     0.055 A 
HETATM   29 CL   UNL     1      38.032 -14.769  -3.370  1.00  0.00    -0.083 Cl
HETATM   30  C   UNL     1      39.909 -14.674  -1.458  1.00  0.00     0.026 A 
HETATM   31  C   UNL     1      40.587 -14.109  -0.375  1.00  0.00     0.011 A 
ENDBRANCH   9  24
TORSDOF 4
ENDMDL
MODEL 4
REMARK VINA RESULT:      -7.6      4.084      5.541
REMARK  4 active torsions:
REMARK  status: ('A' for Active; 'I' for Inactive)
REMARK    1  A    between atoms: C_9  and  C_10 
REMARK    2  A    between atoms: C_18  and  C_19 
REMARK       I    between atoms: C_19  and  N_20 
REMARK    3  A    between atoms: N_20  and  C_21 
REMARK    4  A    between atoms: C_24  and  O_25 
ROOT
HETATM    1  C   UNL     1      37.945 -14.556  -3.424  1.00  0.00     0.070 C 
HETATM    2  C   UNL     1      37.873 -13.196  -2.777  1.00  0.00     0.037 C 
HETATM    3  N   UNL     1      36.837 -12.377  -3.216  1.00  0.00    -0.192 N 
HETATM    4  C   UNL     1      36.494 -11.229  -2.601  1.00  0.00     0.725 A 
HETATM    5  N   UNL     1      37.261 -10.764  -1.569  1.00  0.00    -0.084 N 
HETATM    6  N   UNL     1      36.734  -9.645  -1.030  1.00  0.00    -0.149 NA
HETATM    7  C   UNL     1      35.663  -9.474  -1.815  1.00  0.00     0.275 A 
HETATM    8  N   UNL     1      35.483 -10.422  -2.791  1.00  0.00    -0.054 NA
HETATM    9  C   UNL     1      38.480 -11.424  -1.088  1.00  0.00     0.202 C 
HETATM   10  C   UNL     1      38.689 -12.767  -1.782  1.00  0.00     0.062 C 
HETATM   11  H   UNL     1      36.197 -12.756  -3.910  1.00  0.00     0.184 HD
ENDROOT
BRANCH  10  12
HETATM   12  C   UNL     1      39.793 -13.570  -1.190  1.00  0.00     0.256 C 
HETATM   13  N   UNL     1      39.636 -13.811   0.157  1.00  0.00    -0.323 N 
HETATM   14  H   UNL     1      38.817 -13.419   0.605  1.00  0.00     0.169 HD
HETATM   15  O   UNL     1      40.676 -13.985  -1.930  1.00  0.00    -0.267 OA
BRANCH  13  16
HETATM   16  C   UNL     1      40.497 -14.547   0.997  1.00  0.00     0.035 A 
HETATM   17  C   UNL     1      40.200 -15.811   1.507  1.00  0.00     0.032 A 
HETATM   18  C   UNL     1      41.115 -16.473   2.332  1.00  0.00     0.039 A 
HETATM   19  C   UNL     1      42.342 -15.893   2.654  1.00  0.00     0.068 A 
HETATM   20  C   UNL     1      42.646 -14.633   2.148  1.00  0.00     0.039 A 
HETATM   21  C   UNL     1      41.726 -13.963   1.329  1.00  0.00     0.032 A 
BRANCH  19  22
HETATM   22  O   UNL     1      43.140 -16.653   3.463  1.00  0.00    -0.356 OA
HETATM   23  C   UNL     1      43.464 -17.959   3.006  1.00  0.00     0.210 C 
ENDBRANCH  19  22
ENDBRANCH  13  16
ENDBRANCH  10  12
BRANCH   9  24
HETATM   24  C   UNL     1      39.688 -10.500  -1.250  1.00  0.00    -0.026 A 
HETATM   25  C   UNL     1      40.022  -9.927  -2.490  1.00  0.00     0.035 A 
HETATM   26  C   UNL     1      41.143  -9.097  -2.616  1.00  0.00     0.056 A 
HETATM   27 CL   UNL     1      41.477  -8.437  -4.178  1.00  0.00    -0.083 Cl
HETATM   28  C   UNL     1      41.947  -8.834  -1.504  1.00  0.00     0.055 A 
HETATM   29 CL   UNL     1      43.344  -7.821  -1.586  1.00  0.00    -0.083 Cl
HETATM   30  C   UNL     1      41.630  -9.408  -0.271  1.00  0.00     0.026 A 
HETATM   31  C   UNL     1      40.512 -10.237  -0.144  1.00  0.00     0.011 A 
ENDBRANCH   9  24
TORSDOF 4
ENDMDL
MODEL 5
REMARK VINA RESULT:      -7.6     15.699     17.266
REMARK  4 active torsions:
REMARK  status: ('A' for Active; 'I' for Inactive)
REMARK    1  A    between atoms: C_9  and  C_10 
REMARK    2  A    between atoms: C_18  and  C_19 
REMARK       I    between atoms: C_19  and  N_20 
REMARK    3  A    between atoms: N_20  and  C_21 
REMARK    4  A    between atoms: C_24  and  O_25 
ROOT
HETATM    1  C   UNL     1      43.509 -33.189  -1.962  1.00  0.00     0.070 C 
HETATM    2  C   UNL     1      44.054 -31.791  -1.807  1.00  0.00     0.037 C 
HETATM    3  N   UNL     1      44.543 -31.205  -2.971  1.00  0.00    -0.192 N 
HETATM    4  C   UNL     1      44.862 -29.899  -3.061  1.00  0.00     0.725 A 
HETATM    5  N   UNL     1      44.829 -29.121  -1.937  1.00  0.00    -0.084 N 
HETATM    6  N   UNL     1      45.110 -27.832  -2.223  1.00  0.00    -0.149 NA
HETATM    7  C   UNL     1      45.337 -27.917  -3.540  1.00  0.00     0.275 A 
HETATM    8  N   UNL     1      45.198 -29.166  -4.089  1.00  0.00    -0.054 NA
HETATM    9  C   UNL     1      44.491 -29.620  -0.599  1.00  0.00     0.202 C 
HETATM   10  C   UNL     1      44.035 -31.076  -0.655  1.00  0.00     0.062 C 
HETATM   11  H   UNL     1      44.474 -31.739  -3.833  1.00  0.00     0.184 HD
ENDROOT
BRANCH  10  12
HETATM   12  C   UNL     1      43.489 -31.571   0.638  1.00  0.00     0.256 C 
HETATM   13  N   UNL     1      42.331 -30.933   1.025  1.00  0.00    -0.323 N 
HETATM   14  H   UNL     1      41.981 -30.201   0.420  1.00  0.00     0.169 HD
HETATM   15  O   UNL     1      44.053 -32.506   1.191  1.00  0.00    -0.267 OA
BRANCH  13  16
HETATM   16  C   UNL     1      41.568 -31.182   2.185  1.00  0.00     0.035 A 
HETATM   17  C   UNL     1      40.539 -32.119   2.257  1.00  0.00     0.032 A 
HETATM   18  C   UNL     1      39.833 -32.305   3.451  1.00  0.00     0.039 A 
HETATM   19  C   UNL     1      40.149 -31.567   4.593  1.00  0.00     0.068 A 
HETATM   20  C   UNL     1      41.176 -30.631   4.528  1.00  0.00     0.039 A 
HETATM   21  C   UNL     1      41.877 -30.436   3.330  1.00  0.00     0.032 A 
BRANCH  19  22
HETATM   22  O   UNL     1      39.385 -31.855   5.690  1.00  0.00    -0.356 OA
HETATM   23  C   UNL     1      38.723 -33.113   5.702  1.00  0.00     0.210 C 
ENDBRANCH  19  22
ENDBRANCH  13  16
ENDBRANCH  10  12
BRANCH   9  24
HETATM   24  C   UNL     1      45.668 -29.424   0.358  1.00  0.00    -0.026 A 
HETATM   25  C   UNL     1      46.979 -29.793   0.007  1.00  0.00     0.035 A 
HETATM   26  C   UNL     1      48.037 -29.617   0.906  1.00  0.00     0.056 A 
HETATM   27 CL   UNL     1      49.615 -30.100   0.390  1.00  0.00    -0.083 Cl
HETATM   28  C   UNL     1      47.796 -29.075   2.172  1.00  0.00     0.055 A 
HETATM   29 CL   UNL     1      49.053 -28.831   3.332  1.00  0.00    -0.083 Cl
HETATM   30  C   UNL     1      46.496 -28.717   2.535  1.00  0.00     0.026 A 
HETATM   31  C   UNL     1      45.440 -28.892   1.637  1.00  0.00     0.011 A 
ENDBRANCH   9  24
TORSDOF 4
ENDMDL
MODEL 6
REMARK VINA RESULT:      -7.4     16.357     17.990
REMARK  4 active torsions:
REMARK  status: ('A' for Active; 'I' for Inactive)
REMARK    1  A    between atoms: C_9  and  C_10 
REMARK    2  A    between atoms: C_18  and  C_19 
REMARK       I    between atoms: C_19  and  N_20 
REMARK    3  A    between atoms: N_20  and  C_21 
REMARK    4  A    between atoms: C_24  and  O_25 
ROOT
HETATM    1  C   UNL     1      44.118 -29.525   1.775  1.00  0.00     0.070 C 
HETATM    2  C   UNL     1      44.771 -29.468   0.417  1.00  0.00     0.037 C 
HETATM    3  N   UNL     1      43.908 -29.581  -0.669  1.00  0.00    -0.192 N 
HETATM    4  C   UNL     1      44.285 -29.336  -1.938  1.00  0.00     0.725 A 
HETATM    5  N   UNL     1      45.600 -29.081  -2.212  1.00  0.00    -0.084 N 
HETATM    6  N   UNL     1      45.784 -28.792  -3.517  1.00  0.00    -0.149 NA
HETATM    7  C   UNL     1      44.534 -28.927  -3.977  1.00  0.00     0.275 A 
HETATM    8  N   UNL     1      43.588 -29.262  -3.042  1.00  0.00    -0.054 NA
HETATM    9  C   UNL     1      46.666 -29.084  -1.203  1.00  0.00     0.202 C 
HETATM   10  C   UNL     1      46.093 -29.254   0.201  1.00  0.00     0.062 C 
HETATM   11  H   UNL     1      42.913 -29.666  -0.474  1.00  0.00     0.184 HD
ENDROOT
BRANCH  10  12
HETATM   12  C   UNL     1      47.104 -29.062   1.277  1.00  0.00     0.256 C 
HETATM   13  N   UNL     1      47.721 -30.231   1.665  1.00  0.00    -0.323 N 
HETATM   14  H   UNL     1      47.427 -31.085   1.208  1.00  0.00     0.169 HD
HETATM   15  O   UNL     1      47.339 -27.924   1.662  1.00  0.00    -0.267 OA
BRANCH  13  16
HETATM   16  C   UNL     1      48.726 -30.379   2.644  1.00  0.00     0.035 A 
HETATM   17  C   UNL     1      48.485 -30.793   3.954  1.00  0.00     0.032 A 
HETATM   18  C   UNL     1      49.543 -30.916   4.862  1.00  0.00     0.039 A 
HETATM   19  C   UNL     1      50.855 -30.639   4.476  1.00  0.00     0.068 A 
HETATM   20  C   UNL     1      51.102 -30.226   3.171  1.00  0.00     0.039 A 
HETATM   21  C   UNL     1      50.042 -30.093   2.263  1.00  0.00     0.032 A 
BRANCH  19  22
HETATM   22  O   UNL     1      51.789 -30.807   5.461  1.00  0.00    -0.356 OA
HETATM   23  C   UNL     1      52.076 -32.142   5.856  1.00  0.00     0.210 C 
ENDBRANCH  19  22
ENDBRANCH  13  16
ENDBRANCH  10  12
BRANCH   9  24
HETATM   24  C   UNL     1      47.709 -30.153  -1.530  1.00  0.00    -0.026 A 
HETATM   25  C   UNL     1      49.062 -29.831  -1.738  1.00  0.00     0.035 A 
HETATM   26  C   UNL     1      49.995 -30.826  -2.052  1.00  0.00     0.056 A 
HETATM   27 CL   UNL     1      51.636 -30.337  -2.290  1.00  0.00    -0.083 Cl
HETATM   28  C   UNL     1      49.585 -32.157  -2.170  1.00  0.00     0.055 A 
HETATM   29 CL   UNL     1      50.681 -33.436  -2.557  1.00  0.00    -0.083 Cl
HETATM   30  C   UNL     1      48.242 -32.486  -1.978  1.00  0.00     0.026 A 
HETATM   31  C   UNL     1      47.310 -31.493  -1.664  1.00  0.00     0.011 A 
ENDBRANCH   9  24
TORSDOF 4
ENDMDL
MODEL 7
REMARK VINA RESULT:      -7.2      3.661      6.397
REMARK  4 active torsions:
REMARK  status: ('A' for Active; 'I' for Inactive)
REMARK    1  A    between atoms: C_9  and  C_10 
REMARK    2  A    between atoms: C_18  and  C_19 
REMARK       I    between atoms: C_19  and  N_20 
REMARK    3  A    between atoms: N_20  and  C_21 
REMARK    4  A    between atoms: C_24  and  O_25 
ROOT
HETATM    1  C   UNL     1      40.951 -15.755   4.694  1.00  0.00     0.070 C 
HETATM    2  C   UNL     1      41.613 -14.416   4.904  1.00  0.00     0.037 C 
HETATM    3  N   UNL     1      42.494 -14.345   5.980  1.00  0.00    -0.192 N 
HETATM    4  C   UNL     1      43.327 -13.307   6.183  1.00  0.00     0.725 A 
HETATM    5  N   UNL     1      43.237 -12.205   5.377  1.00  0.00    -0.084 N 
HETATM    6  N   UNL     1      44.188 -11.297   5.678  1.00  0.00    -0.149 NA
HETATM    7  C   UNL     1      44.796 -11.907   6.703  1.00  0.00     0.275 A 
HETATM    8  N   UNL     1      44.297 -13.138   7.044  1.00  0.00    -0.054 NA
HETATM    9  C   UNL     1      42.254 -12.054   4.298  1.00  0.00     0.202 C 
HETATM   10  C   UNL     1      41.456 -13.339   4.096  1.00  0.00     0.062 C 
HETATM   11  H   UNL     1      42.647 -15.192   6.522  1.00  0.00     0.184 HD
ENDROOT
BRANCH  10  12
HETATM   12  C   UNL     1      40.589 -13.309   2.887  1.00  0.00     0.256 C 
HETATM   13  N   UNL     1      41.282 -13.496   1.710  1.00  0.00    -0.323 N 
HETATM   14  H   UNL     1      42.285 -13.617   1.777  1.00  0.00     0.169 HD
HETATM   15  O   UNL     1      39.380 -13.193   3.037  1.00  0.00    -0.267 OA
BRANCH  13  16
HETATM   16  C   UNL     1      40.749 -13.535   0.405  1.00  0.00     0.035 A 
HETATM   17  C   UNL     1      40.903 -12.514  -0.532  1.00  0.00     0.032 A 
HETATM   18  C   UNL     1      40.342 -12.635  -1.808  1.00  0.00     0.039 A 
HETATM   19  C   UNL     1      39.628 -13.777  -2.173  1.00  0.00     0.068 A 
HETATM   20  C   UNL     1      39.471 -14.800  -1.243  1.00  0.00     0.039 A 
HETATM   21  C   UNL     1      40.024 -14.676   0.040  1.00  0.00     0.032 A 
BRANCH  19  22
HETATM   22  O   UNL     1      39.142 -13.765  -3.451  1.00  0.00    -0.356 OA
HETATM   23  C   UNL     1      38.130 -14.712  -3.765  1.00  0.00     0.210 C 
ENDBRANCH  19  22
ENDBRANCH  13  16
ENDBRANCH  10  12
BRANCH   9  24
HETATM   24  C   UNL     1      41.348 -10.852   4.566  1.00  0.00    -0.026 A 
HETATM   25  C   UNL     1      41.380  -9.702   3.756  1.00  0.00     0.035 A 
HETATM   26  C   UNL     1      40.551  -8.608   4.033  1.00  0.00     0.056 A 
HETATM   27 CL   UNL     1      40.659  -7.238   2.984  1.00  0.00    -0.083 Cl
HETATM   28  C   UNL     1      39.683  -8.647   5.127  1.00  0.00     0.055 A 
HETATM   29 CL   UNL     1      38.634  -7.334   5.528  1.00  0.00    -0.083 Cl
HETATM   30  C   UNL     1      39.652  -9.779   5.944  1.00  0.00     0.026 A 
HETATM   31  C   UNL     1      40.479 -10.871   5.669  1.00  0.00     0.011 A 
ENDBRANCH   9  24
TORSDOF 4
ENDMDL
MODEL 8
REMARK VINA RESULT:      -7.2      3.085      4.477
REMARK  4 active torsions:
REMARK  status: ('A' for Active; 'I' for Inactive)
REMARK    1  A    between atoms: C_9  and  C_10 
REMARK    2  A    between atoms: C_18  and  C_19 
REMARK       I    between atoms: C_19  and  N_20 
REMARK    3  A    between atoms: N_20  and  C_21 
REMARK    4  A    between atoms: C_24  and  O_25 
ROOT
HETATM    1  C   UNL     1      40.025 -14.111   6.680  1.00  0.00     0.070 C 
HETATM    2  C   UNL     1      40.364 -13.005   5.712  1.00  0.00     0.037 C 
HETATM    3  N   UNL     1      40.244 -11.712   6.213  1.00  0.00    -0.192 N 
HETATM    4  C   UNL     1      40.709 -10.625   5.567  1.00  0.00     0.725 A 
HETATM    5  N   UNL     1      41.217 -10.760   4.304  1.00  0.00    -0.084 N 
HETATM    6  N   UNL     1      41.696  -9.587   3.840  1.00  0.00    -0.149 NA
HETATM    7  C   UNL     1      41.409  -8.779   4.868  1.00  0.00     0.275 A 
HETATM    8  N   UNL     1      40.802  -9.376   5.944  1.00  0.00    -0.054 NA
HETATM    9  C   UNL     1      41.268 -12.029   3.570  1.00  0.00     0.202 C 
HETATM   10  C   UNL     1      40.826 -13.193   4.451  1.00  0.00     0.062 C 
HETATM   11  H   UNL     1      39.967 -11.606   7.186  1.00  0.00     0.184 HD
ENDROOT
BRANCH  10  12
HETATM   12  C   UNL     1      41.050 -14.524   3.824  1.00  0.00     0.256 C 
HETATM   13  N   UNL     1      42.253 -15.100   4.173  1.00  0.00    -0.323 N 
HETATM   14  H   UNL     1      42.857 -14.573   4.791  1.00  0.00     0.169 HD
HETATM   15  O   UNL     1      40.160 -15.004   3.135  1.00  0.00    -0.267 OA
BRANCH  13  16
HETATM   16  C   UNL     1      42.749 -16.354   3.759  1.00  0.00     0.035 A 
HETATM   17  C   UNL     1      42.569 -16.881   2.481  1.00  0.00     0.032 A 
HETATM   18  C   UNL     1      43.097 -18.135   2.153  1.00  0.00     0.039 A 
HETATM   19  C   UNL     1      43.821 -18.876   3.088  1.00  0.00     0.068 A 
HETATM   20  C   UNL     1      44.005 -18.354   4.365  1.00  0.00     0.039 A 
HETATM   21  C   UNL     1      43.467 -17.103   4.698  1.00  0.00     0.032 A 
BRANCH  19  22
HETATM   22  O   UNL     1      44.285 -20.077   2.631  1.00  0.00    -0.356 OA
HETATM   23  C   UNL     1      43.607 -20.651   1.522  1.00  0.00     0.210 C 
ENDBRANCH  19  22
ENDBRANCH  13  16
ENDBRANCH  10  12
BRANCH   9  24
HETATM   24  C   UNL     1      40.442 -11.936   2.286  1.00  0.00    -0.026 A 
HETATM   25  C   UNL     1      41.035 -12.035   1.013  1.00  0.00     0.035 A 
HETATM   26  C   UNL     1      40.259 -11.931  -0.148  1.00  0.00     0.056 A 
HETATM   27 CL   UNL     1      41.073 -12.064  -1.667  1.00  0.00    -0.083 Cl
HETATM   28  C   UNL     1      38.881 -11.719  -0.051  1.00  0.00     0.055 A 
HETATM   29 CL   UNL     1      37.864 -11.580  -1.441  1.00  0.00    -0.083 Cl
HETATM   30  C   UNL     1      38.285 -11.608   1.206  1.00  0.00     0.026 A 
HETATM   31  C   UNL     1      39.058 -11.712   2.366  1.00  0.00     0.011 A 
ENDBRANCH   9  24
TORSDOF 4
ENDMDL
MODEL 9
REMARK VINA RESULT:      -7.1     16.204     18.191
REMARK  4 active torsions:
REMARK  status: ('A' for Active; 'I' for Inactive)
REMARK    1  A    between atoms: C_9  and  C_10 
REMARK    2  A    between atoms: C_18  and  C_19 
REMARK       I    between atoms: C_19  and  N_20 
REMARK    3  A    between atoms: N_20  and  C_21 
REMARK    4  A    between atoms: C_24  and  O_25 
ROOT
HETATM    1  C   UNL     1      46.905 -30.710   3.747  1.00  0.00     0.070 C 
HETATM    2  C   UNL     1      45.702 -30.448   2.875  1.00  0.00     0.037 C 
HETATM    3  N   UNL     1      44.467 -30.682   3.472  1.00  0.00    -0.192 N 
HETATM    4  C   UNL     1      43.299 -30.299   2.923  1.00  0.00     0.725 A 
HETATM    5  N   UNL     1      43.291 -29.762   1.664  1.00  0.00    -0.084 N 
HETATM    6  N   UNL     1      42.051 -29.374   1.303  1.00  0.00    -0.149 NA
HETATM    7  C   UNL     1      41.352 -29.742   2.384  1.00  0.00     0.275 A 
HETATM    8  N   UNL     1      42.080 -30.314   3.396  1.00  0.00    -0.054 NA
HETATM    9  C   UNL     1      44.490 -29.595   0.835  1.00  0.00     0.202 C 
HETATM   10  C   UNL     1      45.752 -29.953   1.614  1.00  0.00     0.062 C 
HETATM   11  H   UNL     1      44.461 -30.982   4.444  1.00  0.00     0.184 HD
ENDROOT
BRANCH  10  12
HETATM   12  C   UNL     1      47.007 -29.610   0.890  1.00  0.00     0.256 C 
HETATM   13  N   UNL     1      47.671 -30.710   0.391  1.00  0.00    -0.323 N 
HETATM   14  H   UNL     1      47.262 -31.618   0.570  1.00  0.00     0.169 HD
HETATM   15  O   UNL     1      47.297 -28.430   0.749  1.00  0.00    -0.267 OA
BRANCH  13  16
HETATM   16  C   UNL     1      48.872 -30.717  -0.348  1.00  0.00     0.035 A 
HETATM   17  C   UNL     1      48.996 -30.210  -1.641  1.00  0.00     0.032 A 
HETATM   18  C   UNL     1      50.229 -30.255  -2.302  1.00  0.00     0.039 A 
HETATM   19  C   UNL     1      51.357 -30.794  -1.682  1.00  0.00     0.068 A 
HETATM   20  C   UNL     1      51.239 -31.301  -0.392  1.00  0.00     0.039 A 
HETATM   21  C   UNL     1      50.003 -31.266   0.268  1.00  0.00     0.032 A 
BRANCH  19  22
HETATM   22  O   UNL     1      52.494 -30.767  -2.440  1.00  0.00    -0.356 OA
HETATM   23  C   UNL     1      52.730 -31.881  -3.290  1.00  0.00     0.210 C 
ENDBRANCH  19  22
ENDBRANCH  13  16
ENDBRANCH  10  12
BRANCH   9  24
HETATM   24  C   UNL     1      44.363 -30.406  -0.456  1.00  0.00    -0.026 A 
HETATM   25  C   UNL     1      44.317 -29.788  -1.719  1.00  0.00     0.035 A 
HETATM   26  C   UNL     1      44.185 -30.551  -2.885  1.00  0.00     0.056 A 
HETATM   27 CL   UNL     1      44.138 -29.706  -4.393  1.00  0.00    -0.083 Cl
HETATM   28  C   UNL     1      44.089 -31.943  -2.803  1.00  0.00     0.055 A 
HETATM   29 CL   UNL     1      43.923 -32.947  -4.199  1.00  0.00    -0.083 Cl
HETATM   30  C   UNL     1      44.121 -32.565  -1.553  1.00  0.00     0.026 A 
HETATM   31  C   UNL     1      44.254 -31.804  -0.389  1.00  0.00     0.011 A 
ENDBRANCH   9  24
TORSDOF 4
ENDMDL
MODEL 10
REMARK VINA RESULT:      -7.1      3.643      5.776
REMARK  4 active torsions:
REMARK  status: ('A' for Active; 'I' for Inactive)
REMARK    1  A    between atoms: C_9  and  C_10 
REMARK    2  A    between atoms: C_18  and  C_19 
REMARK       I    between atoms: C_19  and  N_20 
REMARK    3  A    between atoms: N_20  and  C_21 
REMARK    4  A    between atoms: C_24  and  O_25 
ROOT
HETATM    1  C   UNL     1      38.345  -9.558   4.738  1.00  0.00     0.070 C 
HETATM    2  C   UNL     1      38.849 -10.366   3.569  1.00  0.00     0.037 C 
HETATM    3  N   UNL     1      37.885 -10.734   2.634  1.00  0.00    -0.192 N 
HETATM    4  C   UNL     1      38.187 -11.262   1.433  1.00  0.00     0.725 A 
HETATM    5  N   UNL     1      39.487 -11.574   1.144  1.00  0.00    -0.084 N 
HETATM    6  N   UNL     1      39.614 -12.027  -0.121  1.00  0.00    -0.149 NA
HETATM    7  C   UNL     1      38.338 -11.993  -0.524  1.00  0.00     0.275 A 
HETATM    8  N   UNL     1      37.434 -11.533   0.399  1.00  0.00    -0.054 NA
HETATM    9  C   UNL     1      40.603 -11.399   2.080  1.00  0.00     0.202 C 
HETATM   10  C   UNL     1      40.148 -10.686   3.350  1.00  0.00     0.062 C 
HETATM   11  H   UNL     1      36.932 -10.415   2.788  1.00  0.00     0.184 HD
ENDROOT
BRANCH  10  12
HETATM   12  C   UNL     1      41.274 -10.302   4.245  1.00  0.00     0.256 C 
HETATM   13  N   UNL     1      41.489 -11.196   5.271  1.00  0.00    -0.323 N 
HETATM   14  H   UNL     1      40.871 -11.996   5.326  1.00  0.00     0.169 HD
HETATM   15  O   UNL     1      41.927  -9.305   3.969  1.00  0.00    -0.267 OA
BRANCH  13  16
HETATM   16  C   UNL     1      42.481 -11.123   6.271  1.00  0.00     0.035 A 
HETATM   17  C   UNL     1      43.606 -11.946   6.316  1.00  0.00     0.032 A 
HETATM   18  C   UNL     1      44.545 -11.804   7.344  1.00  0.00     0.039 A 
HETATM   19  C   UNL     1      44.382 -10.835   8.336  1.00  0.00     0.068 A 
HETATM   20  C   UNL     1      43.262 -10.011   8.296  1.00  0.00     0.039 A 
HETATM   21  C   UNL     1      42.315 -10.159   7.272  1.00  0.00     0.032 A 
BRANCH  19  22
HETATM   22  O   UNL     1      45.377 -10.803   9.273  1.00  0.00    -0.356 OA
HETATM   23  C   UNL     1      45.351  -9.730  10.205  1.00  0.00     0.210 C 
ENDBRANCH  19  22
ENDBRANCH  13  16
ENDBRANCH  10  12
BRANCH   9  24
HETATM   24  C   UNL     1      41.262 -12.746   2.383  1.00  0.00    -0.026 A 
HETATM   25  C   UNL     1      40.562 -13.789   3.017  1.00  0.00     0.035 A 
HETATM   26  C   UNL     1      41.192 -15.007   3.297  1.00  0.00     0.056 A 
HETATM   27 CL   UNL     1      40.254 -16.231   4.078  1.00  0.00    -0.083 Cl
HETATM   28  C   UNL     1      42.534 -15.195   2.954  1.00  0.00     0.055 A 
HETATM   29 CL   UNL     1      43.375 -16.671   3.271  1.00  0.00    -0.083 Cl
HETATM   30  C   UNL     1      43.241 -14.162   2.336  1.00  0.00     0.026 A 
HETATM   31  C   UNL     1      42.613 -12.946   2.055  1.00  0.00     0.011 A 
ENDBRANCH   9  24
TORSDOF 4
ENDMDL
