MODEL 1
REMARK VINA RESULT:      -8.6      0.000      0.000
REMARK  5 active torsions:
REMARK  status: ('A' for Active; 'I' for Inactive)
REMARK    1  A    between atoms: C_3  and  C_4 
REMARK    2  A    between atoms: C_4  and  N_5 
REMARK       I    between atoms: N_5  and  C_6 
REMARK    3  A    between atoms: C_6  and  C_7 
REMARK    4  A    between atoms: C_10  and  N_11 
REMARK       I    between atoms: N_11  and  C_12 
REMARK       I    between atoms: C_12  and  N_13 
REMARK    5  A    between atoms: N_13  and  C_14 
ROOT
HETATM    1  C   UNL     1      43.222 -13.864   4.652  1.00  0.00     0.032 A 
HETATM    2  C   UNL     1      43.082 -12.488   4.443  1.00  0.00     0.019 A 
HETATM    3  C   UNL     1      43.182 -11.597   5.522  1.00  0.00     0.030 A 
HETATM    4  C   UNL     1      43.416 -12.070   6.815  1.00  0.00     0.036 A 
HETATM    5  C   UNL     1      43.593 -13.444   7.012  1.00  0.00     0.030 A 
HETATM    6  C   UNL     1      43.499 -14.334   5.939  1.00  0.00     0.019 A 
ENDROOT
BRANCH   1   7
HETATM    7  C   UNL     1      43.105 -14.861   3.550  1.00  0.00     0.251 C 
HETATM    8  N   UNL     1      43.158 -16.191   3.908  1.00  0.00    -0.353 N 
HETATM    9  H   UNL     1      43.489 -16.436   4.830  1.00  0.00     0.163 HD
HETATM   10  O   UNL     1      43.009 -14.479   2.389  1.00  0.00    -0.268 OA
BRANCH   8  11
HETATM   11  C   UNL     1      43.242 -17.217   2.889  1.00  0.00     0.164 C 
BRANCH  11  12
HETATM   12  C   UNL     1      43.570 -18.559   3.477  1.00  0.00    -0.002 A 
HETATM   13  C   UNL     1      43.812 -18.704   4.852  1.00  0.00     0.012 A 
HETATM   14  C   UNL     1      44.072 -19.962   5.400  1.00  0.00     0.001 A 
HETATM   15  C   UNL     1      44.086 -21.092   4.583  1.00  0.00     0.003 A 
HETATM   16  C   UNL     1      43.838 -20.964   3.218  1.00  0.00     0.043 A 
HETATM   17  C   UNL     1      43.580 -19.707   2.679  1.00  0.00     0.124 A 
HETATM   18  F   UNL     1      43.335 -19.610   1.364  1.00  0.00    -0.205 F 
ENDBRANCH  11  12
ENDBRANCH   8  11
ENDBRANCH   1   7
BRANCH   4  19
HETATM   19  N   UNL     1      43.502 -11.242   7.952  1.00  0.00    -0.309 N 
HETATM   20  C   UNL     1      44.604 -10.582   8.427  1.00  0.00     0.325 C 
HETATM   21  N   UNL     1      44.438  -9.879   9.591  1.00  0.00    -0.306 N 
HETATM   22  O   UNL     1      45.695 -10.515   7.866  1.00  0.00    -0.247 OA
HETATM   23  H   UNL     1      45.207  -9.250   9.781  1.00  0.00     0.171 HD
HETATM   24  H   UNL     1      42.622 -10.914   8.322  1.00  0.00     0.170 HD
BRANCH  21  25
HETATM   25  C   UNL     1      43.464  -9.980  10.565  1.00  0.00     0.072 A 
HETATM   26  C   UNL     1      42.183  -9.403  10.708  1.00  0.00     0.169 A 
HETATM   27  N   UNL     1      41.575  -9.779  11.836  1.00  0.00    -0.185 NA
HETATM   28  N   UNL     1      42.445 -10.635  12.395  1.00  0.00    -0.287 N 
HETATM   29  H   UNL     1      42.194 -11.071  13.277  1.00  0.00     0.188 HD
HETATM   30  C   UNL     1      43.585 -10.802  11.662  1.00  0.00     0.140 A 
ENDBRANCH  21  25
ENDBRANCH   4  19
TORSDOF 5
ENDMDL
MODEL 2
REMARK VINA RESULT:      -8.3      5.765      8.800
REMARK  5 active torsions:
REMARK  status: ('A' for Active; 'I' for Inactive)
REMARK    1  A    between atoms: C_3  and  C_4 
REMARK    2  A    between atoms: C_4  and  N_5 
REMARK       I    between atoms: N_5  and  C_6 
REMARK    3  A    between atoms: C_6  and  C_7 
REMARK    4  A    between atoms: C_10  and  N_11 
REMARK       I    between atoms: N_11  and  C_12 
REMARK       I    between atoms: C_12  and  N_13 
REMARK    5  A    between atoms: N_13  and  C_14 
ROOT
HETATM    1  C   UNL     1      41.218 -15.055   2.133  1.00  0.00     0.032 A 
HETATM    2  C   UNL     1      40.329 -15.700   1.266  1.00  0.00     0.019 A 
HETATM    3  C   UNL     1      39.814 -15.022   0.152  1.00  0.00     0.030 A 
HETATM    4  C   UNL     1      40.175 -13.698  -0.104  1.00  0.00     0.036 A 
HETATM    5  C   UNL     1      41.095 -13.070   0.744  1.00  0.00     0.030 A 
HETATM    6  C   UNL     1      41.614 -13.744   1.852  1.00  0.00     0.019 A 
ENDROOT
BRANCH   1   7
HETATM    7  C   UNL     1      41.782 -15.715   3.344  1.00  0.00     0.251 C 
HETATM    8  N   UNL     1      43.143 -15.936   3.354  1.00  0.00    -0.353 N 
HETATM    9  H   UNL     1      43.657 -15.857   2.488  1.00  0.00     0.163 HD
HETATM   10  O   UNL     1      41.036 -16.069   4.250  1.00  0.00    -0.268 OA
BRANCH   8  11
HETATM   11  C   UNL     1      43.744 -16.736   4.401  1.00  0.00     0.164 C 
BRANCH  11  12
HETATM   12  C   UNL     1      43.753 -18.196   4.048  1.00  0.00    -0.002 A 
HETATM   13  C   UNL     1      43.686 -18.614   2.710  1.00  0.00     0.012 A 
HETATM   14  C   UNL     1      43.740 -19.972   2.386  1.00  0.00     0.001 A 
HETATM   15  C   UNL     1      43.870 -20.928   3.393  1.00  0.00     0.003 A 
HETATM   16  C   UNL     1      43.947 -20.525   4.725  1.00  0.00     0.043 A 
HETATM   17  C   UNL     1      43.892 -19.171   5.041  1.00  0.00     0.124 A 
HETATM   18  F   UNL     1      43.977 -18.807   6.328  1.00  0.00    -0.205 F 
ENDBRANCH  11  12
ENDBRANCH   8  11
ENDBRANCH   1   7
BRANCH   4  19
HETATM   19  N   UNL     1      39.680 -12.942  -1.186  1.00  0.00    -0.309 N 
HETATM   20  C   UNL     1      39.952 -13.108  -2.518  1.00  0.00     0.325 C 
HETATM   21  N   UNL     1      39.383 -12.201  -3.373  1.00  0.00    -0.306 N 
HETATM   22  O   UNL     1      40.599 -14.031  -3.007  1.00  0.00    -0.247 OA
HETATM   23  H   UNL     1      39.440 -12.488  -4.342  1.00  0.00     0.171 HD
HETATM   24  H   UNL     1      38.870 -12.374  -0.989  1.00  0.00     0.170 HD
BRANCH  21  25
HETATM   25  C   UNL     1      38.862 -10.946  -3.126  1.00  0.00     0.072 A 
HETATM   26  C   UNL     1      37.557 -10.483  -2.849  1.00  0.00     0.169 A 
HETATM   27  N   UNL     1      37.508  -9.159  -2.683  1.00  0.00    -0.185 NA
HETATM   28  N   UNL     1      38.788  -8.776  -2.806  1.00  0.00    -0.287 N 
HETATM   29  H   UNL     1      39.009  -7.791  -2.704  1.00  0.00     0.188 HD
HETATM   30  C   UNL     1      39.641  -9.814  -3.054  1.00  0.00     0.140 A 
ENDBRANCH  21  25
ENDBRANCH   4  19
TORSDOF 5
ENDMDL
MODEL 3
REMARK VINA RESULT:      -8.1      2.349      2.826
REMARK  5 active torsions:
REMARK  status: ('A' for Active; 'I' for Inactive)
REMARK    1  A    between atoms: C_3  and  C_4 
REMARK    2  A    between atoms: C_4  and  N_5 
REMARK       I    between atoms: N_5  and  C_6 
REMARK    3  A    between atoms: C_6  and  C_7 
REMARK    4  A    between atoms: C_10  and  N_11 
REMARK       I    between atoms: N_11  and  C_12 
REMARK       I    between atoms: C_12  and  N_13 
REMARK    5  A    between atoms: N_13  and  C_14 
ROOT
HETATM    1  C   UNL     1      42.127 -14.070   3.827  1.00  0.00     0.032 A 
HETATM    2  C   UNL     1      40.746 -14.090   4.053  1.00  0.00     0.019 A 
HETATM    3  C   UNL     1      40.165 -13.177   4.945  1.00  0.00     0.030 A 
HETATM    4  C   UNL     1      40.952 -12.244   5.622  1.00  0.00     0.036 A 
HETATM    5  C   UNL     1      42.327 -12.203   5.363  1.00  0.00     0.030 A 
HETATM    6  C   UNL     1      42.910 -13.107   4.471  1.00  0.00     0.019 A 
ENDROOT
BRANCH   1   7
HETATM    7  C   UNL     1      42.804 -15.027   2.908  1.00  0.00     0.251 C 
HETATM    8  N   UNL     1      42.484 -16.360   3.053  1.00  0.00    -0.353 N 
HETATM    9  H   UNL     1      41.999 -16.658   3.887  1.00  0.00     0.163 HD
HETATM   10  O   UNL     1      43.632 -14.617   2.101  1.00  0.00    -0.268 OA
BRANCH   8  11
HETATM   11  C   UNL     1      43.231 -17.371   2.333  1.00  0.00     0.164 C 
BRANCH  11  12
HETATM   12  C   UNL     1      43.568 -18.543   3.211  1.00  0.00    -0.002 A 
HETATM   13  C   UNL     1      43.779 -18.374   4.588  1.00  0.00     0.012 A 
HETATM   14  C   UNL     1      44.048 -19.474   5.407  1.00  0.00     0.001 A 
HETATM   15  C   UNL     1      44.101 -20.756   4.861  1.00  0.00     0.003 A 
HETATM   16  C   UNL     1      43.885 -20.938   3.496  1.00  0.00     0.043 A 
HETATM   17  C   UNL     1      43.618 -19.838   2.687  1.00  0.00     0.124 A 
HETATM   18  F   UNL     1      43.404 -20.039   1.379  1.00  0.00    -0.205 F 
ENDBRANCH  11  12
ENDBRANCH   8  11
ENDBRANCH   1   7
BRANCH   4  19
HETATM   19  N   UNL     1      40.447 -11.313   6.553  1.00  0.00    -0.309 N 
HETATM   20  C   UNL     1      40.013 -10.038   6.310  1.00  0.00     0.325 C 
HETATM   21  N   UNL     1      39.615  -9.312   7.403  1.00  0.00    -0.306 N 
HETATM   22  O   UNL     1      39.888  -9.522   5.202  1.00  0.00    -0.247 OA
HETATM   23  H   UNL     1      39.114  -8.470   7.152  1.00  0.00     0.171 HD
HETATM   24  H   UNL     1      40.158 -11.696   7.441  1.00  0.00     0.170 HD
BRANCH  21  25
HETATM   25  C   UNL     1      39.886  -9.497   8.744  1.00  0.00     0.072 A 
HETATM   26  C   UNL     1      40.981  -9.142   9.563  1.00  0.00     0.169 A 
HETATM   27  N   UNL     1      40.824  -9.535  10.829  1.00  0.00    -0.185 NA
HETATM   28  N   UNL     1      39.606 -10.102  10.835  1.00  0.00    -0.287 N 
HETATM   29  H   UNL     1      39.253 -10.475  11.711  1.00  0.00     0.188 HD
HETATM   30  C   UNL     1      38.997 -10.087   9.614  1.00  0.00     0.140 A 
ENDBRANCH  21  25
ENDBRANCH   4  19
TORSDOF 5
ENDMDL
MODEL 4
REMARK VINA RESULT:      -7.7      2.036      2.548
REMARK  5 active torsions:
REMARK  status: ('A' for Active; 'I' for Inactive)
REMARK    1  A    between atoms: C_3  and  C_4 
REMARK    2  A    between atoms: C_4  and  N_5 
REMARK       I    between atoms: N_5  and  C_6 
REMARK    3  A    between atoms: C_6  and  C_7 
REMARK    4  A    between atoms: C_10  and  N_11 
REMARK       I    between atoms: N_11  and  C_12 
REMARK       I    between atoms: C_12  and  N_13 
REMARK    5  A    between atoms: N_13  and  C_14 
ROOT
HETATM    1  C   UNL     1      42.942 -13.779   3.737  1.00  0.00     0.032 A 
HETATM    2  C   UNL     1      42.377 -13.901   5.011  1.00  0.00     0.019 A 
HETATM    3  C   UNL     1      42.304 -12.787   5.859  1.00  0.00     0.030 A 
HETATM    4  C   UNL     1      42.796 -11.546   5.448  1.00  0.00     0.036 A 
HETATM    5  C   UNL     1      43.324 -11.420   4.158  1.00  0.00     0.030 A 
HETATM    6  C   UNL     1      43.395 -12.527   3.308  1.00  0.00     0.019 A 
ENDROOT
BRANCH   1   7
HETATM    7  C   UNL     1      43.068 -14.930   2.799  1.00  0.00     0.251 C 
HETATM    8  N   UNL     1      43.211 -16.179   3.365  1.00  0.00    -0.353 N 
HETATM    9  H   UNL     1      43.447 -16.247   4.345  1.00  0.00     0.163 HD
HETATM   10  O   UNL     1      43.079 -14.734   1.589  1.00  0.00    -0.268 OA
BRANCH   8  11
HETATM   11  C   UNL     1      43.527 -17.323   2.535  1.00  0.00     0.164 C 
BRANCH  11  12
HETATM   12  C   UNL     1      43.714 -18.569   3.353  1.00  0.00    -0.002 A 
HETATM   13  C   UNL     1      43.854 -18.501   4.748  1.00  0.00     0.012 A 
HETATM   14  C   UNL     1      43.983 -19.666   5.508  1.00  0.00     0.001 A 
HETATM   15  C   UNL     1      43.965 -20.913   4.885  1.00  0.00     0.003 A 
HETATM   16  C   UNL     1      43.817 -20.995   3.501  1.00  0.00     0.043 A 
HETATM   17  C   UNL     1      43.690 -19.830   2.751  1.00  0.00     0.124 A 
HETATM   18  F   UNL     1      43.539 -19.935   1.423  1.00  0.00    -0.205 F 
ENDBRANCH  11  12
ENDBRANCH   8  11
ENDBRANCH   1   7
BRANCH   4  19
HETATM   19  N   UNL     1      42.783 -10.388   6.252  1.00  0.00    -0.309 N 
HETATM   20  C   UNL     1      43.562 -10.118   7.345  1.00  0.00     0.325 C 
HETATM   21  N   UNL     1      43.316  -8.934   7.990  1.00  0.00    -0.306 N 
HETATM   22  O   UNL     1      44.495 -10.808   7.748  1.00  0.00    -0.247 OA
HETATM   23  H   UNL     1      44.045  -8.688   8.648  1.00  0.00     0.171 HD
HETATM   24  H   UNL     1      42.324  -9.583   5.852  1.00  0.00     0.170 HD
BRANCH  21  25
HETATM   25  C   UNL     1      42.206  -8.113   7.957  1.00  0.00     0.072 A 
HETATM   26  C   UNL     1      40.969  -8.139   8.638  1.00  0.00     0.169 A 
HETATM   27  N   UNL     1      40.169  -7.130   8.284  1.00  0.00    -0.185 NA
HETATM   28  N   UNL     1      40.909  -6.429   7.411  1.00  0.00    -0.287 N 
HETATM   29  H   UNL     1      40.508  -5.590   7.004  1.00  0.00     0.188 HD
HETATM   30  C   UNL     1      42.145  -6.968   7.196  1.00  0.00     0.140 A 
ENDBRANCH  21  25
ENDBRANCH   4  19
TORSDOF 5
ENDMDL
MODEL 5
REMARK VINA RESULT:      -7.6      7.018     13.093
REMARK  5 active torsions:
REMARK  status: ('A' for Active; 'I' for Inactive)
REMARK    1  A    between atoms: C_3  and  C_4 
REMARK    2  A    between atoms: C_4  and  N_5 
REMARK       I    between atoms: N_5  and  C_6 
REMARK    3  A    between atoms: C_6  and  C_7 
REMARK    4  A    between atoms: C_10  and  N_11 
REMARK       I    between atoms: N_11  and  C_12 
REMARK       I    between atoms: C_12  and  N_13 
REMARK    5  A    between atoms: N_13  and  C_14 
ROOT
HETATM    1  C   UNL     1      41.912  -8.170  14.446  1.00  0.00     0.032 A 
HETATM    2  C   UNL     1      41.061  -9.175  13.973  1.00  0.00     0.019 A 
HETATM    3  C   UNL     1      41.287  -9.756  12.717  1.00  0.00     0.030 A 
HETATM    4  C   UNL     1      42.356  -9.338  11.921  1.00  0.00     0.036 A 
HETATM    5  C   UNL     1      43.227  -8.360  12.416  1.00  0.00     0.030 A 
HETATM    6  C   UNL     1      43.008  -7.782  13.669  1.00  0.00     0.019 A 
ENDROOT
BRANCH   1   7
HETATM    7  C   UNL     1      41.711  -7.500  15.762  1.00  0.00     0.251 C 
HETATM    8  N   UNL     1      40.909  -8.152  16.674  1.00  0.00    -0.353 N 
HETATM    9  H   UNL     1      40.325  -8.912  16.356  1.00  0.00     0.163 HD
HETATM   10  O   UNL     1      42.218  -6.404  15.973  1.00  0.00    -0.268 OA
BRANCH   8  11
HETATM   11  C   UNL     1      40.510  -7.488  17.898  1.00  0.00     0.164 C 
BRANCH  11  12
HETATM   12  C   UNL     1      40.893  -8.284  19.112  1.00  0.00    -0.002 A 
HETATM   13  C   UNL     1      42.227  -8.347  19.542  1.00  0.00     0.012 A 
HETATM   14  C   UNL     1      42.571  -9.054  20.697  1.00  0.00     0.001 A 
HETATM   15  C   UNL     1      41.584  -9.699  21.442  1.00  0.00     0.003 A 
HETATM   16  C   UNL     1      40.253  -9.636  21.032  1.00  0.00     0.043 A 
HETATM   17  C   UNL     1      39.919  -8.931  19.879  1.00  0.00     0.124 A 
HETATM   18  F   UNL     1      38.632  -8.878  19.510  1.00  0.00    -0.205 F 
ENDBRANCH  11  12
ENDBRANCH   8  11
ENDBRANCH   1   7
BRANCH   4  19
HETATM   19  N   UNL     1      42.632  -9.854  10.639  1.00  0.00    -0.309 N 
HETATM   20  C   UNL     1      43.713 -10.601  10.251  1.00  0.00     0.325 C 
HETATM   21  N   UNL     1      43.775 -10.937   8.924  1.00  0.00    -0.306 N 
HETATM   22  O   UNL     1      44.581 -11.046  10.998  1.00  0.00    -0.247 OA
HETATM   23  H   UNL     1      44.465 -11.653   8.734  1.00  0.00     0.171 HD
HETATM   24  H   UNL     1      41.852  -9.876   9.999  1.00  0.00     0.170 HD
BRANCH  21  25
HETATM   25  C   UNL     1      43.139 -10.383   7.832  1.00  0.00     0.072 A 
HETATM   26  C   UNL     1      42.416  -9.183   7.645  1.00  0.00     0.169 A 
HETATM   27  N   UNL     1      41.956  -9.052   6.398  1.00  0.00    -0.185 NA
HETATM   28  N   UNL     1      42.422 -10.143   5.771  1.00  0.00    -0.287 N 
HETATM   29  H   UNL     1      42.207 -10.262   4.786  1.00  0.00     0.188 HD
HETATM   30  C   UNL     1      43.152 -10.962   6.584  1.00  0.00     0.140 A 
ENDBRANCH  21  25
ENDBRANCH   4  19
TORSDOF 5
ENDMDL
MODEL 6
REMARK VINA RESULT:      -7.5      7.358     10.176
REMARK  5 active torsions:
REMARK  status: ('A' for Active; 'I' for Inactive)
REMARK    1  A    between atoms: C_3  and  C_4 
REMARK    2  A    between atoms: C_4  and  N_5 
REMARK       I    between atoms: N_5  and  C_6 
REMARK    3  A    between atoms: C_6  and  C_7 
REMARK    4  A    between atoms: C_10  and  N_11 
REMARK       I    between atoms: N_11  and  C_12 
REMARK       I    between atoms: C_12  and  N_13 
REMARK    5  A    between atoms: N_13  and  C_14 
ROOT
HETATM    1  C   UNL     1      39.921 -13.375   1.042  1.00  0.00     0.032 A 
HETATM    2  C   UNL     1      39.887 -14.072  -0.172  1.00  0.00     0.019 A 
HETATM    3  C   UNL     1      39.085 -13.612  -1.226  1.00  0.00     0.030 A 
HETATM    4  C   UNL     1      38.308 -12.461  -1.079  1.00  0.00     0.036 A 
HETATM    5  C   UNL     1      38.376 -11.747   0.123  1.00  0.00     0.030 A 
HETATM    6  C   UNL     1      39.177 -12.199   1.174  1.00  0.00     0.019 A 
ENDROOT
BRANCH   1   7
HETATM    7  C   UNL     1      40.737 -13.826   2.204  1.00  0.00     0.251 C 
HETATM    8  N   UNL     1      40.455 -15.075   2.714  1.00  0.00    -0.353 N 
HETATM    9  H   UNL     1      39.594 -15.530   2.446  1.00  0.00     0.163 HD
HETATM   10  O   UNL     1      41.582 -13.078   2.684  1.00  0.00    -0.268 OA
BRANCH   8  11
HETATM   11  C   UNL     1      41.066 -15.512   3.953  1.00  0.00     0.164 C 
BRANCH  11  12
HETATM   12  C   UNL     1      42.068 -16.607   3.722  1.00  0.00    -0.002 A 
HETATM   13  C   UNL     1      42.149 -17.260   2.483  1.00  0.00     0.012 A 
HETATM   14  C   UNL     1      43.113 -18.247   2.261  1.00  0.00     0.001 A 
HETATM   15  C   UNL     1      44.012 -18.587   3.271  1.00  0.00     0.003 A 
HETATM   16  C   UNL     1      43.948 -17.939   4.503  1.00  0.00     0.043 A 
HETATM   17  C   UNL     1      42.985 -16.958   4.718  1.00  0.00     0.124 A 
HETATM   18  F   UNL     1      42.949 -16.343   5.908  1.00  0.00    -0.205 F 
ENDBRANCH  11  12
ENDBRANCH   8  11
ENDBRANCH   1   7
BRANCH   4  19
HETATM   19  N   UNL     1      37.457 -11.952  -2.080  1.00  0.00    -0.309 N 
HETATM   20  C   UNL     1      37.698 -10.907  -2.932  1.00  0.00     0.325 C 
HETATM   21  N   UNL     1      36.680 -10.572  -3.786  1.00  0.00    -0.306 N 
HETATM   22  O   UNL     1      38.761 -10.299  -3.039  1.00  0.00    -0.247 OA
HETATM   23  H   UNL     1      36.979  -9.946  -4.524  1.00  0.00     0.171 HD
HETATM   24  H   UNL     1      36.697 -12.555  -2.357  1.00  0.00     0.170 HD
BRANCH  21  25
HETATM   25  C   UNL     1      35.331 -10.861  -3.726  1.00  0.00     0.072 A 
HETATM   26  C   UNL     1      34.555 -11.938  -4.208  1.00  0.00     0.169 A 
HETATM   27  N   UNL     1      33.258 -11.802  -3.926  1.00  0.00    -0.185 NA
HETATM   28  N   UNL     1      33.205 -10.660  -3.221  1.00  0.00    -0.287 N 
HETATM   29  H   UNL     1      32.303 -10.347  -2.878  1.00  0.00     0.188 HD
HETATM   30  C   UNL     1      34.425 -10.069  -3.059  1.00  0.00     0.140 A 
ENDBRANCH  21  25
ENDBRANCH   4  19
TORSDOF 5
ENDMDL
MODEL 7
REMARK VINA RESULT:      -7.5      4.500     10.118
REMARK  5 active torsions:
REMARK  status: ('A' for Active; 'I' for Inactive)
REMARK    1  A    between atoms: C_3  and  C_4 
REMARK    2  A    between atoms: C_4  and  N_5 
REMARK       I    between atoms: N_5  and  C_6 
REMARK    3  A    between atoms: C_6  and  C_7 
REMARK    4  A    between atoms: C_10  and  N_11 
REMARK       I    between atoms: N_11  and  C_12 
REMARK       I    between atoms: C_12  and  N_13 
REMARK    5  A    between atoms: N_13  and  C_14 
ROOT
HETATM    1  C   UNL     1      44.061 -10.160   7.998  1.00  0.00     0.032 A 
HETATM    2  C   UNL     1      44.994 -11.109   7.565  1.00  0.00     0.019 A 
HETATM    3  C   UNL     1      44.681 -11.973   6.506  1.00  0.00     0.030 A 
HETATM    4  C   UNL     1      43.437 -11.902   5.873  1.00  0.00     0.036 A 
HETATM    5  C   UNL     1      42.523 -10.925   6.284  1.00  0.00     0.030 A 
HETATM    6  C   UNL     1      42.833 -10.059   7.337  1.00  0.00     0.019 A 
ENDROOT
BRANCH   1   7
HETATM    7  C   UNL     1      44.327  -9.229   9.131  1.00  0.00     0.251 C 
HETATM    8  N   UNL     1      44.180  -9.742  10.402  1.00  0.00    -0.353 N 
HETATM    9  H   UNL     1      43.697 -10.621  10.522  1.00  0.00     0.163 HD
HETATM   10  O   UNL     1      44.621  -8.061   8.906  1.00  0.00    -0.268 OA
BRANCH   8  11
HETATM   11  C   UNL     1      44.235  -8.863  11.553  1.00  0.00     0.164 C 
BRANCH  11  12
HETATM   12  C   UNL     1      42.993  -8.967  12.391  1.00  0.00    -0.002 A 
HETATM   13  C   UNL     1      41.996  -9.907  12.087  1.00  0.00     0.012 A 
HETATM   14  C   UNL     1      40.863 -10.029  12.897  1.00  0.00     0.001 A 
HETATM   15  C   UNL     1      40.718  -9.221  14.024  1.00  0.00     0.003 A 
HETATM   16  C   UNL     1      41.706  -8.290  14.342  1.00  0.00     0.043 A 
HETATM   17  C   UNL     1      42.831  -8.173  13.530  1.00  0.00     0.124 A 
HETATM   18  F   UNL     1      43.771  -7.278  13.861  1.00  0.00    -0.205 F 
ENDBRANCH  11  12
ENDBRANCH   8  11
ENDBRANCH   1   7
BRANCH   4  19
HETATM   19  N   UNL     1      43.039 -12.751   4.822  1.00  0.00    -0.309 N 
HETATM   20  C   UNL     1      43.188 -12.545   3.476  1.00  0.00     0.325 C 
HETATM   21  N   UNL     1      42.664 -13.506   2.652  1.00  0.00    -0.306 N 
HETATM   22  O   UNL     1      43.805 -11.618   2.958  1.00  0.00    -0.247 OA
HETATM   23  H   UNL     1      42.981 -13.416   1.695  1.00  0.00     0.171 HD
HETATM   24  H   UNL     1      42.835 -13.704   5.083  1.00  0.00     0.170 HD
BRANCH  21  25
HETATM   25  C   UNL     1      41.714 -14.476   2.902  1.00  0.00     0.072 A 
HETATM   26  C   UNL     1      41.791 -15.790   3.415  1.00  0.00     0.169 A 
HETATM   27  N   UNL     1      40.598 -16.385   3.480  1.00  0.00    -0.185 NA
HETATM   28  N   UNL     1      39.747 -15.438   3.053  1.00  0.00    -0.287 N 
HETATM   29  H   UNL     1      38.756 -15.658   3.024  1.00  0.00     0.188 HD
HETATM   30  C   UNL     1      40.366 -14.270   2.712  1.00  0.00     0.140 A 
ENDBRANCH  21  25
ENDBRANCH   4  19
TORSDOF 5
ENDMDL
MODEL 8
REMARK VINA RESULT:      -7.3      6.565     10.131
REMARK  5 active torsions:
REMARK  status: ('A' for Active; 'I' for Inactive)
REMARK    1  A    between atoms: C_3  and  C_4 
REMARK    2  A    between atoms: C_4  and  N_5 
REMARK       I    between atoms: N_5  and  C_6 
REMARK    3  A    between atoms: C_6  and  C_7 
REMARK    4  A    between atoms: C_10  and  N_11 
REMARK       I    between atoms: N_11  and  C_12 
REMARK       I    between atoms: C_12  and  N_13 
REMARK    5  A    between atoms: N_13  and  C_14 
ROOT
HETATM    1  C   UNL     1      42.078  -8.147  12.443  1.00  0.00     0.032 A 
HETATM    2  C   UNL     1      42.874  -7.294  13.216  1.00  0.00     0.019 A 
HETATM    3  C   UNL     1      42.729  -7.265  14.610  1.00  0.00     0.030 A 
HETATM    4  C   UNL     1      41.788  -8.080  15.245  1.00  0.00     0.036 A 
HETATM    5  C   UNL     1      41.023  -8.960  14.471  1.00  0.00     0.030 A 
HETATM    6  C   UNL     1      41.168  -8.995  13.081  1.00  0.00     0.019 A 
ENDROOT
BRANCH   1   7
HETATM    7  C   UNL     1      42.172  -8.207  10.957  1.00  0.00     0.251 C 
HETATM    8  N   UNL     1      43.396  -7.904  10.399  1.00  0.00    -0.353 N 
HETATM    9  H   UNL     1      44.094  -7.449  10.970  1.00  0.00     0.163 HD
HETATM   10  O   UNL     1      41.178  -8.477  10.293  1.00  0.00    -0.268 OA
BRANCH   8  11
HETATM   11  C   UNL     1      43.525  -7.754   8.964  1.00  0.00     0.164 C 
BRANCH  11  12
HETATM   12  C   UNL     1      44.315  -8.879   8.358  1.00  0.00    -0.002 A 
HETATM   13  C   UNL     1      45.717  -8.837   8.320  1.00  0.00     0.012 A 
HETATM   14  C   UNL     1      46.447  -9.906   7.794  1.00  0.00     0.001 A 
HETATM   15  C   UNL     1      45.786 -11.033   7.308  1.00  0.00     0.003 A 
HETATM   16  C   UNL     1      44.393 -11.091   7.348  1.00  0.00     0.043 A 
HETATM   17  C   UNL     1      43.673 -10.022   7.873  1.00  0.00     0.124 A 
HETATM   18  F   UNL     1      42.336 -10.105   7.909  1.00  0.00    -0.205 F 
ENDBRANCH  11  12
ENDBRANCH   8  11
ENDBRANCH   1   7
BRANCH   4  19
HETATM   19  N   UNL     1      41.565  -8.089  16.636  1.00  0.00    -0.309 N 
HETATM   20  C   UNL     1      40.639  -7.366  17.340  1.00  0.00     0.325 C 
HETATM   21  N   UNL     1      40.659  -7.514  18.702  1.00  0.00    -0.306 N 
HETATM   22  O   UNL     1      39.761  -6.658  16.852  1.00  0.00    -0.247 OA
HETATM   23  H   UNL     1      39.835  -7.132  19.149  1.00  0.00     0.171 HD
HETATM   24  H   UNL     1      41.961  -8.869  17.138  1.00  0.00     0.170 HD
BRANCH  21  25
HETATM   25  C   UNL     1      41.653  -7.991  19.534  1.00  0.00     0.072 A 
HETATM   26  C   UNL     1      41.788  -9.175  20.292  1.00  0.00     0.169 A 
HETATM   27  N   UNL     1      42.935  -9.219  20.974  1.00  0.00    -0.185 NA
HETATM   28  N   UNL     1      43.559  -8.084  20.618  1.00  0.00    -0.287 N 
HETATM   29  H   UNL     1      44.476  -7.896  21.009  1.00  0.00     0.188 HD
HETATM   30  C   UNL     1      42.838  -7.323  19.743  1.00  0.00     0.140 A 
ENDBRANCH  21  25
ENDBRANCH   4  19
TORSDOF 5
ENDMDL
MODEL 9
REMARK VINA RESULT:      -7.2     16.809     19.094
REMARK  5 active torsions:
REMARK  status: ('A' for Active; 'I' for Inactive)
REMARK    1  A    between atoms: C_3  and  C_4 
REMARK    2  A    between atoms: C_4  and  N_5 
REMARK       I    between atoms: N_5  and  C_6 
REMARK    3  A    between atoms: C_6  and  C_7 
REMARK    4  A    between atoms: C_10  and  N_11 
REMARK       I    between atoms: N_11  and  C_12 
REMARK       I    between atoms: C_12  and  N_13 
REMARK    5  A    between atoms: N_13  and  C_14 
ROOT
HETATM    1  C   UNL     1      42.482 -30.394   2.543  1.00  0.00     0.032 A 
HETATM    2  C   UNL     1      42.022 -30.125   3.837  1.00  0.00     0.019 A 
HETATM    3  C   UNL     1      40.880 -30.775   4.328  1.00  0.00     0.030 A 
HETATM    4  C   UNL     1      40.187 -31.692   3.536  1.00  0.00     0.036 A 
HETATM    5  C   UNL     1      40.674 -31.987   2.258  1.00  0.00     0.030 A 
HETATM    6  C   UNL     1      41.814 -31.345   1.765  1.00  0.00     0.019 A 
ENDROOT
BRANCH   1   7
HETATM    7  C   UNL     1      43.675 -29.720   1.958  1.00  0.00     0.251 C 
HETATM    8  N   UNL     1      43.865 -29.864   0.599  1.00  0.00    -0.353 N 
HETATM    9  H   UNL     1      43.345 -30.575   0.106  1.00  0.00     0.163 HD
HETATM   10  O   UNL     1      44.451 -29.111   2.685  1.00  0.00    -0.268 OA
BRANCH   8  11
HETATM   11  C   UNL     1      45.093 -29.404  -0.017  1.00  0.00     0.164 C 
BRANCH  11  12
HETATM   12  C   UNL     1      44.931 -29.207  -1.497  1.00  0.00    -0.002 A 
HETATM   13  C   UNL     1      43.986 -29.948  -2.224  1.00  0.00     0.012 A 
HETATM   14  C   UNL     1      43.810 -29.729  -3.592  1.00  0.00     0.001 A 
HETATM   15  C   UNL     1      44.569 -28.761  -4.250  1.00  0.00     0.003 A 
HETATM   16  C   UNL     1      45.505 -28.012  -3.537  1.00  0.00     0.043 A 
HETATM   17  C   UNL     1      45.675 -28.237  -2.175  1.00  0.00     0.124 A 
HETATM   18  F   UNL     1      46.574 -27.498  -1.510  1.00  0.00    -0.205 F 
ENDBRANCH  11  12
ENDBRANCH   8  11
ENDBRANCH   1   7
BRANCH   4  19
HETATM   19  N   UNL     1      39.019 -32.365   3.949  1.00  0.00    -0.309 N 
HETATM   20  C   UNL     1      38.744 -32.884   5.185  1.00  0.00     0.325 C 
HETATM   21  N   UNL     1      37.550 -33.542   5.317  1.00  0.00    -0.306 N 
HETATM   22  O   UNL     1      39.439 -32.749   6.190  1.00  0.00    -0.247 OA
HETATM   23  H   UNL     1      37.304 -33.718   6.283  1.00  0.00     0.171 HD
HETATM   24  H   UNL     1      38.215 -32.251   3.350  1.00  0.00     0.170 HD
BRANCH  21  25
HETATM   25  C   UNL     1      36.717 -34.082   4.356  1.00  0.00     0.072 A 
HETATM   26  C   UNL     1      36.657 -35.350   3.737  1.00  0.00     0.169 A 
HETATM   27  N   UNL     1      35.674 -35.435   2.837  1.00  0.00    -0.185 NA
HETATM   28  N   UNL     1      35.072 -34.238   2.912  1.00  0.00    -0.287 N 
HETATM   29  H   UNL     1      34.270 -34.063   2.315  1.00  0.00     0.188 HD
HETATM   30  C   UNL     1      35.650 -33.398   3.821  1.00  0.00     0.140 A 
ENDBRANCH  21  25
ENDBRANCH   4  19
TORSDOF 5
ENDMDL
MODEL 10
REMARK VINA RESULT:      -7.2     16.584     18.555
REMARK  5 active torsions:
REMARK  status: ('A' for Active; 'I' for Inactive)
REMARK    1  A    between atoms: C_3  and  C_4 
REMARK    2  A    between atoms: C_4  and  N_5 
REMARK       I    between atoms: N_5  and  C_6 
REMARK    3  A    between atoms: C_6  and  C_7 
REMARK    4  A    between atoms: C_10  and  N_11 
REMARK       I    between atoms: N_11  and  C_12 
REMARK       I    between atoms: C_12  and  N_13 
REMARK    5  A    between atoms: N_13  and  C_14 
ROOT
HETATM    1  C   UNL     1      48.649 -29.431   2.120  1.00  0.00     0.032 A 
HETATM    2  C   UNL     1      49.409 -30.490   1.612  1.00  0.00     0.019 A 
HETATM    3  C   UNL     1      50.368 -31.120   2.418  1.00  0.00     0.030 A 
HETATM    4  C   UNL     1      50.580 -30.699   3.733  1.00  0.00     0.036 A 
HETATM    5  C   UNL     1      49.790 -29.665   4.249  1.00  0.00     0.030 A 
HETATM    6  C   UNL     1      48.830 -29.037   3.450  1.00  0.00     0.019 A 
ENDROOT
BRANCH   1   7
HETATM    7  C   UNL     1      47.631 -28.709   1.306  1.00  0.00     0.251 C 
HETATM    8  N   UNL     1      47.681 -28.897  -0.059  1.00  0.00    -0.353 N 
HETATM    9  H   UNL     1      48.506 -29.313  -0.465  1.00  0.00     0.163 HD
HETATM   10  O   UNL     1      46.830 -27.960   1.854  1.00  0.00    -0.268 OA
BRANCH   8  11
HETATM   11  C   UNL     1      46.855 -28.091  -0.935  1.00  0.00     0.164 C 
BRANCH  11  12
HETATM   12  C   UNL     1      45.871 -28.931  -1.698  1.00  0.00    -0.002 A 
HETATM   13  C   UNL     1      45.476 -30.190  -1.221  1.00  0.00     0.012 A 
HETATM   14  C   UNL     1      44.527 -30.947  -1.912  1.00  0.00     0.001 A 
HETATM   15  C   UNL     1      43.954 -30.451  -3.083  1.00  0.00     0.003 A 
HETATM   16  C   UNL     1      44.330 -29.198  -3.562  1.00  0.00     0.043 A 
HETATM   17  C   UNL     1      45.277 -28.450  -2.869  1.00  0.00     0.124 A 
HETATM   18  F   UNL     1      45.616 -27.243  -3.344  1.00  0.00    -0.205 F 
ENDBRANCH  11  12
ENDBRANCH   8  11
ENDBRANCH   1   7
BRANCH   4  19
HETATM   19  N   UNL     1      51.542 -31.263   4.595  1.00  0.00    -0.309 N 
HETATM   20  C   UNL     1      51.463 -32.448   5.277  1.00  0.00     0.325 C 
HETATM   21  N   UNL     1      52.517 -32.748   6.099  1.00  0.00    -0.306 N 
HETATM   22  O   UNL     1      50.569 -33.283   5.161  1.00  0.00    -0.247 OA
HETATM   23  H   UNL     1      52.510 -33.711   6.409  1.00  0.00     0.171 HD
HETATM   24  H   UNL     1      52.471 -30.877   4.525  1.00  0.00     0.170 HD
BRANCH  21  25
HETATM   25  C   UNL     1      53.491 -31.930   6.637  1.00  0.00     0.072 A 
HETATM   26  C   UNL     1      53.471 -30.953   7.657  1.00  0.00     0.169 A 
HETATM   27  N   UNL     1      54.666 -30.388   7.849  1.00  0.00    -0.185 NA
HETATM   28  N   UNL     1      55.465 -31.035   6.985  1.00  0.00    -0.287 N 
HETATM   29  H   UNL     1      56.447 -30.782   6.954  1.00  0.00     0.188 HD
HETATM   30  C   UNL     1      54.810 -31.981   6.249  1.00  0.00     0.140 A 
ENDBRANCH  21  25
ENDBRANCH   4  19
TORSDOF 5
ENDMDL
