MODEL 1
REMARK VINA RESULT:      -9.6      0.000      0.000
REMARK  4 active torsions:
REMARK  status: ('A' for Active; 'I' for Inactive)
REMARK    1  A    between atoms: C_9  and  C_10 
REMARK       I    between atoms: C_10  and  N_11 
REMARK    2  A    between atoms: N_11  and  N_12 
REMARK       I    between atoms: N_12  and  C_13 
REMARK    3  A    between atoms: C_13  and  C_14 
REMARK    4  A    between atoms: C_14  and  C_15 
ROOT
HETATM    1  C   UNL     1      42.911 -15.142   3.919  1.00  0.00     0.291 C 
HETATM    2  N   UNL     1      42.145 -15.425   2.803  1.00  0.00    -0.262 N 
HETATM    3  O   UNL     1      43.237 -13.995   4.222  1.00  0.00    -0.264 OA
HETATM    4  H   UNL     1      41.768 -16.368   2.681  1.00  0.00     0.190 HD
ENDROOT
BRANCH   2   5
HETATM    5  N   UNL     1      41.572 -14.379   2.075  1.00  0.00    -0.267 N 
HETATM    6  C   UNL     1      40.195 -14.369   1.928  1.00  0.00     0.236 C 
HETATM    7  O   UNL     1      39.487 -15.300   2.296  1.00  0.00    -0.272 OA
HETATM    8  H   UNL     1      42.133 -13.534   1.986  1.00  0.00     0.190 HD
BRANCH   6   9
HETATM    9  C   UNL     1      39.699 -13.098   1.254  1.00  0.00     0.114 C 
BRANCH   9  10
HETATM   10  C   UNL     1      39.650 -13.083  -0.290  1.00  0.00    -0.031 C 
HETATM   11  C   UNL     1      39.552 -14.513  -0.882  1.00  0.00     0.014 C 
HETATM   12  C   UNL     1      39.442 -14.460  -2.417  1.00  0.00    -0.013 C 
HETATM   13  C   UNL     1      40.677 -13.745  -2.990  1.00  0.00     0.009 C 
HETATM   14  C   UNL     1      38.177 -13.680  -2.810  1.00  0.00     0.009 C 
HETATM   15  C   UNL     1      40.760 -12.311  -2.442  1.00  0.00    -0.013 C 
HETATM   16  C   UNL     1      40.873 -12.358  -0.908  1.00  0.00     0.014 C 
HETATM   17  C   UNL     1      39.489 -11.543  -2.835  1.00  0.00     0.009 C 
HETATM   18  C   UNL     1      38.252 -12.248  -2.256  1.00  0.00    -0.013 C 
HETATM   19  C   UNL     1      38.373 -12.305  -0.724  1.00  0.00     0.014 C 
ENDBRANCH   9  10
ENDBRANCH   6   9
ENDBRANCH   2   5
BRANCH   1  20
HETATM   20  C   UNL     1      43.276 -16.336   4.692  1.00  0.00     0.158 A 
HETATM   21  C   UNL     1      43.471 -17.662   4.201  1.00  0.00     0.029 A 
HETATM   22  C   UNL     1      43.405 -18.301   2.947  1.00  0.00     0.023 A 
HETATM   23  C   UNL     1      43.797 -18.417   5.320  1.00  0.00     0.063 A 
HETATM   24  C   UNL     1      43.677 -19.677   2.855  1.00  0.00    -0.061 A 
HETATM   25  C   UNL     1      43.591 -20.381   1.532  1.00  0.00     0.048 C 
HETATM   26  C   UNL     1      43.991 -20.403   4.011  1.00  0.00     0.009 A 
HETATM   27  C   UNL     1      44.061 -19.789   5.267  1.00  0.00     0.032 A 
HETATM   28  N   UNL     1      43.783 -17.539   6.367  1.00  0.00    -0.277 N 
HETATM   29  H   UNL     1      43.976 -17.741   7.341  1.00  0.00     0.189 HD
HETATM   30  N   UNL     1      43.474 -16.276   6.027  1.00  0.00    -0.168 NA
ENDBRANCH   1  20
TORSDOF 4
ENDMDL
MODEL 2
REMARK VINA RESULT:      -9.4      1.358      1.764
REMARK  4 active torsions:
REMARK  status: ('A' for Active; 'I' for Inactive)
REMARK    1  A    between atoms: C_9  and  C_10 
REMARK       I    between atoms: C_10  and  N_11 
REMARK    2  A    between atoms: N_11  and  N_12 
REMARK       I    between atoms: N_12  and  C_13 
REMARK    3  A    between atoms: C_13  and  C_14 
REMARK    4  A    between atoms: C_14  and  C_15 
ROOT
HETATM    1  C   UNL     1      40.718 -15.556   2.869  1.00  0.00     0.291 C 
HETATM    2  N   UNL     1      39.997 -14.506   3.407  1.00  0.00    -0.262 N 
HETATM    3  O   UNL     1      40.536 -15.963   1.722  1.00  0.00    -0.264 OA
HETATM    4  H   UNL     1      40.290 -14.102   4.299  1.00  0.00     0.190 HD
ENDROOT
BRANCH   2   5
HETATM    5  N   UNL     1      39.145 -13.761   2.586  1.00  0.00    -0.267 N 
HETATM    6  C   UNL     1      39.629 -12.577   2.056  1.00  0.00     0.236 C 
HETATM    7  O   UNL     1      40.712 -12.102   2.382  1.00  0.00    -0.272 OA
HETATM    8  H   UNL     1      38.373 -14.270   2.160  1.00  0.00     0.190 HD
BRANCH   6   9
HETATM    9  C   UNL     1      38.659 -11.954   1.062  1.00  0.00     0.114 C 
BRANCH   9  10
HETATM   10  C   UNL     1      39.003 -12.075  -0.440  1.00  0.00    -0.031 C 
HETATM   11  C   UNL     1      39.671 -13.433  -0.775  1.00  0.00     0.014 C 
HETATM   12  C   UNL     1      39.942 -13.548  -2.287  1.00  0.00    -0.013 C 
HETATM   13  C   UNL     1      40.861 -12.395  -2.725  1.00  0.00     0.009 C 
HETATM   14  C   UNL     1      38.611 -13.455  -3.051  1.00  0.00     0.009 C 
HETATM   15  C   UNL     1      40.189 -11.043  -2.437  1.00  0.00    -0.013 C 
HETATM   16  C   UNL     1      39.917 -10.922  -0.927  1.00  0.00     0.014 C 
HETATM   17  C   UNL     1      38.858 -10.964  -3.200  1.00  0.00     0.009 C 
HETATM   18  C   UNL     1      37.932 -12.108  -2.757  1.00  0.00    -0.013 C 
HETATM   19  C   UNL     1      37.673 -11.992  -1.246  1.00  0.00     0.014 C 
ENDBRANCH   9  10
ENDBRANCH   6   9
ENDBRANCH   2   5
BRANCH   1  20
HETATM   20  C   UNL     1      41.712 -16.113   3.795  1.00  0.00     0.158 A 
HETATM   21  C   UNL     1      42.522 -17.272   3.604  1.00  0.00     0.029 A 
HETATM   22  C   UNL     1      42.691 -18.238   2.592  1.00  0.00     0.023 A 
HETATM   23  C   UNL     1      43.285 -17.375   4.760  1.00  0.00     0.063 A 
HETATM   24  C   UNL     1      43.628 -19.271   2.770  1.00  0.00    -0.061 A 
HETATM   25  C   UNL     1      43.807 -20.323   1.713  1.00  0.00     0.048 C 
HETATM   26  C   UNL     1      44.368 -19.344   3.957  1.00  0.00     0.009 A 
HETATM   27  C   UNL     1      44.215 -18.396   4.975  1.00  0.00     0.032 A 
HETATM   28  N   UNL     1      42.907 -16.317   5.539  1.00  0.00    -0.277 N 
HETATM   29  H   UNL     1      43.257 -16.075   6.459  1.00  0.00     0.189 HD
HETATM   30  N   UNL     1      41.961 -15.535   4.991  1.00  0.00    -0.168 NA
ENDBRANCH   1  20
TORSDOF 4
ENDMDL
MODEL 3
REMARK VINA RESULT:      -9.1      6.352      8.906
REMARK  4 active torsions:
REMARK  status: ('A' for Active; 'I' for Inactive)
REMARK    1  A    between atoms: C_9  and  C_10 
REMARK       I    between atoms: C_10  and  N_11 
REMARK    2  A    between atoms: N_11  and  N_12 
REMARK       I    between atoms: N_12  and  C_13 
REMARK    3  A    between atoms: C_13  and  C_14 
REMARK    4  A    between atoms: C_14  and  C_15 
ROOT
HETATM    1  C   UNL     1      44.320 -10.754   8.429  1.00  0.00     0.291 C 
HETATM    2  N   UNL     1      43.729 -11.899   7.928  1.00  0.00    -0.262 N 
HETATM    3  O   UNL     1      45.110 -10.077   7.771  1.00  0.00    -0.264 OA
HETATM    4  H   UNL     1      42.965 -12.336   8.448  1.00  0.00     0.190 HD
ENDROOT
BRANCH   2   5
HETATM    5  N   UNL     1      43.889 -12.226   6.578  1.00  0.00    -0.267 N 
HETATM    6  C   UNL     1      42.748 -12.388   5.811  1.00  0.00     0.236 C 
HETATM    7  O   UNL     1      41.622 -12.385   6.296  1.00  0.00    -0.272 OA
HETATM    8  H   UNL     1      44.792 -12.000   6.166  1.00  0.00     0.190 HD
BRANCH   6   9
HETATM    9  C   UNL     1      43.071 -12.583   4.337  1.00  0.00     0.114 C 
BRANCH   9  10
HETATM   10  C   UNL     1      42.580 -13.886   3.667  1.00  0.00    -0.031 C 
HETATM   11  C   UNL     1      41.067 -13.833   3.333  1.00  0.00     0.014 C 
HETATM   12  C   UNL     1      40.624 -15.119   2.610  1.00  0.00    -0.013 C 
HETATM   13  C   UNL     1      40.915 -16.332   3.510  1.00  0.00     0.009 C 
HETATM   14  C   UNL     1      41.411 -15.261   1.297  1.00  0.00     0.009 C 
HETATM   15  C   UNL     1      42.420 -16.419   3.812  1.00  0.00    -0.013 C 
HETATM   16  C   UNL     1      42.867 -15.137   4.536  1.00  0.00     0.014 C 
HETATM   17  C   UNL     1      43.195 -16.554   2.493  1.00  0.00     0.009 C 
HETATM   18  C   UNL     1      42.916 -15.339   1.595  1.00  0.00    -0.013 C 
HETATM   19  C   UNL     1      43.353 -14.059   2.326  1.00  0.00     0.014 C 
ENDBRANCH   9  10
ENDBRANCH   6   9
ENDBRANCH   2   5
BRANCH   1  20
HETATM   20  C   UNL     1      43.903 -10.436   9.800  1.00  0.00     0.158 A 
HETATM   21  C   UNL     1      43.470  -9.174  10.305  1.00  0.00     0.029 A 
HETATM   22  C   UNL     1      43.284  -7.879   9.780  1.00  0.00     0.023 A 
HETATM   23  C   UNL     1      43.196  -9.396  11.648  1.00  0.00     0.063 A 
HETATM   24  C   UNL     1      42.820  -6.851  10.619  1.00  0.00    -0.061 A 
HETATM   25  C   UNL     1      42.636  -5.460  10.084  1.00  0.00     0.048 C 
HETATM   26  C   UNL     1      42.567  -7.116  11.971  1.00  0.00     0.009 A 
HETATM   27  C   UNL     1      42.746  -8.395  12.514  1.00  0.00     0.032 A 
HETATM   28  N   UNL     1      43.465 -10.719  11.859  1.00  0.00    -0.277 N 
HETATM   29  H   UNL     1      43.377 -11.233  12.728  1.00  0.00     0.189 HD
HETATM   30  N   UNL     1      43.893 -11.378  10.769  1.00  0.00    -0.168 NA
ENDBRANCH   1  20
TORSDOF 4
ENDMDL
MODEL 4
REMARK VINA RESULT:      -9.0      6.519      9.507
REMARK  4 active torsions:
REMARK  status: ('A' for Active; 'I' for Inactive)
REMARK    1  A    between atoms: C_9  and  C_10 
REMARK       I    between atoms: C_10  and  N_11 
REMARK    2  A    between atoms: N_11  and  N_12 
REMARK       I    between atoms: N_12  and  C_13 
REMARK    3  A    between atoms: C_13  and  C_14 
REMARK    4  A    between atoms: C_14  and  C_15 
ROOT
HETATM    1  C   UNL     1      42.511 -13.598   6.386  1.00  0.00     0.291 C 
HETATM    2  N   UNL     1      43.441 -12.891   7.125  1.00  0.00    -0.262 N 
HETATM    3  O   UNL     1      41.356 -13.203   6.228  1.00  0.00    -0.264 OA
HETATM    4  H   UNL     1      44.423 -13.176   7.097  1.00  0.00     0.190 HD
ENDROOT
BRANCH   2   5
HETATM    5  N   UNL     1      43.131 -11.606   7.577  1.00  0.00    -0.267 N 
HETATM    6  C   UNL     1      44.162 -10.831   8.082  1.00  0.00     0.236 C 
HETATM    7  O   UNL     1      45.291 -11.274   8.265  1.00  0.00    -0.272 OA
HETATM    8  H   UNL     1      42.273 -11.196   7.213  1.00  0.00     0.190 HD
BRANCH   6   9
HETATM    9  C   UNL     1      43.714  -9.409   8.388  1.00  0.00     0.114 C 
BRANCH   9  10
HETATM   10  C   UNL     1      43.051  -9.149   9.758  1.00  0.00    -0.031 C 
HETATM   11  C   UNL     1      43.617 -10.079  10.863  1.00  0.00     0.014 C 
HETATM   12  C   UNL     1      42.982  -9.752  12.227  1.00  0.00    -0.013 C 
HETATM   13  C   UNL     1      41.457  -9.928  12.132  1.00  0.00     0.009 C 
HETATM   14  C   UNL     1      43.302  -8.296  12.602  1.00  0.00     0.009 C 
HETATM   15  C   UNL     1      40.880  -8.979  11.069  1.00  0.00    -0.013 C 
HETATM   16  C   UNL     1      41.510  -9.303   9.703  1.00  0.00     0.014 C 
HETATM   17  C   UNL     1      41.211  -7.529  11.450  1.00  0.00     0.009 C 
HETATM   18  C   UNL     1      42.734  -7.345  11.537  1.00  0.00    -0.013 C 
HETATM   19  C   UNL     1      43.362  -7.681  10.174  1.00  0.00     0.014 C 
ENDBRANCH   9  10
ENDBRANCH   6   9
ENDBRANCH   2   5
BRANCH   1  20
HETATM   20  C   UNL     1      43.044 -14.841   5.814  1.00  0.00     0.158 A 
HETATM   21  C   UNL     1      42.606 -15.511   4.633  1.00  0.00     0.029 A 
HETATM   22  C   UNL     1      41.618 -15.297   3.651  1.00  0.00     0.023 A 
HETATM   23  C   UNL     1      43.422 -16.630   4.528  1.00  0.00     0.063 A 
HETATM   24  C   UNL     1      41.487 -16.211   2.591  1.00  0.00    -0.061 A 
HETATM   25  C   UNL     1      40.426 -16.014   1.546  1.00  0.00     0.048 C 
HETATM   26  C   UNL     1      42.323 -17.333   2.530  1.00  0.00     0.009 A 
HETATM   27  C   UNL     1      43.310 -17.565   3.495  1.00  0.00     0.032 A 
HETATM   28  N   UNL     1      44.264 -16.566   5.602  1.00  0.00    -0.277 N 
HETATM   29  H   UNL     1      44.998 -17.221   5.848  1.00  0.00     0.189 HD
HETATM   30  N   UNL     1      44.067 -15.502   6.399  1.00  0.00    -0.168 NA
ENDBRANCH   1  20
TORSDOF 4
ENDMDL
MODEL 5
REMARK VINA RESULT:      -8.9      6.640      9.283
REMARK  4 active torsions:
REMARK  status: ('A' for Active; 'I' for Inactive)
REMARK    1  A    between atoms: C_9  and  C_10 
REMARK       I    between atoms: C_10  and  N_11 
REMARK    2  A    between atoms: N_11  and  N_12 
REMARK       I    between atoms: N_12  and  C_13 
REMARK    3  A    between atoms: C_13  and  C_14 
REMARK    4  A    between atoms: C_14  and  C_15 
ROOT
HETATM    1  C   UNL     1      44.166 -10.572   8.647  1.00  0.00     0.291 C 
HETATM    2  N   UNL     1      43.198 -11.282   7.960  1.00  0.00    -0.262 N 
HETATM    3  O   UNL     1      45.255 -11.061   8.946  1.00  0.00    -0.264 OA
HETATM    4  H   UNL     1      42.379 -10.788   7.597  1.00  0.00     0.190 HD
ENDROOT
BRANCH   2   5
HETATM    5  N   UNL     1      43.508 -12.538   7.431  1.00  0.00    -0.267 N 
HETATM    6  C   UNL     1      42.773 -12.983   6.346  1.00  0.00     0.236 C 
HETATM    7  O   UNL     1      41.791 -12.382   5.923  1.00  0.00    -0.272 OA
HETATM    8  H   UNL     1      44.438 -12.896   7.640  1.00  0.00     0.190 HD
BRANCH   6   9
HETATM    9  C   UNL     1      43.318 -14.286   5.779  1.00  0.00     0.114 C 
BRANCH   9  10
HETATM   10  C   UNL     1      42.790 -14.739   4.400  1.00  0.00    -0.031 C 
HETATM   11  C   UNL     1      43.151 -13.730   3.279  1.00  0.00     0.014 C 
HETATM   12  C   UNL     1      42.666 -14.241   1.910  1.00  0.00    -0.013 C 
HETATM   13  C   UNL     1      41.142 -14.443   1.955  1.00  0.00     0.009 C 
HETATM   14  C   UNL     1      43.347 -15.583   1.598  1.00  0.00     0.009 C 
HETATM   15  C   UNL     1      40.776 -15.475   3.034  1.00  0.00    -0.013 C 
HETATM   16  C   UNL     1      41.256 -14.968   4.405  1.00  0.00     0.014 C 
HETATM   17  C   UNL     1      41.467 -16.809   2.715  1.00  0.00     0.009 C 
HETATM   18  C   UNL     1      42.991 -16.614   2.680  1.00  0.00    -0.013 C 
HETATM   19  C   UNL     1      43.466 -16.097   4.047  1.00  0.00     0.014 C 
ENDBRANCH   9  10
ENDBRANCH   6   9
ENDBRANCH   2   5
BRANCH   1  20
HETATM   20  C   UNL     1      43.762  -9.197   8.967  1.00  0.00     0.158 A 
HETATM   21  C   UNL     1      43.316  -8.694  10.226  1.00  0.00     0.029 A 
HETATM   22  C   UNL     1      43.105  -9.224  11.515  1.00  0.00     0.023 A 
HETATM   23  C   UNL     1      43.056  -7.348  10.006  1.00  0.00     0.063 A 
HETATM   24  C   UNL     1      42.647  -8.382  12.543  1.00  0.00    -0.061 A 
HETATM   25  C   UNL     1      42.394  -8.932  13.918  1.00  0.00     0.048 C 
HETATM   26  C   UNL     1      42.385  -7.033  12.275  1.00  0.00     0.009 A 
HETATM   27  C   UNL     1      42.587  -6.486  11.001  1.00  0.00     0.032 A 
HETATM   28  N   UNL     1      43.350  -7.133   8.689  1.00  0.00    -0.277 N 
HETATM   29  H   UNL     1      43.278  -6.260   8.177  1.00  0.00     0.189 HD
HETATM   30  N   UNL     1      43.779  -8.224   8.031  1.00  0.00    -0.168 NA
ENDBRANCH   1  20
TORSDOF 4
ENDMDL
MODEL 6
REMARK VINA RESULT:      -8.8      8.369     11.387
REMARK  4 active torsions:
REMARK  status: ('A' for Active; 'I' for Inactive)
REMARK    1  A    between atoms: C_9  and  C_10 
REMARK       I    between atoms: C_10  and  N_11 
REMARK    2  A    between atoms: N_11  and  N_12 
REMARK       I    between atoms: N_12  and  C_13 
REMARK    3  A    between atoms: C_13  and  C_14 
REMARK    4  A    between atoms: C_14  and  C_15 
ROOT
HETATM    1  C   UNL     1      44.043 -11.397   7.728  1.00  0.00     0.291 C 
HETATM    2  N   UNL     1      43.121 -10.802   8.569  1.00  0.00    -0.262 N 
HETATM    3  O   UNL     1      45.235 -11.494   8.019  1.00  0.00    -0.264 OA
HETATM    4  H   UNL     1      42.124 -10.886   8.357  1.00  0.00     0.190 HD
ENDROOT
BRANCH   2   5
HETATM    5  N   UNL     1      43.500 -10.442   9.865  1.00  0.00    -0.267 N 
HETATM    6  C   UNL     1      43.785  -9.110  10.111  1.00  0.00     0.236 C 
HETATM    7  O   UNL     1      43.844  -8.272   9.216  1.00  0.00    -0.272 OA
HETATM    8  H   UNL     1      43.227 -11.084  10.607  1.00  0.00     0.190 HD
BRANCH   6   9
HETATM    9  C   UNL     1      44.028  -8.837  11.588  1.00  0.00     0.114 C 
BRANCH   9  10
HETATM   10  C   UNL     1      42.817  -8.392  12.438  1.00  0.00    -0.031 C 
HETATM   11  C   UNL     1      41.769  -7.619  11.597  1.00  0.00     0.014 C 
HETATM   12  C   UNL     1      40.548  -7.246  12.458  1.00  0.00    -0.013 C 
HETATM   13  C   UNL     1      41.008  -6.377  13.641  1.00  0.00     0.009 C 
HETATM   14  C   UNL     1      39.894  -8.529  12.995  1.00  0.00     0.009 C 
HETATM   15  C   UNL     1      42.015  -7.151  14.507  1.00  0.00    -0.013 C 
HETATM   16  C   UNL     1      43.239  -7.524  13.651  1.00  0.00     0.014 C 
HETATM   17  C   UNL     1      41.353  -8.433  15.032  1.00  0.00     0.009 C 
HETATM   18  C   UNL     1      40.901  -9.310  13.853  1.00  0.00    -0.013 C 
HETATM   19  C   UNL     1      42.123  -9.671  12.994  1.00  0.00     0.014 C 
ENDBRANCH   9  10
ENDBRANCH   6   9
ENDBRANCH   2   5
BRANCH   1  20
HETATM   20  C   UNL     1      43.454 -11.898   6.480  1.00  0.00     0.158 A 
HETATM   21  C   UNL     1      43.409 -13.249   6.023  1.00  0.00     0.029 A 
HETATM   22  C   UNL     1      43.846 -14.499   6.504  1.00  0.00     0.023 A 
HETATM   23  C   UNL     1      42.756 -13.195   4.798  1.00  0.00     0.063 A 
HETATM   24  C   UNL     1      43.605 -15.657   5.743  1.00  0.00    -0.061 A 
HETATM   25  C   UNL     1      44.081 -16.996   6.227  1.00  0.00     0.048 C 
HETATM   26  C   UNL     1      42.953 -15.555   4.507  1.00  0.00     0.009 A 
HETATM   27  C   UNL     1      42.512 -14.323   4.010  1.00  0.00     0.032 A 
HETATM   28  N   UNL     1      42.459 -11.875   4.604  1.00  0.00    -0.277 N 
HETATM   29  H   UNL     1      41.981 -11.462   3.811  1.00  0.00     0.189 HD
HETATM   30  N   UNL     1      42.864 -11.063   5.596  1.00  0.00    -0.168 NA
ENDBRANCH   1  20
TORSDOF 4
ENDMDL
MODEL 7
REMARK VINA RESULT:      -8.8      6.436      9.571
REMARK  4 active torsions:
REMARK  status: ('A' for Active; 'I' for Inactive)
REMARK    1  A    between atoms: C_9  and  C_10 
REMARK       I    between atoms: C_10  and  N_11 
REMARK    2  A    between atoms: N_11  and  N_12 
REMARK       I    between atoms: N_12  and  C_13 
REMARK    3  A    between atoms: C_13  and  C_14 
REMARK    4  A    between atoms: C_14  and  C_15 
ROOT
HETATM    1  C   UNL     1      43.239 -13.885   6.257  1.00  0.00     0.291 C 
HETATM    2  N   UNL     1      42.899 -12.651   6.780  1.00  0.00    -0.262 N 
HETATM    3  O   UNL     1      44.179 -14.550   6.691  1.00  0.00    -0.264 OA
HETATM    4  H   UNL     1      42.020 -12.212   6.496  1.00  0.00     0.190 HD
ENDROOT
BRANCH   2   5
HETATM    5  N   UNL     1      43.524 -12.200   7.946  1.00  0.00    -0.267 N 
HETATM    6  C   UNL     1      44.049 -10.919   7.945  1.00  0.00     0.236 C 
HETATM    7  O   UNL     1      44.099 -10.227   6.934  1.00  0.00    -0.272 OA
HETATM    8  H   UNL     1      43.272 -12.682   8.807  1.00  0.00     0.190 HD
BRANCH   6   9
HETATM    9  C   UNL     1      44.555 -10.504   9.320  1.00  0.00     0.114 C 
BRANCH   9  10
HETATM   10  C   UNL     1      43.537  -9.870  10.292  1.00  0.00    -0.031 C 
HETATM   11  C   UNL     1      43.334 -10.731  11.565  1.00  0.00     0.014 C 
HETATM   12  C   UNL     1      42.364 -10.041  12.541  1.00  0.00    -0.013 C 
HETATM   13  C   UNL     1      41.011  -9.823  11.842  1.00  0.00     0.009 C 
HETATM   14  C   UNL     1      42.944  -8.680  12.959  1.00  0.00     0.009 C 
HETATM   15  C   UNL     1      41.194  -8.933  10.602  1.00  0.00    -0.013 C 
HETATM   16  C   UNL     1      42.162  -9.620   9.622  1.00  0.00     0.014 C 
HETATM   17  C   UNL     1      41.780  -7.580  11.030  1.00  0.00     0.009 C 
HETATM   18  C   UNL     1      43.136  -7.792  11.720  1.00  0.00    -0.013 C 
HETATM   19  C   UNL     1      44.097  -8.488  10.743  1.00  0.00     0.014 C 
ENDBRANCH   9  10
ENDBRANCH   6   9
ENDBRANCH   2   5
BRANCH   1  20
HETATM   20  C   UNL     1      42.365 -14.311   5.156  1.00  0.00     0.158 A 
HETATM   21  C   UNL     1      42.520 -15.456   4.318  1.00  0.00     0.029 A 
HETATM   22  C   UNL     1      43.442 -16.515   4.206  1.00  0.00     0.023 A 
HETATM   23  C   UNL     1      41.445 -15.409   3.440  1.00  0.00     0.063 A 
HETATM   24  C   UNL     1      43.250 -17.499   3.220  1.00  0.00    -0.061 A 
HETATM   25  C   UNL     1      44.234 -18.624   3.069  1.00  0.00     0.048 C 
HETATM   26  C   UNL     1      42.159 -17.406   2.347  1.00  0.00     0.009 A 
HETATM   27  C   UNL     1      41.231 -16.362   2.440  1.00  0.00     0.032 A 
HETATM   28  N   UNL     1      40.740 -14.291   3.789  1.00  0.00    -0.277 N 
HETATM   29  H   UNL     1      39.890 -13.942   3.361  1.00  0.00     0.189 HD
HETATM   30  N   UNL     1      41.264 -13.604   4.819  1.00  0.00    -0.168 NA
ENDBRANCH   1  20
TORSDOF 4
ENDMDL
MODEL 8
REMARK VINA RESULT:      -8.7      5.276      8.278
REMARK  4 active torsions:
REMARK  status: ('A' for Active; 'I' for Inactive)
REMARK    1  A    between atoms: C_9  and  C_10 
REMARK       I    between atoms: C_10  and  N_11 
REMARK    2  A    between atoms: N_11  and  N_12 
REMARK       I    between atoms: N_12  and  C_13 
REMARK    3  A    between atoms: C_13  and  C_14 
REMARK    4  A    between atoms: C_14  and  C_15 
ROOT
HETATM    1  C   UNL     1      42.995 -14.897   5.337  1.00  0.00     0.291 C 
HETATM    2  N   UNL     1      42.479 -13.637   5.093  1.00  0.00    -0.262 N 
HETATM    3  O   UNL     1      43.343 -15.262   6.460  1.00  0.00    -0.264 OA
HETATM    4  H   UNL     1      42.059 -13.436   4.183  1.00  0.00     0.190 HD
ENDROOT
BRANCH   2   5
HETATM    5  N   UNL     1      42.179 -12.795   6.167  1.00  0.00    -0.267 N 
HETATM    6  C   UNL     1      42.477 -11.449   6.037  1.00  0.00     0.236 C 
HETATM    7  O   UNL     1      43.102 -11.001   5.082  1.00  0.00    -0.272 OA
HETATM    8  H   UNL     1      41.477 -13.134   6.822  1.00  0.00     0.190 HD
BRANCH   6   9
HETATM    9  C   UNL     1      41.956 -10.630   7.209  1.00  0.00     0.114 C 
BRANCH   9  10
HETATM   10  C   UNL     1      43.000  -9.979   8.143  1.00  0.00    -0.031 C 
HETATM   11  C   UNL     1      43.366  -8.541   7.694  1.00  0.00     0.014 C 
HETATM   12  C   UNL     1      44.358  -7.899   8.680  1.00  0.00    -0.013 C 
HETATM   13  C   UNL     1      45.631  -8.760   8.752  1.00  0.00     0.009 C 
HETATM   14  C   UNL     1      43.716  -7.827  10.075  1.00  0.00     0.009 C 
HETATM   15  C   UNL     1      45.285 -10.177   9.239  1.00  0.00    -0.013 C 
HETATM   16  C   UNL     1      44.295 -10.824   8.255  1.00  0.00     0.014 C 
HETATM   17  C   UNL     1      44.638 -10.092  10.629  1.00  0.00     0.009 C 
HETATM   18  C   UNL     1      43.360  -9.241  10.560  1.00  0.00    -0.013 C 
HETATM   19  C   UNL     1      42.378  -9.883   9.568  1.00  0.00     0.014 C 
ENDBRANCH   9  10
ENDBRANCH   6   9
ENDBRANCH   2   5
BRANCH   1  20
HETATM   20  C   UNL     1      43.071 -15.737   4.135  1.00  0.00     0.158 A 
HETATM   21  C   UNL     1      43.364 -17.132   4.068  1.00  0.00     0.029 A 
HETATM   22  C   UNL     1      43.660 -18.153   4.993  1.00  0.00     0.023 A 
HETATM   23  C   UNL     1      43.319 -17.447   2.716  1.00  0.00     0.063 A 
HETATM   24  C   UNL     1      43.894 -19.460   4.530  1.00  0.00    -0.061 A 
HETATM   25  C   UNL     1      44.234 -20.558   5.497  1.00  0.00     0.048 C 
HETATM   26  C   UNL     1      43.851 -19.731   3.157  1.00  0.00     0.009 A 
HETATM   27  C   UNL     1      43.559 -18.731   2.221  1.00  0.00     0.032 A 
HETATM   28  N   UNL     1      43.013 -16.276   2.082  1.00  0.00    -0.277 N 
HETATM   29  H   UNL     1      42.898 -16.128   1.085  1.00  0.00     0.189 HD
HETATM   30  N   UNL     1      42.856 -15.224   2.904  1.00  0.00    -0.168 NA
ENDBRANCH   1  20
TORSDOF 4
ENDMDL
MODEL 9
REMARK VINA RESULT:      -8.6      2.358      3.595
REMARK  4 active torsions:
REMARK  status: ('A' for Active; 'I' for Inactive)
REMARK    1  A    between atoms: C_9  and  C_10 
REMARK       I    between atoms: C_10  and  N_11 
REMARK    2  A    between atoms: N_11  and  N_12 
REMARK       I    between atoms: N_12  and  C_13 
REMARK    3  A    between atoms: C_13  and  C_14 
REMARK    4  A    between atoms: C_14  and  C_15 
ROOT
HETATM    1  C   UNL     1      41.370 -15.091   1.630  1.00  0.00     0.291 C 
HETATM    2  N   UNL     1      41.872 -13.941   1.050  1.00  0.00    -0.262 N 
HETATM    3  O   UNL     1      40.355 -15.650   1.216  1.00  0.00    -0.264 OA
HETATM    4  H   UNL     1      42.798 -13.605   1.325  1.00  0.00     0.190 HD
ENDROOT
BRANCH   2   5
HETATM    5  N   UNL     1      41.322 -13.475  -0.148  1.00  0.00    -0.267 N 
HETATM    6  C   UNL     1      40.466 -12.389  -0.089  1.00  0.00     0.236 C 
HETATM    7  O   UNL     1      40.078 -11.912   0.973  1.00  0.00    -0.272 OA
HETATM    8  H   UNL     1      41.822 -13.726  -0.999  1.00  0.00     0.190 HD
BRANCH   6   9
HETATM    9  C   UNL     1      40.070 -11.893  -1.472  1.00  0.00     0.114 C 
BRANCH   9  10
HETATM   10  C   UNL     1      40.351 -10.411  -1.805  1.00  0.00    -0.031 C 
HETATM   11  C   UNL     1      41.701  -9.928  -1.216  1.00  0.00     0.014 C 
HETATM   12  C   UNL     1      41.980  -8.469  -1.619  1.00  0.00    -0.013 C 
HETATM   13  C   UNL     1      40.840  -7.574  -1.104  1.00  0.00     0.009 C 
HETATM   14  C   UNL     1      42.050  -8.368  -3.152  1.00  0.00     0.009 C 
HETATM   15  C   UNL     1      39.501  -8.017  -1.716  1.00  0.00    -0.013 C 
HETATM   16  C   UNL     1      39.217  -9.475  -1.315  1.00  0.00     0.014 C 
HETATM   17  C   UNL     1      39.586  -7.919  -3.247  1.00  0.00     0.009 C 
HETATM   18  C   UNL     1      40.717  -8.819  -3.767  1.00  0.00    -0.013 C 
HETATM   19  C   UNL     1      40.436 -10.273  -3.354  1.00  0.00     0.014 C 
ENDBRANCH   9  10
ENDBRANCH   6   9
ENDBRANCH   2   5
BRANCH   1  20
HETATM   20  C   UNL     1      42.169 -15.566   2.766  1.00  0.00     0.158 A 
HETATM   21  C   UNL     1      42.772 -16.849   2.926  1.00  0.00     0.029 A 
HETATM   22  C   UNL     1      42.849 -18.037   2.171  1.00  0.00     0.023 A 
HETATM   23  C   UNL     1      43.408 -16.800   4.160  1.00  0.00     0.063 A 
HETATM   24  C   UNL     1      43.568 -19.134   2.677  1.00  0.00    -0.061 A 
HETATM   25  C   UNL     1      43.643 -20.417   1.899  1.00  0.00     0.048 C 
HETATM   26  C   UNL     1      44.184 -19.045   3.932  1.00  0.00     0.009 A 
HETATM   27  C   UNL     1      44.120 -17.875   4.699  1.00  0.00     0.032 A 
HETATM   28  N   UNL     1      43.162 -15.545   4.643  1.00  0.00    -0.277 N 
HETATM   29  H   UNL     1      43.474 -15.154   5.525  1.00  0.00     0.189 HD
HETATM   30  N   UNL     1      42.419 -14.773   3.831  1.00  0.00    -0.168 NA
ENDBRANCH   1  20
TORSDOF 4
ENDMDL
MODEL 10
REMARK VINA RESULT:      -8.4      7.284     10.490
REMARK  4 active torsions:
REMARK  status: ('A' for Active; 'I' for Inactive)
REMARK    1  A    between atoms: C_9  and  C_10 
REMARK       I    between atoms: C_10  and  N_11 
REMARK    2  A    between atoms: N_11  and  N_12 
REMARK       I    between atoms: N_12  and  C_13 
REMARK    3  A    between atoms: C_13  and  C_14 
REMARK    4  A    between atoms: C_14  and  C_15 
ROOT
HETATM    1  C   UNL     1      44.259 -10.004   9.493  1.00  0.00     0.291 C 
HETATM    2  N   UNL     1      43.469 -10.737   8.626  1.00  0.00    -0.262 N 
HETATM    3  O   UNL     1      45.321 -10.434   9.942  1.00  0.00    -0.264 OA
HETATM    4  H   UNL     1      42.683 -10.280   8.159  1.00  0.00     0.190 HD
ENDROOT
BRANCH   2   5
HETATM    5  N   UNL     1      43.953 -11.936   8.098  1.00  0.00    -0.267 N 
HETATM    6  C   UNL     1      43.682 -12.216   6.769  1.00  0.00     0.236 C 
HETATM    7  O   UNL     1      42.934 -11.521   6.089  1.00  0.00    -0.272 OA
HETATM    8  H   UNL     1      44.735 -12.362   8.593  1.00  0.00     0.190 HD
BRANCH   6   9
HETATM    9  C   UNL     1      44.398 -13.469   6.288  1.00  0.00     0.114 C 
BRANCH   9  10
HETATM   10  C   UNL     1      43.535 -14.718   6.002  1.00  0.00    -0.031 C 
HETATM   11  C   UNL     1      42.410 -14.900   7.054  1.00  0.00     0.014 C 
HETATM   12  C   UNL     1      41.530 -16.114   6.705  1.00  0.00    -0.013 C 
HETATM   13  C   UNL     1      42.406 -17.378   6.656  1.00  0.00     0.009 C 
HETATM   14  C   UNL     1      40.882 -15.894   5.328  1.00  0.00     0.009 C 
HETATM   15  C   UNL     1      43.498 -17.225   5.585  1.00  0.00    -0.013 C 
HETATM   16  C   UNL     1      44.382 -16.014   5.931  1.00  0.00     0.014 C 
HETATM   17  C   UNL     1      42.839 -16.999   4.217  1.00  0.00     0.009 C 
HETATM   18  C   UNL     1      41.971 -15.731   4.257  1.00  0.00    -0.013 C 
HETATM   19  C   UNL     1      42.854 -14.525   4.614  1.00  0.00     0.014 C 
ENDBRANCH   9  10
ENDBRANCH   6   9
ENDBRANCH   2   5
BRANCH   1  20
HETATM   20  C   UNL     1      43.706  -8.680   9.806  1.00  0.00     0.158 A 
HETATM   21  C   UNL     1      43.154  -8.241  11.047  1.00  0.00     0.029 A 
HETATM   22  C   UNL     1      42.935  -8.808  12.318  1.00  0.00     0.023 A 
HETATM   23  C   UNL     1      42.772  -6.924  10.827  1.00  0.00     0.063 A 
HETATM   24  C   UNL     1      42.347  -8.030  13.331  1.00  0.00    -0.061 A 
HETATM   25  C   UNL     1      42.085  -8.621  14.687  1.00  0.00     0.048 C 
HETATM   26  C   UNL     1      41.966  -6.709  13.063  1.00  0.00     0.009 A 
HETATM   27  C   UNL     1      42.174  -6.127  11.806  1.00  0.00     0.032 A 
HETATM   28  N   UNL     1      43.106  -6.663   9.528  1.00  0.00    -0.277 N 
HETATM   29  H   UNL     1      42.972  -5.794   9.022  1.00  0.00     0.189 HD
HETATM   30  N   UNL     1      43.671  -7.696   8.881  1.00  0.00    -0.168 NA
ENDBRANCH   1  20
TORSDOF 4
ENDMDL
