MODEL 1
REMARK VINA RESULT:      -7.6      0.000      0.000
REMARK  11 active torsions:
REMARK  status: ('A' for Active; 'I' for Inactive)
REMARK    1  A    between atoms: C_2  and  N_3 
REMARK    2  A    between atoms: N_3  and  C_5 
REMARK    3  A    between atoms: N_3  and  C_34 
REMARK    4  A    between atoms: C_5  and  C_6 
REMARK    5  A    between atoms: C_6  and  C_7 
REMARK    6  A    between atoms: C_7  and  N_8 
REMARK       I    between atoms: N_8  and  C_9 
REMARK    7  A    between atoms: C_9  and  C_10 
REMARK    8  A    between atoms: C_10  and  O_11 
REMARK    9  A    between atoms: N_12  and  C_13 
REMARK   10  A    between atoms: C_14  and  O_15 
REMARK   11  A    between atoms: C_18  and  O_19 
ROOT
HETATM    1  C   UNL     1      43.345 -11.977   6.530  1.00  0.00     0.256 C 
HETATM    2  N   UNL     1      43.907 -11.676   5.209  1.00  0.00    -0.251 N 
HETATM    3  C   UNL     1      45.250 -11.372   5.064  1.00  0.00     0.330 C 
HETATM    4  O   UNL     1      45.881 -11.409   4.008  1.00  0.00    -0.246 OA
HETATM    5  N   UNL     1      45.913 -10.957   6.186  1.00  0.00    -0.308 N 
HETATM    6  C   UNL     1      45.319 -10.740   7.425  1.00  0.00     0.048 A 
HETATM    7  C   UNL     1      44.019 -11.187   7.634  1.00  0.00     0.035 A 
HETATM    8  C   UNL     1      46.025 -10.078   8.430  1.00  0.00     0.031 A 
HETATM    9  C   UNL     1      45.418  -9.851   9.666  1.00  0.00     0.021 A 
HETATM   10  C   UNL     1      44.117 -10.297   9.890  1.00  0.00     0.011 A 
HETATM   11 BR   UNL     1      43.299 -10.007  11.568  1.00  0.00    -0.051 Br
HETATM   12  C   UNL     1      43.419 -10.968   8.886  1.00  0.00     0.034 A 
HETATM   13  H   UNL     1      46.851 -10.620   6.012  1.00  0.00     0.170 HD
ENDROOT
BRANCH   1  14
HETATM   14  C   UNL     1      43.495 -13.526   6.882  1.00  0.00     0.279 C 
HETATM   15  N   UNL     1      42.323 -14.253   7.058  1.00  0.00    -0.356 N 
HETATM   16  H   UNL     1      41.566 -13.717   7.479  1.00  0.00     0.162 HD
HETATM   17  O   UNL     1      44.598 -14.082   6.889  1.00  0.00    -0.268 OA
BRANCH  15  18
HETATM   18  C   UNL     1      42.383 -15.669   7.349  1.00  0.00     0.124 C 
BRANCH  18  19
HETATM   19  C   UNL     1      42.234 -16.506   6.079  1.00  0.00     0.047 C 
BRANCH  19  20
HETATM   20  C   UNL     1      43.226 -17.665   6.100  1.00  0.00     0.236 C 
BRANCH  20  21
HETATM   21  N   UNL     1      43.921 -17.895   4.765  1.00  0.00    -0.072 N 
HETATM   22  H   UNL     1      44.913 -17.676   4.938  1.00  0.00     0.279 HD
BRANCH  21  23
HETATM   23  C   UNL     1      43.499 -16.950   3.648  1.00  0.00     0.230 C 
HETATM   24  C   UNL     1      43.196 -17.704   2.366  1.00  0.00     0.034 C 
ENDBRANCH  21  23
BRANCH  21  25
HETATM   25  C   UNL     1      43.916 -19.332   4.271  1.00  0.00     0.230 C 
HETATM   26  C   UNL     1      44.096 -20.316   5.413  1.00  0.00     0.034 C 
ENDBRANCH  21  25
ENDBRANCH  20  21
ENDBRANCH  19  20
ENDBRANCH  18  19
ENDBRANCH  15  18
ENDBRANCH   1  14
BRANCH   1  27
HETATM   27  O   UNL     1      41.966 -11.606   6.568  1.00  0.00    -0.359 OA
HETATM   28  H   UNL     1      41.905 -10.866   7.197  1.00  0.00     0.213 HD
ENDBRANCH   1  27
BRANCH   2  29
HETATM   29  C   UNL     1      43.127 -11.975   4.054  1.00  0.00     0.076 A 
HETATM   30  C   UNL     1      42.209 -11.067   3.500  1.00  0.00     0.098 A 
HETATM   31  C   UNL     1      41.447 -11.434   2.378  1.00  0.00     0.075 A 
HETATM   32  C   UNL     1      41.564 -12.717   1.837  1.00  0.00     0.070 A 
HETATM   33  C   UNL     1      42.466 -13.620   2.397  1.00  0.00     0.039 A 
HETATM   34  C   UNL     1      43.242 -13.254   3.497  1.00  0.00     0.035 A 
BRANCH  30  35
HETATM   35  O   UNL     1      42.165  -9.793   4.022  1.00  0.00    -0.354 OA
HETATM   36  C   UNL     1      40.831  -9.297   4.158  1.00  0.00     0.210 C 
ENDBRANCH  30  35
BRANCH  32  37
HETATM   37  O   UNL     1      40.875 -13.204   0.761  1.00  0.00    -0.356 OA
HETATM   38  C   UNL     1      40.421 -14.549   0.834  1.00  0.00     0.210 C 
ENDBRANCH  32  37
ENDBRANCH   2  29
TORSDOF 11
ENDMDL
MODEL 2
REMARK VINA RESULT:      -7.4      3.599      7.036
REMARK  11 active torsions:
REMARK  status: ('A' for Active; 'I' for Inactive)
REMARK    1  A    between atoms: C_2  and  N_3 
REMARK    2  A    between atoms: N_3  and  C_5 
REMARK    3  A    between atoms: N_3  and  C_34 
REMARK    4  A    between atoms: C_5  and  C_6 
REMARK    5  A    between atoms: C_6  and  C_7 
REMARK    6  A    between atoms: C_7  and  N_8 
REMARK       I    between atoms: N_8  and  C_9 
REMARK    7  A    between atoms: C_9  and  C_10 
REMARK    8  A    between atoms: C_10  and  O_11 
REMARK    9  A    between atoms: N_12  and  C_13 
REMARK   10  A    between atoms: C_14  and  O_15 
REMARK   11  A    between atoms: C_18  and  O_19 
ROOT
HETATM    1  C   UNL     1      41.535 -13.825   3.788  1.00  0.00     0.256 C 
HETATM    2  N   UNL     1      41.446 -15.074   4.552  1.00  0.00    -0.251 N 
HETATM    3  C   UNL     1      40.431 -15.271   5.473  1.00  0.00     0.330 C 
HETATM    4  O   UNL     1      40.080 -16.358   5.929  1.00  0.00    -0.246 OA
HETATM    5  N   UNL     1      39.799 -14.151   5.940  1.00  0.00    -0.308 N 
HETATM    6  C   UNL     1      40.157 -12.845   5.624  1.00  0.00     0.048 A 
HETATM    7  C   UNL     1      41.059 -12.629   4.588  1.00  0.00     0.035 A 
HETATM    8  C   UNL     1      39.619 -11.780   6.347  1.00  0.00     0.031 A 
HETATM    9  C   UNL     1      39.994 -10.473   6.033  1.00  0.00     0.021 A 
HETATM   10  C   UNL     1      40.894 -10.242   4.994  1.00  0.00     0.011 A 
HETATM   11 BR   UNL     1      41.390  -8.473   4.557  1.00  0.00    -0.051 Br
HETATM   12  C   UNL     1      41.422 -11.309   4.268  1.00  0.00     0.034 A 
HETATM   13  H   UNL     1      39.159 -14.326   6.705  1.00  0.00     0.170 HD
ENDROOT
BRANCH   1  14
HETATM   14  C   UNL     1      40.657 -13.898   2.457  1.00  0.00     0.279 C 
HETATM   15  N   UNL     1      41.278 -13.534   1.268  1.00  0.00    -0.356 N 
HETATM   16  H   UNL     1      41.963 -12.788   1.372  1.00  0.00     0.162 HD
HETATM   17  O   UNL     1      39.513 -14.362   2.465  1.00  0.00    -0.268 OA
BRANCH  15  18
HETATM   18  C   UNL     1      40.552 -13.606   0.019  1.00  0.00     0.124 C 
BRANCH  18  19
HETATM   19  C   UNL     1      40.827 -12.384  -0.858  1.00  0.00     0.047 C 
BRANCH  19  20
HETATM   20  C   UNL     1      39.772 -11.312  -0.600  1.00  0.00     0.236 C 
BRANCH  20  21
HETATM   21  N   UNL     1      38.373 -11.873  -0.390  1.00  0.00    -0.072 N 
HETATM   22  H   UNL     1      38.517 -12.857  -0.118  1.00  0.00     0.279 HD
BRANCH  21  23
HETATM   23  C   UNL     1      37.508 -11.934  -1.641  1.00  0.00     0.230 C 
HETATM   24  C   UNL     1      37.645 -13.271  -2.348  1.00  0.00     0.034 C 
ENDBRANCH  21  23
BRANCH  21  25
HETATM   25  C   UNL     1      37.593 -11.258   0.761  1.00  0.00     0.230 C 
HETATM   26  C   UNL     1      38.477 -11.028   1.974  1.00  0.00     0.034 C 
ENDBRANCH  21  25
ENDBRANCH  20  21
ENDBRANCH  19  20
ENDBRANCH  18  19
ENDBRANCH  15  18
ENDBRANCH   1  14
BRANCH   1  27
HETATM   27  O   UNL     1      42.897 -13.556   3.452  1.00  0.00    -0.359 OA
HETATM   28  H   UNL     1      43.249 -13.008   4.176  1.00  0.00     0.213 HD
ENDBRANCH   1  27
BRANCH   2  29
HETATM   29  C   UNL     1      42.239 -16.183   4.135  1.00  0.00     0.076 A 
HETATM   30  C   UNL     1      43.393 -16.595   4.824  1.00  0.00     0.098 A 
HETATM   31  C   UNL     1      44.148 -17.678   4.343  1.00  0.00     0.075 A 
HETATM   32  C   UNL     1      43.785 -18.320   3.156  1.00  0.00     0.070 A 
HETATM   33  C   UNL     1      42.647 -17.900   2.469  1.00  0.00     0.039 A 
HETATM   34  C   UNL     1      41.879 -16.840   2.952  1.00  0.00     0.035 A 
BRANCH  30  35
HETATM   35  O   UNL     1      43.685 -15.980   6.020  1.00  0.00    -0.354 OA
HETATM   36  C   UNL     1      43.554 -16.859   7.140  1.00  0.00     0.210 C 
ENDBRANCH  30  35
BRANCH  32  37
HETATM   37  O   UNL     1      44.437 -19.371   2.575  1.00  0.00    -0.356 OA
HETATM   38  C   UNL     1      43.640 -20.362   1.941  1.00  0.00     0.210 C 
ENDBRANCH  32  37
ENDBRANCH   2  29
TORSDOF 11
ENDMDL
MODEL 3
REMARK VINA RESULT:      -7.2      2.977      6.335
REMARK  11 active torsions:
REMARK  status: ('A' for Active; 'I' for Inactive)
REMARK    1  A    between atoms: C_2  and  N_3 
REMARK    2  A    between atoms: N_3  and  C_5 
REMARK    3  A    between atoms: N_3  and  C_34 
REMARK    4  A    between atoms: C_5  and  C_6 
REMARK    5  A    between atoms: C_6  and  C_7 
REMARK    6  A    between atoms: C_7  and  N_8 
REMARK       I    between atoms: N_8  and  C_9 
REMARK    7  A    between atoms: C_9  and  C_10 
REMARK    8  A    between atoms: C_10  and  O_11 
REMARK    9  A    between atoms: N_12  and  C_13 
REMARK   10  A    between atoms: C_14  and  O_15 
REMARK   11  A    between atoms: C_18  and  O_19 
ROOT
HETATM    1  C   UNL     1      41.691 -14.792   2.673  1.00  0.00     0.256 C 
HETATM    2  N   UNL     1      40.460 -14.165   2.179  1.00  0.00    -0.251 N 
HETATM    3  C   UNL     1      39.624 -13.474   3.039  1.00  0.00     0.330 C 
HETATM    4  O   UNL     1      38.758 -12.667   2.700  1.00  0.00    -0.246 OA
HETATM    5  N   UNL     1      39.750 -13.747   4.374  1.00  0.00    -0.308 N 
HETATM    6  C   UNL     1      40.588 -14.719   4.910  1.00  0.00     0.048 A 
HETATM    7  C   UNL     1      41.544 -15.308   4.090  1.00  0.00     0.035 A 
HETATM    8  C   UNL     1      40.455 -15.092   6.248  1.00  0.00     0.031 A 
HETATM    9  C   UNL     1      41.290 -16.078   6.776  1.00  0.00     0.021 A 
HETATM   10  C   UNL     1      42.254 -16.675   5.965  1.00  0.00     0.011 A 
HETATM   11 BR   UNL     1      43.396 -17.998   6.682  1.00  0.00    -0.051 Br
HETATM   12  C   UNL     1      42.390 -16.292   4.632  1.00  0.00     0.034 A 
HETATM   13  H   UNL     1      39.036 -13.323   4.952  1.00  0.00     0.170 HD
ENDROOT
BRANCH   1  14
HETATM   14  C   UNL     1      42.910 -13.762   2.657  1.00  0.00     0.279 C 
HETATM   15  N   UNL     1      42.834 -12.677   3.523  1.00  0.00    -0.356 N 
HETATM   16  H   UNL     1      41.888 -12.327   3.663  1.00  0.00     0.162 HD
HETATM   17  O   UNL     1      43.925 -13.975   1.988  1.00  0.00    -0.268 OA
BRANCH  15  18
HETATM   18  C   UNL     1      43.917 -11.720   3.584  1.00  0.00     0.124 C 
BRANCH  18  19
HETATM   19  C   UNL     1      44.384 -11.496   5.021  1.00  0.00     0.047 C 
BRANCH  19  20
HETATM   20  C   UNL     1      43.510 -12.297   5.982  1.00  0.00     0.236 C 
BRANCH  20  21
HETATM   21  N   UNL     1      42.643 -11.429   6.884  1.00  0.00    -0.072 N 
HETATM   22  H   UNL     1      42.379 -12.039   7.671  1.00  0.00     0.279 HD
BRANCH  21  23
HETATM   23  C   UNL     1      41.323 -10.982   6.272  1.00  0.00     0.230 C 
HETATM   24  C   UNL     1      41.384  -9.538   5.807  1.00  0.00     0.034 C 
ENDBRANCH  21  23
BRANCH  21  25
HETATM   25  C   UNL     1      43.354 -10.247   7.524  1.00  0.00     0.230 C 
HETATM   26  C   UNL     1      44.250 -10.688   8.668  1.00  0.00     0.034 C 
ENDBRANCH  21  25
ENDBRANCH  20  21
ENDBRANCH  19  20
ENDBRANCH  18  19
ENDBRANCH  15  18
ENDBRANCH   1  14
BRANCH   1  27
HETATM   27  O   UNL     1      42.012 -15.931   1.872  1.00  0.00    -0.359 OA
HETATM   28  H   UNL     1      41.580 -15.785   1.012  1.00  0.00     0.213 HD
ENDBRANCH   1  27
BRANCH   2  29
HETATM   29  C   UNL     1      40.281 -14.034   0.771  1.00  0.00     0.076 A 
HETATM   30  C   UNL     1      40.661 -12.883   0.060  1.00  0.00     0.098 A 
HETATM   31  C   UNL     1      40.430 -12.804  -1.324  1.00  0.00     0.075 A 
HETATM   32  C   UNL     1      39.780 -13.847  -1.991  1.00  0.00     0.070 A 
HETATM   33  C   UNL     1      39.393 -14.981  -1.279  1.00  0.00     0.039 A 
HETATM   34  C   UNL     1      39.640 -15.076   0.090  1.00  0.00     0.035 A 
BRANCH  30  35
HETATM   35  O   UNL     1      41.353 -11.904   0.737  1.00  0.00    -0.354 OA
HETATM   36  C   UNL     1      40.813 -10.598   0.522  1.00  0.00     0.210 C 
ENDBRANCH  30  35
BRANCH  32  37
HETATM   37  O   UNL     1      39.483 -13.890  -3.324  1.00  0.00    -0.356 OA
HETATM   38  C   UNL     1      38.296 -14.572  -3.704  1.00  0.00     0.210 C 
ENDBRANCH  32  37
ENDBRANCH   2  29
TORSDOF 11
ENDMDL
MODEL 4
REMARK VINA RESULT:      -7.0      3.015      6.803
REMARK  11 active torsions:
REMARK  status: ('A' for Active; 'I' for Inactive)
REMARK    1  A    between atoms: C_2  and  N_3 
REMARK    2  A    between atoms: N_3  and  C_5 
REMARK    3  A    between atoms: N_3  and  C_34 
REMARK    4  A    between atoms: C_5  and  C_6 
REMARK    5  A    between atoms: C_6  and  C_7 
REMARK    6  A    between atoms: C_7  and  N_8 
REMARK       I    between atoms: N_8  and  C_9 
REMARK    7  A    between atoms: C_9  and  C_10 
REMARK    8  A    between atoms: C_10  and  O_11 
REMARK    9  A    between atoms: N_12  and  C_13 
REMARK   10  A    between atoms: C_14  and  O_15 
REMARK   11  A    between atoms: C_18  and  O_19 
ROOT
HETATM    1  C   UNL     1      42.348 -13.545   2.766  1.00  0.00     0.256 C 
HETATM    2  N   UNL     1      41.090 -12.950   2.301  1.00  0.00    -0.251 N 
HETATM    3  C   UNL     1      39.970 -12.935   3.115  1.00  0.00     0.330 C 
HETATM    4  O   UNL     1      38.986 -12.213   2.964  1.00  0.00    -0.246 OA
HETATM    5  N   UNL     1      39.948 -13.831   4.149  1.00  0.00    -0.308 N 
HETATM    6  C   UNL     1      40.919 -14.800   4.382  1.00  0.00     0.048 A 
HETATM    7  C   UNL     1      42.118 -14.730   3.682  1.00  0.00     0.035 A 
HETATM    8  C   UNL     1      40.677 -15.821   5.302  1.00  0.00     0.031 A 
HETATM    9  C   UNL     1      41.651 -16.797   5.521  1.00  0.00     0.021 A 
HETATM   10  C   UNL     1      42.858 -16.737   4.827  1.00  0.00     0.011 A 
HETATM   11 BR   UNL     1      44.183 -18.048   5.135  1.00  0.00    -0.051 Br
HETATM   12  C   UNL     1      43.099 -15.710   3.917  1.00  0.00     0.034 A 
HETATM   13  H   UNL     1      39.062 -13.879   4.636  1.00  0.00     0.170 HD
ENDROOT
BRANCH   1  14
HETATM   14  C   UNL     1      43.229 -12.480   3.564  1.00  0.00     0.279 C 
HETATM   15  N   UNL     1      43.007 -12.373   4.932  1.00  0.00    -0.356 N 
HETATM   16  H   UNL     1      42.038 -12.522   5.207  1.00  0.00     0.162 HD
HETATM   17  O   UNL     1      44.142 -11.858   3.015  1.00  0.00    -0.268 OA
BRANCH  15  18
HETATM   18  C   UNL     1      43.792 -11.450   5.724  1.00  0.00     0.124 C 
BRANCH  18  19
HETATM   19  C   UNL     1      44.069 -12.008   7.120  1.00  0.00     0.047 C 
BRANCH  19  20
HETATM   20  C   UNL     1      44.424 -10.871   8.074  1.00  0.00     0.236 C 
BRANCH  20  21
HETATM   21  N   UNL     1      43.347 -10.591   9.113  1.00  0.00    -0.072 N 
HETATM   22  H   UNL     1      42.761 -11.439   9.128  1.00  0.00     0.279 HD
BRANCH  21  23
HETATM   23  C   UNL     1      42.391  -9.460   8.762  1.00  0.00     0.230 C 
HETATM   24  C   UNL     1      43.087  -8.370   7.966  1.00  0.00     0.034 C 
ENDBRANCH  21  23
BRANCH  21  25
HETATM   25  C   UNL     1      43.848 -10.436  10.540  1.00  0.00     0.230 C 
HETATM   26  C   UNL     1      45.257  -9.871  10.578  1.00  0.00     0.034 C 
ENDBRANCH  21  25
ENDBRANCH  20  21
ENDBRANCH  19  20
ENDBRANCH  18  19
ENDBRANCH  15  18
ENDBRANCH   1  14
BRANCH   1  27
HETATM   27  O   UNL     1      43.089 -14.047   1.653  1.00  0.00    -0.359 OA
HETATM   28  H   UNL     1      44.028 -13.925   1.880  1.00  0.00     0.213 HD
ENDBRANCH   1  27
BRANCH   2  29
HETATM   29  C   UNL     1      41.113 -12.145   1.126  1.00  0.00     0.076 A 
HETATM   30  C   UNL     1      40.910 -12.671  -0.162  1.00  0.00     0.098 A 
HETATM   31  C   UNL     1      40.976 -11.828  -1.284  1.00  0.00     0.075 A 
HETATM   32  C   UNL     1      41.288 -10.474  -1.131  1.00  0.00     0.070 A 
HETATM   33  C   UNL     1      41.501  -9.959   0.146  1.00  0.00     0.039 A 
HETATM   34  C   UNL     1      41.415 -10.785   1.267  1.00  0.00     0.035 A 
BRANCH  30  35
HETATM   35  O   UNL     1      40.545 -13.995  -0.269  1.00  0.00    -0.354 OA
HETATM   36  C   UNL     1      39.434 -14.192  -1.146  1.00  0.00     0.210 C 
ENDBRANCH  30  35
BRANCH  32  37
HETATM   37  O   UNL     1      41.397  -9.553  -2.135  1.00  0.00    -0.356 OA
HETATM   38  C   UNL     1      42.186  -8.400  -1.878  1.00  0.00     0.210 C 
ENDBRANCH  32  37
ENDBRANCH   2  29
TORSDOF 11
ENDMDL
MODEL 5
REMARK VINA RESULT:      -6.9      3.213      6.293
REMARK  11 active torsions:
REMARK  status: ('A' for Active; 'I' for Inactive)
REMARK    1  A    between atoms: C_2  and  N_3 
REMARK    2  A    between atoms: N_3  and  C_5 
REMARK    3  A    between atoms: N_3  and  C_34 
REMARK    4  A    between atoms: C_5  and  C_6 
REMARK    5  A    between atoms: C_6  and  C_7 
REMARK    6  A    between atoms: C_7  and  N_8 
REMARK       I    between atoms: N_8  and  C_9 
REMARK    7  A    between atoms: C_9  and  C_10 
REMARK    8  A    between atoms: C_10  and  O_11 
REMARK    9  A    between atoms: N_12  and  C_13 
REMARK   10  A    between atoms: C_14  and  O_15 
REMARK   11  A    between atoms: C_18  and  O_19 
ROOT
HETATM    1  C   UNL     1      41.703 -11.834   3.290  1.00  0.00     0.256 C 
HETATM    2  N   UNL     1      41.265 -11.966   4.684  1.00  0.00    -0.251 N 
HETATM    3  C   UNL     1      40.063 -12.582   4.993  1.00  0.00     0.330 C 
HETATM    4  O   UNL     1      39.747 -13.017   6.100  1.00  0.00    -0.246 OA
HETATM    5  N   UNL     1      39.141 -12.672   3.988  1.00  0.00    -0.308 N 
HETATM    6  C   UNL     1      39.290 -12.120   2.720  1.00  0.00     0.048 A 
HETATM    7  C   UNL     1      40.539 -11.642   2.339  1.00  0.00     0.035 A 
HETATM    8  C   UNL     1      38.196 -12.047   1.857  1.00  0.00     0.031 A 
HETATM    9  C   UNL     1      38.350 -11.479   0.592  1.00  0.00     0.021 A 
HETATM   10  C   UNL     1      39.597 -10.999   0.197  1.00  0.00     0.011 A 
HETATM   11 BR   UNL     1      39.812 -10.246  -1.522  1.00  0.00    -0.051 Br
HETATM   12  C   UNL     1      40.690 -11.083   1.057  1.00  0.00     0.034 A 
HETATM   13  H   UNL     1      38.234 -13.006   4.287  1.00  0.00     0.170 HD
ENDROOT
BRANCH   1  14
HETATM   14  C   UNL     1      42.510 -13.126   2.814  1.00  0.00     0.279 C 
HETATM   15  N   UNL     1      41.762 -14.229   2.417  1.00  0.00    -0.356 N 
HETATM   16  H   UNL     1      40.894 -14.347   2.935  1.00  0.00     0.162 HD
HETATM   17  O   UNL     1      43.739 -13.113   2.699  1.00  0.00    -0.268 OA
BRANCH  15  18
HETATM   18  C   UNL     1      42.427 -15.424   1.944  1.00  0.00     0.124 C 
BRANCH  18  19
HETATM   19  C   UNL     1      41.991 -16.656   2.736  1.00  0.00     0.047 C 
BRANCH  19  20
HETATM   20  C   UNL     1      43.024 -16.972   3.815  1.00  0.00     0.236 C 
BRANCH  20  21
HETATM   21  N   UNL     1      43.389 -18.448   3.891  1.00  0.00    -0.072 N 
HETATM   22  H   UNL     1      42.488 -18.945   3.946  1.00  0.00     0.279 HD
BRANCH  21  23
HETATM   23  C   UNL     1      44.143 -18.861   5.148  1.00  0.00     0.230 C 
HETATM   24  C   UNL     1      43.876 -20.312   5.506  1.00  0.00     0.034 C 
ENDBRANCH  21  23
BRANCH  21  25
HETATM   25  C   UNL     1      44.074 -19.012   2.656  1.00  0.00     0.230 C 
HETATM   26  C   UNL     1      43.245 -20.108   2.010  1.00  0.00     0.034 C 
ENDBRANCH  21  25
ENDBRANCH  20  21
ENDBRANCH  19  20
ENDBRANCH  18  19
ENDBRANCH  15  18
ENDBRANCH   1  14
BRANCH   1  27
HETATM   27  O   UNL     1      42.524 -10.674   3.146  1.00  0.00    -0.359 OA
HETATM   28  H   UNL     1      42.550 -10.253   4.023  1.00  0.00     0.213 HD
ENDBRANCH   1  27
BRANCH   2  29
HETATM   29  C   UNL     1      42.209 -11.711   5.721  1.00  0.00     0.076 A 
HETATM   30  C   UNL     1      42.376 -10.444   6.304  1.00  0.00     0.098 A 
HETATM   31  C   UNL     1      43.347 -10.251   7.301  1.00  0.00     0.075 A 
HETATM   32  C   UNL     1      44.182 -11.304   7.685  1.00  0.00     0.070 A 
HETATM   33  C   UNL     1      44.022 -12.557   7.094  1.00  0.00     0.039 A 
HETATM   34  C   UNL     1      43.045 -12.761   6.120  1.00  0.00     0.035 A 
BRANCH  30  35
HETATM   35  O   UNL     1      41.496  -9.447   5.945  1.00  0.00    -0.354 OA
HETATM   36  C   UNL     1      40.492  -9.214   6.936  1.00  0.00     0.210 C 
ENDBRANCH  30  35
BRANCH  32  37
HETATM   37  O   UNL     1      45.170 -11.248   8.627  1.00  0.00    -0.356 OA
HETATM   38  C   UNL     1      45.213 -10.097   9.458  1.00  0.00     0.210 C 
ENDBRANCH  32  37
ENDBRANCH   2  29
TORSDOF 11
ENDMDL
MODEL 6
REMARK VINA RESULT:      -6.7      3.481      6.705
REMARK  11 active torsions:
REMARK  status: ('A' for Active; 'I' for Inactive)
REMARK    1  A    between atoms: C_2  and  N_3 
REMARK    2  A    between atoms: N_3  and  C_5 
REMARK    3  A    between atoms: N_3  and  C_34 
REMARK    4  A    between atoms: C_5  and  C_6 
REMARK    5  A    between atoms: C_6  and  C_7 
REMARK    6  A    between atoms: C_7  and  N_8 
REMARK       I    between atoms: N_8  and  C_9 
REMARK    7  A    between atoms: C_9  and  C_10 
REMARK    8  A    between atoms: C_10  and  O_11 
REMARK    9  A    between atoms: N_12  and  C_13 
REMARK   10  A    between atoms: C_14  and  O_15 
REMARK   11  A    between atoms: C_18  and  O_19 
ROOT
HETATM    1  C   UNL     1      41.214 -12.598   4.264  1.00  0.00     0.256 C 
HETATM    2  N   UNL     1      41.131 -13.764   5.151  1.00  0.00    -0.251 N 
HETATM    3  C   UNL     1      40.184 -13.821   6.159  1.00  0.00     0.330 C 
HETATM    4  O   UNL     1      39.823 -14.842   6.743  1.00  0.00    -0.246 OA
HETATM    5  N   UNL     1      39.638 -12.633   6.560  1.00  0.00    -0.308 N 
HETATM    6  C   UNL     1      40.027 -11.382   6.091  1.00  0.00     0.048 A 
HETATM    7  C   UNL     1      40.854 -11.310   4.976  1.00  0.00     0.035 A 
HETATM    8  C   UNL     1      39.593 -10.227   6.744  1.00  0.00     0.031 A 
HETATM    9  C   UNL     1      39.998  -8.976   6.277  1.00  0.00     0.021 A 
HETATM   10  C   UNL     1      40.825  -8.890   5.158  1.00  0.00     0.011 A 
HETATM   11 BR   UNL     1      41.361  -7.197   4.514  1.00  0.00    -0.051 Br
HETATM   12  C   UNL     1      41.248 -10.046   4.503  1.00  0.00     0.034 A 
HETATM   13  H   UNL     1      39.053 -12.702   7.382  1.00  0.00     0.170 HD
ENDROOT
BRANCH   1  14
HETATM   14  C   UNL     1      40.233 -12.752   3.015  1.00  0.00     0.279 C 
HETATM   15  N   UNL     1      40.818 -12.838   1.757  1.00  0.00    -0.356 N 
HETATM   16  H   UNL     1      41.667 -12.284   1.658  1.00  0.00     0.162 HD
HETATM   17  O   UNL     1      39.017 -12.900   3.165  1.00  0.00    -0.268 OA
BRANCH  15  18
HETATM   18  C   UNL     1      39.991 -13.010   0.582  1.00  0.00     0.124 C 
BRANCH  18  19
HETATM   19  C   UNL     1      39.997 -14.461   0.103  1.00  0.00     0.047 C 
BRANCH  19  20
HETATM   20  C   UNL     1      39.545 -14.529  -1.354  1.00  0.00     0.236 C 
BRANCH  20  21
HETATM   21  N   UNL     1      39.183 -13.172  -1.942  1.00  0.00    -0.072 N 
HETATM   22  H   UNL     1      39.422 -12.489  -1.208  1.00  0.00     0.279 HD
BRANCH  21  23
HETATM   23  C   UNL     1      37.699 -12.960  -2.207  1.00  0.00     0.230 C 
HETATM   24  C   UNL     1      37.279 -11.531  -1.912  1.00  0.00     0.034 C 
ENDBRANCH  21  23
BRANCH  21  25
HETATM   25  C   UNL     1      40.001 -12.751  -3.152  1.00  0.00     0.230 C 
HETATM   26  C   UNL     1      41.132 -11.817  -2.763  1.00  0.00     0.034 C 
ENDBRANCH  21  25
ENDBRANCH  20  21
ENDBRANCH  19  20
ENDBRANCH  18  19
ENDBRANCH  15  18
ENDBRANCH   1  14
BRANCH   1  27
HETATM   27  O   UNL     1      42.556 -12.431   3.804  1.00  0.00    -0.359 OA
HETATM   28  H   UNL     1      42.508 -11.811   3.056  1.00  0.00     0.213 HD
ENDBRANCH   1  27
BRANCH   2  29
HETATM   29  C   UNL     1      41.841 -14.946   4.787  1.00  0.00     0.076 A 
HETATM   30  C   UNL     1      43.017 -15.358   5.437  1.00  0.00     0.098 A 
HETATM   31  C   UNL     1      43.686 -16.517   5.010  1.00  0.00     0.075 A 
HETATM   32  C   UNL     1      43.214 -17.240   3.911  1.00  0.00     0.070 A 
HETATM   33  C   UNL     1      42.054 -16.821   3.261  1.00  0.00     0.039 A 
HETATM   34  C   UNL     1      41.372 -15.684   3.693  1.00  0.00     0.035 A 
BRANCH  30  35
HETATM   35  O   UNL     1      43.418 -14.657   6.553  1.00  0.00    -0.354 OA
HETATM   36  C   UNL     1      43.122 -15.343   7.771  1.00  0.00     0.210 C 
ENDBRANCH  30  35
BRANCH  32  37
HETATM   37  O   UNL     1      43.775 -18.371   3.388  1.00  0.00    -0.356 OA
HETATM   38  C   UNL     1      44.298 -19.322   4.304  1.00  0.00     0.210 C 
ENDBRANCH  32  37
ENDBRANCH   2  29
TORSDOF 11
ENDMDL
MODEL 7
REMARK VINA RESULT:      -6.7      3.075      6.965
REMARK  11 active torsions:
REMARK  status: ('A' for Active; 'I' for Inactive)
REMARK    1  A    between atoms: C_2  and  N_3 
REMARK    2  A    between atoms: N_3  and  C_5 
REMARK    3  A    between atoms: N_3  and  C_34 
REMARK    4  A    between atoms: C_5  and  C_6 
REMARK    5  A    between atoms: C_6  and  C_7 
REMARK    6  A    between atoms: C_7  and  N_8 
REMARK       I    between atoms: N_8  and  C_9 
REMARK    7  A    between atoms: C_9  and  C_10 
REMARK    8  A    between atoms: C_10  and  O_11 
REMARK    9  A    between atoms: N_12  and  C_13 
REMARK   10  A    between atoms: C_14  and  O_15 
REMARK   11  A    between atoms: C_18  and  O_19 
ROOT
HETATM    1  C   UNL     1      40.628 -12.463   3.846  1.00  0.00     0.256 C 
HETATM    2  N   UNL     1      42.084 -12.634   3.784  1.00  0.00    -0.251 N 
HETATM    3  C   UNL     1      42.906 -11.581   3.420  1.00  0.00     0.330 C 
HETATM    4  O   UNL     1      44.116 -11.514   3.630  1.00  0.00    -0.246 OA
HETATM    5  N   UNL     1      42.321 -10.552   2.735  1.00  0.00    -0.308 N 
HETATM    6  C   UNL     1      40.997 -10.531   2.310  1.00  0.00     0.048 A 
HETATM    7  C   UNL     1      40.120 -11.493   2.797  1.00  0.00     0.035 A 
HETATM    8  C   UNL     1      40.571  -9.558   1.404  1.00  0.00     0.031 A 
HETATM    9  C   UNL     1      39.244  -9.552   0.971  1.00  0.00     0.021 A 
HETATM   10  C   UNL     1      38.354 -10.510   1.455  1.00  0.00     0.011 A 
HETATM   11 BR   UNL     1      36.554 -10.492   0.883  1.00  0.00    -0.051 Br
HETATM   12  C   UNL     1      38.782 -11.473   2.367  1.00  0.00     0.034 A 
HETATM   13  H   UNL     1      42.976  -9.870   2.374  1.00  0.00     0.170 HD
ENDROOT
BRANCH   1  14
HETATM   14  C   UNL     1      40.170 -11.917   5.273  1.00  0.00     0.279 C 
HETATM   15  N   UNL     1      40.743 -10.728   5.710  1.00  0.00    -0.356 N 
HETATM   16  H   UNL     1      41.710 -10.604   5.416  1.00  0.00     0.162 HD
HETATM   17  O   UNL     1      39.268 -12.464   5.914  1.00  0.00    -0.268 OA
BRANCH  15  18
HETATM   18  C   UNL     1      40.352 -10.158   6.981  1.00  0.00     0.124 C 
BRANCH  18  19
HETATM   19  C   UNL     1      41.545  -9.534   7.703  1.00  0.00     0.047 C 
BRANCH  19  20
HETATM   20  C   UNL     1      42.844 -10.152   7.192  1.00  0.00     0.236 C 
BRANCH  20  21
HETATM   21  N   UNL     1      43.978 -10.110   8.207  1.00  0.00    -0.072 N 
HETATM   22  H   UNL     1      44.456  -9.213   8.038  1.00  0.00     0.279 HD
BRANCH  21  23
HETATM   23  C   UNL     1      45.053 -11.171   8.017  1.00  0.00     0.230 C 
HETATM   24  C   UNL     1      45.639 -11.123   6.617  1.00  0.00     0.034 C 
ENDBRANCH  21  23
BRANCH  21  25
HETATM   25  C   UNL     1      43.544 -10.054   9.663  1.00  0.00     0.230 C 
HETATM   26  C   UNL     1      44.619  -9.443  10.543  1.00  0.00     0.034 C 
ENDBRANCH  21  25
ENDBRANCH  20  21
ENDBRANCH  19  20
ENDBRANCH  18  19
ENDBRANCH  15  18
ENDBRANCH   1  14
BRANCH   1  27
HETATM   27  O   UNL     1      39.980 -13.707   3.575  1.00  0.00    -0.359 OA
HETATM   28  H   UNL     1      40.215 -13.939   2.660  1.00  0.00     0.213 HD
ENDBRANCH   1  27
BRANCH   2  29
HETATM   29  C   UNL     1      42.656 -13.800   4.372  1.00  0.00     0.076 A 
HETATM   30  C   UNL     1      42.870 -14.988   3.652  1.00  0.00     0.098 A 
HETATM   31  C   UNL     1      43.411 -16.113   4.298  1.00  0.00     0.075 A 
HETATM   32  C   UNL     1      43.694 -16.072   5.666  1.00  0.00     0.070 A 
HETATM   33  C   UNL     1      43.467 -14.896   6.380  1.00  0.00     0.039 A 
HETATM   34  C   UNL     1      42.953 -13.768   5.740  1.00  0.00     0.035 A 
BRANCH  30  35
HETATM   35  O   UNL     1      42.637 -14.972   2.295  1.00  0.00    -0.354 OA
HETATM   36  C   UNL     1      43.103 -16.155   1.641  1.00  0.00     0.210 C 
ENDBRANCH  30  35
BRANCH  32  37
HETATM   37  O   UNL     1      44.206 -17.094   6.415  1.00  0.00    -0.356 OA
HETATM   38  C   UNL     1      43.456 -18.301   6.469  1.00  0.00     0.210 C 
ENDBRANCH  32  37
ENDBRANCH   2  29
TORSDOF 11
ENDMDL
MODEL 8
REMARK VINA RESULT:      -6.5     16.909     19.345
REMARK  11 active torsions:
REMARK  status: ('A' for Active; 'I' for Inactive)
REMARK    1  A    between atoms: C_2  and  N_3 
REMARK    2  A    between atoms: N_3  and  C_5 
REMARK    3  A    between atoms: N_3  and  C_34 
REMARK    4  A    between atoms: C_5  and  C_6 
REMARK    5  A    between atoms: C_6  and  C_7 
REMARK    6  A    between atoms: C_7  and  N_8 
REMARK       I    between atoms: N_8  and  C_9 
REMARK    7  A    between atoms: C_9  and  C_10 
REMARK    8  A    between atoms: C_10  and  O_11 
REMARK    9  A    between atoms: N_12  and  C_13 
REMARK   10  A    between atoms: C_14  and  O_15 
REMARK   11  A    between atoms: C_18  and  O_19 
ROOT
HETATM    1  C   UNL     1      46.725 -30.587  -0.438  1.00  0.00     0.256 C 
HETATM    2  N   UNL     1      47.389 -29.658   0.483  1.00  0.00    -0.251 N 
HETATM    3  C   UNL     1      46.920 -28.365   0.645  1.00  0.00     0.330 C 
HETATM    4  O   UNL     1      47.188 -27.619   1.586  1.00  0.00    -0.246 OA
HETATM    5  N   UNL     1      46.124 -27.869  -0.351  1.00  0.00    -0.308 N 
HETATM    6  C   UNL     1      45.830 -28.533  -1.538  1.00  0.00     0.048 A 
HETATM    7  C   UNL     1      46.153 -29.880  -1.651  1.00  0.00     0.035 A 
HETATM    8  C   UNL     1      45.225 -27.844  -2.590  1.00  0.00     0.031 A 
HETATM    9  C   UNL     1      44.945 -28.514  -3.783  1.00  0.00     0.021 A 
HETATM   10  C   UNL     1      45.262 -29.865  -3.908  1.00  0.00     0.011 A 
HETATM   11 BR   UNL     1      44.868 -30.776  -5.515  1.00  0.00    -0.051 Br
HETATM   12  C   UNL     1      45.856 -30.551  -2.850  1.00  0.00     0.034 A 
HETATM   13  H   UNL     1      45.913 -26.884  -0.261  1.00  0.00     0.170 HD
ENDROOT
BRANCH   1  14
HETATM   14  C   UNL     1      45.529 -31.359   0.282  1.00  0.00     0.279 C 
HETATM   15  N   UNL     1      44.260 -30.801   0.175  1.00  0.00    -0.356 N 
HETATM   16  H   UNL     1      44.257 -29.783   0.158  1.00  0.00     0.162 HD
HETATM   17  O   UNL     1      45.700 -32.458   0.816  1.00  0.00    -0.268 OA
BRANCH  15  18
HETATM   18  C   UNL     1      43.123 -31.463   0.777  1.00  0.00     0.124 C 
BRANCH  18  19
HETATM   19  C   UNL     1      42.282 -30.489   1.602  1.00  0.00     0.047 C 
BRANCH  19  20
HETATM   20  C   UNL     1      43.037 -30.092   2.867  1.00  0.00     0.236 C 
BRANCH  20  21
HETATM   21  N   UNL     1      42.444 -30.682   4.139  1.00  0.00    -0.072 N 
HETATM   22  H   UNL     1      42.670 -30.003   4.880  1.00  0.00     0.279 HD
BRANCH  21  23
HETATM   23  C   UNL     1      43.076 -31.989   4.599  1.00  0.00     0.230 C 
HETATM   24  C   UNL     1      44.535 -32.077   4.187  1.00  0.00     0.034 C 
ENDBRANCH  21  23
BRANCH  21  25
HETATM   25  C   UNL     1      40.929 -30.794   4.157  1.00  0.00     0.230 C 
HETATM   26  C   UNL     1      40.469 -32.026   4.917  1.00  0.00     0.034 C 
ENDBRANCH  21  25
ENDBRANCH  20  21
ENDBRANCH  19  20
ENDBRANCH  18  19
ENDBRANCH  15  18
ENDBRANCH   1  14
BRANCH   1  27
HETATM   27  O   UNL     1      47.672 -31.529  -0.944  1.00  0.00    -0.359 OA
HETATM   28  H   UNL     1      47.224 -31.997  -1.670  1.00  0.00     0.213 HD
ENDBRANCH   1  27
BRANCH   2  29
HETATM   29  C   UNL     1      48.335 -30.181   1.411  1.00  0.00     0.076 A 
HETATM   30  C   UNL     1      49.698 -30.334   1.104  1.00  0.00     0.098 A 
HETATM   31  C   UNL     1      50.575 -30.886   2.053  1.00  0.00     0.075 A 
HETATM   32  C   UNL     1      50.090 -31.327   3.287  1.00  0.00     0.070 A 
HETATM   33  C   UNL     1      48.736 -31.186   3.584  1.00  0.00     0.039 A 
HETATM   34  C   UNL     1      47.863 -30.618   2.655  1.00  0.00     0.035 A 
BRANCH  30  35
HETATM   35  O   UNL     1      50.150 -29.833  -0.097  1.00  0.00    -0.354 OA
HETATM   36  C   UNL     1      50.994 -30.750  -0.796  1.00  0.00     0.210 C 
ENDBRANCH  30  35
BRANCH  32  37
HETATM   37  O   UNL     1      50.830 -31.892   4.289  1.00  0.00    -0.356 OA
HETATM   38  C   UNL     1      51.344 -31.022   5.288  1.00  0.00     0.210 C 
ENDBRANCH  32  37
ENDBRANCH   2  29
TORSDOF 11
ENDMDL
MODEL 9
REMARK VINA RESULT:      -6.4      5.872      9.799
REMARK  11 active torsions:
REMARK  status: ('A' for Active; 'I' for Inactive)
REMARK    1  A    between atoms: C_2  and  N_3 
REMARK    2  A    between atoms: N_3  and  C_5 
REMARK    3  A    between atoms: N_3  and  C_34 
REMARK    4  A    between atoms: C_5  and  C_6 
REMARK    5  A    between atoms: C_6  and  C_7 
REMARK    6  A    between atoms: C_7  and  N_8 
REMARK       I    between atoms: N_8  and  C_9 
REMARK    7  A    between atoms: C_9  and  C_10 
REMARK    8  A    between atoms: C_10  and  O_11 
REMARK    9  A    between atoms: N_12  and  C_13 
REMARK   10  A    between atoms: C_14  and  O_15 
REMARK   11  A    between atoms: C_18  and  O_19 
ROOT
HETATM    1  C   UNL     1      40.941  -8.292  11.355  1.00  0.00     0.256 C 
HETATM    2  N   UNL     1      40.248  -8.847  12.523  1.00  0.00    -0.251 N 
HETATM    3  C   UNL     1      39.647 -10.093  12.464  1.00  0.00     0.330 C 
HETATM    4  O   UNL     1      39.321 -10.776  13.434  1.00  0.00    -0.246 OA
HETATM    5  N   UNL     1      39.359 -10.580  11.219  1.00  0.00    -0.308 N 
HETATM    6  C   UNL     1      39.547  -9.883  10.030  1.00  0.00     0.048 A 
HETATM    7  C   UNL     1      40.289  -8.707  10.051  1.00  0.00     0.035 A 
HETATM    8  C   UNL     1      38.988 -10.363   8.844  1.00  0.00     0.031 A 
HETATM    9  C   UNL     1      39.169  -9.650   7.658  1.00  0.00     0.021 A 
HETATM   10  C   UNL     1      39.913  -8.472   7.665  1.00  0.00     0.011 A 
HETATM   11 BR   UNL     1      40.172  -7.515   6.057  1.00  0.00    -0.051 Br
HETATM   12  C   UNL     1      40.477  -8.002   8.849  1.00  0.00     0.034 A 
HETATM   13  H   UNL     1      38.805 -11.427  11.223  1.00  0.00     0.170 HD
ENDROOT
BRANCH   1  14
HETATM   14  C   UNL     1      42.463  -8.767  11.307  1.00  0.00     0.279 C 
HETATM   15  N   UNL     1      42.733  -9.967  10.660  1.00  0.00    -0.356 N 
HETATM   16  H   UNL     1      41.997 -10.664  10.759  1.00  0.00     0.162 HD
HETATM   17  O   UNL     1      43.376  -8.049  11.728  1.00  0.00    -0.268 OA
BRANCH  15  18
HETATM   18  C   UNL     1      44.095 -10.443  10.551  1.00  0.00     0.124 C 
BRANCH  18  19
HETATM   19  C   UNL     1      44.782  -9.890   9.304  1.00  0.00     0.047 C 
BRANCH  19  20
HETATM   20  C   UNL     1      45.014 -11.013   8.297  1.00  0.00     0.236 C 
BRANCH  20  21
HETATM   21  N   UNL     1      43.740 -11.487   7.611  1.00  0.00    -0.072 N 
HETATM   22  H   UNL     1      43.184 -11.933   8.356  1.00  0.00     0.279 HD
BRANCH  21  23
HETATM   23  C   UNL     1      43.938 -12.575   6.564  1.00  0.00     0.230 C 
HETATM   24  C   UNL     1      43.454 -13.924   7.065  1.00  0.00     0.034 C 
ENDBRANCH  21  23
BRANCH  21  25
HETATM   25  C   UNL     1      42.849 -10.384   7.063  1.00  0.00     0.230 C 
HETATM   26  C   UNL     1      42.283 -10.747   5.703  1.00  0.00     0.034 C 
ENDBRANCH  21  25
ENDBRANCH  20  21
ENDBRANCH  19  20
ENDBRANCH  18  19
ENDBRANCH  15  18
ENDBRANCH   1  14
BRANCH   1  27
HETATM   27  O   UNL     1      40.881  -6.865  11.386  1.00  0.00    -0.359 OA
HETATM   28  H   UNL     1      41.212  -6.602  12.263  1.00  0.00     0.213 HD
ENDBRANCH   1  27
BRANCH   2  29
HETATM   29  C   UNL     1      40.443  -8.222  13.789  1.00  0.00     0.076 A 
HETATM   30  C   UNL     1      39.648  -7.154  14.240  1.00  0.00     0.098 A 
HETATM   31  C   UNL     1      39.912  -6.560  15.486  1.00  0.00     0.075 A 
HETATM   32  C   UNL     1      40.990  -6.996  16.261  1.00  0.00     0.070 A 
HETATM   33  C   UNL     1      41.784  -8.046  15.803  1.00  0.00     0.039 A 
HETATM   34  C   UNL     1      41.515  -8.656  14.578  1.00  0.00     0.035 A 
BRANCH  30  35
HETATM   35  O   UNL     1      38.558  -6.793  13.480  1.00  0.00    -0.354 OA
HETATM   36  C   UNL     1      38.049  -5.502  13.823  1.00  0.00     0.210 C 
ENDBRANCH  30  35
BRANCH  32  37
HETATM   37  O   UNL     1      41.363  -6.498  17.478  1.00  0.00    -0.356 OA
HETATM   38  C   UNL     1      40.732  -7.047  18.627  1.00  0.00     0.210 C 
ENDBRANCH  32  37
ENDBRANCH   2  29
TORSDOF 11
ENDMDL
MODEL 10
REMARK VINA RESULT:      -6.4      3.643      7.315
REMARK  11 active torsions:
REMARK  status: ('A' for Active; 'I' for Inactive)
REMARK    1  A    between atoms: C_2  and  N_3 
REMARK    2  A    between atoms: N_3  and  C_5 
REMARK    3  A    between atoms: N_3  and  C_34 
REMARK    4  A    between atoms: C_5  and  C_6 
REMARK    5  A    between atoms: C_6  and  C_7 
REMARK    6  A    between atoms: C_7  and  N_8 
REMARK       I    between atoms: N_8  and  C_9 
REMARK    7  A    between atoms: C_9  and  C_10 
REMARK    8  A    between atoms: C_10  and  O_11 
REMARK    9  A    between atoms: N_12  and  C_13 
REMARK   10  A    between atoms: C_14  and  O_15 
REMARK   11  A    between atoms: C_18  and  O_19 
ROOT
HETATM    1  C   UNL     1      40.985 -12.542   3.299  1.00  0.00     0.256 C 
HETATM    2  N   UNL     1      40.892 -13.088   4.657  1.00  0.00    -0.251 N 
HETATM    3  C   UNL     1      39.830 -12.758   5.482  1.00  0.00     0.330 C 
HETATM    4  O   UNL     1      39.489 -13.376   6.490  1.00  0.00    -0.246 OA
HETATM    5  N   UNL     1      39.133 -11.625   5.165  1.00  0.00    -0.308 N 
HETATM    6  C   UNL     1      39.466 -10.748   4.137  1.00  0.00     0.048 A 
HETATM    7  C   UNL     1      40.421 -11.138   3.205  1.00  0.00     0.035 A 
HETATM    8  C   UNL     1      38.848  -9.499   4.059  1.00  0.00     0.031 A 
HETATM    9  C   UNL     1      39.197  -8.620   3.033  1.00  0.00     0.021 A 
HETATM   10  C   UNL     1      40.151  -8.999   2.091  1.00  0.00     0.011 A 
HETATM   11 BR   UNL     1      40.613  -7.817   0.693  1.00  0.00    -0.051 Br
HETATM   12  C   UNL     1      40.758 -10.252   2.167  1.00  0.00     0.034 A 
HETATM   13  H   UNL     1      38.454 -11.348   5.862  1.00  0.00     0.170 HD
ENDROOT
BRANCH   1  14
HETATM   14  C   UNL     1      40.194 -13.452   2.255  1.00  0.00     0.279 C 
HETATM   15  N   UNL     1      40.891 -13.881   1.131  1.00  0.00    -0.356 N 
HETATM   16  H   UNL     1      41.573 -13.207   0.787  1.00  0.00     0.162 HD
HETATM   17  O   UNL     1      39.049 -13.852   2.486  1.00  0.00    -0.268 OA
BRANCH  15  18
HETATM   18  C   UNL     1      40.245 -14.735   0.158  1.00  0.00     0.124 C 
BRANCH  18  19
HETATM   19  C   UNL     1      40.088 -14.028  -1.188  1.00  0.00     0.047 C 
BRANCH  19  20
HETATM   20  C   UNL     1      38.778 -13.246  -1.214  1.00  0.00     0.236 C 
BRANCH  20  21
HETATM   21  N   UNL     1      38.903 -11.831  -0.667  1.00  0.00    -0.072 N 
HETATM   22  H   UNL     1      39.335 -11.940   0.262  1.00  0.00     0.279 HD
BRANCH  21  23
HETATM   23  C   UNL     1      37.581 -11.123  -0.404  1.00  0.00     0.230 C 
HETATM   24  C   UNL     1      37.207 -11.170   1.067  1.00  0.00     0.034 C 
ENDBRANCH  21  23
BRANCH  21  25
HETATM   25  C   UNL     1      39.846 -10.919  -1.435  1.00  0.00     0.230 C 
HETATM   26  C   UNL     1      39.101 -10.079  -2.457  1.00  0.00     0.034 C 
ENDBRANCH  21  25
ENDBRANCH  20  21
ENDBRANCH  19  20
ENDBRANCH  18  19
ENDBRANCH  15  18
ENDBRANCH   1  14
BRANCH   1  27
HETATM   27  O   UNL     1      42.356 -12.441   2.908  1.00  0.00    -0.359 OA
HETATM   28  H   UNL     1      42.614 -11.517   3.073  1.00  0.00     0.213 HD
ENDBRANCH   1  27
BRANCH   2  29
HETATM   29  C   UNL     1      41.746 -14.172   5.013  1.00  0.00     0.076 A 
HETATM   30  C   UNL     1      43.031 -13.985   5.551  1.00  0.00     0.098 A 
HETATM   31  C   UNL     1      43.835 -15.096   5.853  1.00  0.00     0.075 A 
HETATM   32  C   UNL     1      43.383 -16.390   5.578  1.00  0.00     0.070 A 
HETATM   33  C   UNL     1      42.113 -16.571   5.032  1.00  0.00     0.039 A 
HETATM   34  C   UNL     1      41.300 -15.473   4.751  1.00  0.00     0.035 A 
BRANCH  30  35
HETATM   35  O   UNL     1      43.419 -12.701   5.865  1.00  0.00    -0.354 OA
HETATM   36  C   UNL     1      43.954 -12.594   7.187  1.00  0.00     0.210 C 
ENDBRANCH  30  35
BRANCH  32  37
HETATM   37  O   UNL     1      44.068 -17.550   5.808  1.00  0.00    -0.356 OA
HETATM   38  C   UNL     1      44.154 -18.479   4.736  1.00  0.00     0.210 C 
ENDBRANCH  32  37
ENDBRANCH   2  29
TORSDOF 11
ENDMDL
