MODEL 1
REMARK VINA RESULT:      -9.1      0.000      0.000
REMARK  7 active torsions:
REMARK  status: ('A' for Active; 'I' for Inactive)
REMARK    1  A    between atoms: C_6  and  N_7 
REMARK       I    between atoms: N_7  and  C_8 
REMARK       I    between atoms: C_8  and  N_9 
REMARK    2  A    between atoms: N_9  and  C_10 
REMARK    3  A    between atoms: C_10  and  C_11 
REMARK    4  A    between atoms: C_11  and  C_12 
REMARK    5  A    between atoms: C_12  and  C_13 
REMARK    6  A    between atoms: C_13  and  O_14 
REMARK    7  A    between atoms: O_14  and  C_15 
ROOT
HETATM    1  C   UNL     1      44.166 -10.641   7.134  1.00  0.00     0.219 C 
ENDROOT
BRANCH   1   2
HETATM    2  N   UNL     1      44.957 -10.736   8.336  1.00  0.00    -0.332 N 
HETATM    3  C   UNL     1      44.685 -10.425   9.631  1.00  0.00     0.321 C 
HETATM    4  N   UNL     1      43.484  -9.824   9.875  1.00  0.00    -0.309 N 
HETATM    5  O   UNL     1      45.535 -10.723  10.464  1.00  0.00    -0.247 OA
HETATM    6  H   UNL     1      42.967  -9.504   9.076  1.00  0.00     0.170 HD
HETATM    7  H   UNL     1      45.875 -11.153   8.242  1.00  0.00     0.165 HD
BRANCH   4   8
HETATM    8  C   UNL     1      42.934  -9.463  11.125  1.00  0.00     0.036 A 
HETATM    9  C   UNL     1      41.736  -9.970  11.634  1.00  0.00     0.037 A 
HETATM   10  C   UNL     1      41.248  -9.571  12.893  1.00  0.00    -0.054 A 
HETATM   11  C   UNL     1      41.982  -8.650  13.663  1.00  0.00    -0.056 A 
HETATM   12  C   UNL     1      39.972 -10.185  13.404  1.00  0.00     0.049 C 
HETATM   13  C   UNL     1      41.511  -8.199  15.017  1.00  0.00     0.049 C 
HETATM   14  C   UNL     1      43.174  -8.129  13.141  1.00  0.00     0.009 A 
HETATM   15  C   UNL     1      43.644  -8.533  11.890  1.00  0.00     0.030 A 
ENDBRANCH   4   8
ENDBRANCH   1   2
BRANCH   1  16
HETATM   16  C   UNL     1      43.817 -12.044   6.664  1.00  0.00    -0.085 C 
BRANCH  16  17
HETATM   17  C   UNL     1      43.518 -13.248   6.261  1.00  0.00    -0.078 C 
BRANCH  17  18
HETATM   18  C   UNL     1      43.171 -14.651   5.791  1.00  0.00     0.269 C 
BRANCH  18  19
HETATM   19  O   UNL     1      43.201 -14.703   4.369  1.00  0.00    -0.339 OA
BRANCH  19  20
HETATM   20  C   UNL     1      43.276 -15.955   3.816  1.00  0.00     0.072 A 
HETATM   21  C   UNL     1      43.607 -16.978   4.710  1.00  0.00     0.069 A 
HETATM   22  C   UNL     1      43.717 -18.303   4.308  1.00  0.00     0.069 A 
HETATM   23  C   UNL     1      43.466 -18.612   2.955  1.00  0.00    -0.007 A 
HETATM   24  N   UNL     1      44.059 -19.246   5.205  1.00  0.00    -0.260 NA
HETATM   25  C   UNL     1      43.116 -17.596   2.054  1.00  0.00     0.016 A 
HETATM   26  C   UNL     1      43.572 -19.948   2.550  1.00  0.00     0.015 A 
HETATM   27  C   UNL     1      43.024 -16.271   2.483  1.00  0.00     0.038 A 
HETATM   28  C   UNL     1      43.925 -20.922   3.475  1.00  0.00     0.020 A 
HETATM   29  C   UNL     1      44.157 -20.524   4.777  1.00  0.00     0.117 A 
ENDBRANCH  19  20
ENDBRANCH  18  19
ENDBRANCH  17  18
ENDBRANCH  16  17
ENDBRANCH   1  16
TORSDOF 7
ENDMDL
MODEL 2
REMARK VINA RESULT:      -8.8      2.056     11.282
REMARK  7 active torsions:
REMARK  status: ('A' for Active; 'I' for Inactive)
REMARK    1  A    between atoms: C_6  and  N_7 
REMARK       I    between atoms: N_7  and  C_8 
REMARK       I    between atoms: C_8  and  N_9 
REMARK    2  A    between atoms: N_9  and  C_10 
REMARK    3  A    between atoms: C_10  and  C_11 
REMARK    4  A    between atoms: C_11  and  C_12 
REMARK    5  A    between atoms: C_12  and  C_13 
REMARK    6  A    between atoms: C_13  and  O_14 
REMARK    7  A    between atoms: O_14  and  C_15 
ROOT
HETATM    1  C   UNL     1      43.316 -12.876   6.027  1.00  0.00     0.219 C 
ENDROOT
BRANCH   1   2
HETATM    2  N   UNL     1      43.264 -14.119   6.757  1.00  0.00    -0.332 N 
HETATM    3  C   UNL     1      43.319 -15.415   6.352  1.00  0.00     0.321 C 
HETATM    4  N   UNL     1      43.337 -15.633   5.004  1.00  0.00    -0.309 N 
HETATM    5  O   UNL     1      43.361 -16.271   7.230  1.00  0.00    -0.247 OA
HETATM    6  H   UNL     1      43.139 -14.844   4.415  1.00  0.00     0.170 HD
HETATM    7  H   UNL     1      43.228 -14.049   7.766  1.00  0.00     0.165 HD
BRANCH   4   8
HETATM    8  C   UNL     1      43.459 -16.867   4.327  1.00  0.00     0.036 A 
HETATM    9  C   UNL     1      43.871 -18.057   4.929  1.00  0.00     0.037 A 
HETATM   10  C   UNL     1      43.965 -19.256   4.196  1.00  0.00    -0.054 A 
HETATM   11  C   UNL     1      43.628 -19.262   2.830  1.00  0.00    -0.056 A 
HETATM   12  C   UNL     1      44.375 -20.515   4.912  1.00  0.00     0.049 C 
HETATM   13  C   UNL     1      43.700 -20.516   2.004  1.00  0.00     0.049 C 
HETATM   14  C   UNL     1      43.232 -18.062   2.224  1.00  0.00     0.009 A 
HETATM   15  C   UNL     1      43.147 -16.881   2.965  1.00  0.00     0.030 A 
ENDBRANCH   4   8
ENDBRANCH   1   2
BRANCH   1  16
HETATM   16  C   UNL     1      44.461 -12.036   6.569  1.00  0.00    -0.085 C 
BRANCH  16  17
HETATM   17  C   UNL     1      45.443 -11.316   7.034  1.00  0.00    -0.078 C 
BRANCH  17  18
HETATM   18  C   UNL     1      46.589 -10.477   7.578  1.00  0.00     0.269 C 
BRANCH  18  19
HETATM   19  O   UNL     1      46.143  -9.144   7.805  1.00  0.00    -0.339 OA
BRANCH  19  20
HETATM   20  C   UNL     1      45.317  -8.962   8.883  1.00  0.00     0.072 A 
HETATM   21  C   UNL     1      44.391  -7.923   8.751  1.00  0.00     0.069 A 
HETATM   22  C   UNL     1      43.479  -7.616   9.753  1.00  0.00     0.069 A 
HETATM   23  C   UNL     1      43.489  -8.398  10.927  1.00  0.00    -0.007 A 
HETATM   24  N   UNL     1      42.623  -6.592   9.585  1.00  0.00    -0.260 NA
HETATM   25  C   UNL     1      44.403  -9.454  11.062  1.00  0.00     0.016 A 
HETATM   26  C   UNL     1      42.568  -8.090  11.935  1.00  0.00     0.015 A 
HETATM   27  C   UNL     1      45.316  -9.733  10.043  1.00  0.00     0.038 A 
HETATM   28  C   UNL     1      41.684  -7.034  11.762  1.00  0.00     0.020 A 
HETATM   29  C   UNL     1      41.751  -6.321  10.581  1.00  0.00     0.117 A 
ENDBRANCH  19  20
ENDBRANCH  18  19
ENDBRANCH  17  18
ENDBRANCH  16  17
ENDBRANCH   1  16
TORSDOF 7
ENDMDL
MODEL 3
REMARK VINA RESULT:      -8.8      4.786      9.221
REMARK  7 active torsions:
REMARK  status: ('A' for Active; 'I' for Inactive)
REMARK    1  A    between atoms: C_6  and  N_7 
REMARK       I    between atoms: N_7  and  C_8 
REMARK       I    between atoms: C_8  and  N_9 
REMARK    2  A    between atoms: N_9  and  C_10 
REMARK    3  A    between atoms: C_10  and  C_11 
REMARK    4  A    between atoms: C_11  and  C_12 
REMARK    5  A    between atoms: C_12  and  C_13 
REMARK    6  A    between atoms: C_13  and  O_14 
REMARK    7  A    between atoms: O_14  and  C_15 
ROOT
HETATM    1  C   UNL     1      43.529 -13.311   7.071  1.00  0.00     0.219 C 
ENDROOT
BRANCH   1   2
HETATM    2  N   UNL     1      42.568 -14.382   7.170  1.00  0.00    -0.332 N 
HETATM    3  C   UNL     1      42.457 -15.568   6.514  1.00  0.00     0.321 C 
HETATM    4  N   UNL     1      43.344 -15.791   5.500  1.00  0.00    -0.309 N 
HETATM    5  O   UNL     1      41.580 -16.335   6.899  1.00  0.00    -0.247 OA
HETATM    6  H   UNL     1      43.898 -15.007   5.203  1.00  0.00     0.170 HD
HETATM    7  H   UNL     1      41.859 -14.289   7.886  1.00  0.00     0.165 HD
BRANCH   4   8
HETATM    8  C   UNL     1      43.486 -16.955   4.714  1.00  0.00     0.036 A 
HETATM    9  C   UNL     1      43.898 -18.194   5.208  1.00  0.00     0.037 A 
HETATM   10  C   UNL     1      44.012 -19.318   4.368  1.00  0.00    -0.054 A 
HETATM   11  C   UNL     1      43.695 -19.198   3.002  1.00  0.00    -0.056 A 
HETATM   12  C   UNL     1      44.422 -20.636   4.969  1.00  0.00     0.049 C 
HETATM   13  C   UNL     1      43.790 -20.369   2.064  1.00  0.00     0.049 C 
HETATM   14  C   UNL     1      43.300 -17.949   2.505  1.00  0.00     0.009 A 
HETATM   15  C   UNL     1      43.193 -16.843   3.351  1.00  0.00     0.030 A 
ENDBRANCH   4   8
ENDBRANCH   1   2
BRANCH   1  16
HETATM   16  C   UNL     1      43.093 -12.360   5.968  1.00  0.00    -0.085 C 
BRANCH  16  17
HETATM   17  C   UNL     1      42.720 -11.543   5.023  1.00  0.00    -0.078 C 
BRANCH  17  18
HETATM   18  C   UNL     1      42.285 -10.591   3.920  1.00  0.00     0.269 C 
BRANCH  18  19
HETATM   19  O   UNL     1      42.863 -10.992   2.683  1.00  0.00    -0.339 OA
BRANCH  19  20
HETATM   20  C   UNL     1      42.177 -11.947   1.981  1.00  0.00     0.072 A 
HETATM   21  C   UNL     1      41.313 -11.453   0.998  1.00  0.00     0.069 A 
HETATM   22  C   UNL     1      40.551 -12.293   0.196  1.00  0.00     0.069 A 
HETATM   23  C   UNL     1      40.677 -13.686   0.379  1.00  0.00    -0.007 A 
HETATM   24  N   UNL     1      39.718 -11.766  -0.720  1.00  0.00    -0.260 NA
HETATM   25  C   UNL     1      41.555 -14.192   1.349  1.00  0.00     0.016 A 
HETATM   26  C   UNL     1      39.912 -14.533  -0.432  1.00  0.00     0.015 A 
HETATM   27  C   UNL     1      42.300 -13.324   2.149  1.00  0.00     0.038 A 
HETATM   28  C   UNL     1      39.053 -13.989  -1.378  1.00  0.00     0.020 A 
HETATM   29  C   UNL     1      38.991 -12.613  -1.482  1.00  0.00     0.117 A 
ENDBRANCH  19  20
ENDBRANCH  18  19
ENDBRANCH  17  18
ENDBRANCH  16  17
ENDBRANCH   1  16
TORSDOF 7
ENDMDL
MODEL 4
REMARK VINA RESULT:      -8.7      1.430      1.960
REMARK  7 active torsions:
REMARK  status: ('A' for Active; 'I' for Inactive)
REMARK    1  A    between atoms: C_6  and  N_7 
REMARK       I    between atoms: N_7  and  C_8 
REMARK       I    between atoms: C_8  and  N_9 
REMARK    2  A    between atoms: N_9  and  C_10 
REMARK    3  A    between atoms: C_10  and  C_11 
REMARK    4  A    between atoms: C_11  and  C_12 
REMARK    5  A    between atoms: C_12  and  C_13 
REMARK    6  A    between atoms: C_13  and  O_14 
REMARK    7  A    between atoms: O_14  and  C_15 
ROOT
HETATM    1  C   UNL     1      46.054 -10.814   7.666  1.00  0.00     0.219 C 
ENDROOT
BRANCH   1   2
HETATM    2  N   UNL     1      45.735  -9.413   7.795  1.00  0.00    -0.332 N 
HETATM    3  C   UNL     1      44.914  -8.741   8.645  1.00  0.00     0.321 C 
HETATM    4  N   UNL     1      44.161  -9.500   9.494  1.00  0.00    -0.309 N 
HETATM    5  O   UNL     1      44.933  -7.516   8.583  1.00  0.00    -0.247 OA
HETATM    6  H   UNL     1      44.139 -10.489   9.319  1.00  0.00     0.170 HD
HETATM    7  H   UNL     1      46.235  -8.777   7.186  1.00  0.00     0.165 HD
BRANCH   4   8
HETATM    8  C   UNL     1      43.288  -9.055  10.511  1.00  0.00     0.036 A 
HETATM    9  C   UNL     1      43.706  -8.457  11.701  1.00  0.00     0.037 A 
HETATM   10  C   UNL     1      42.780  -8.030  12.672  1.00  0.00    -0.054 A 
HETATM   11  C   UNL     1      41.402  -8.197  12.438  1.00  0.00    -0.056 A 
HETATM   12  C   UNL     1      43.292  -7.354  13.917  1.00  0.00     0.049 C 
HETATM   13  C   UNL     1      40.372  -7.749  13.437  1.00  0.00     0.049 C 
HETATM   14  C   UNL     1      40.986  -8.815  11.252  1.00  0.00     0.009 A 
HETATM   15  C   UNL     1      41.918  -9.235  10.299  1.00  0.00     0.030 A 
ENDBRANCH   4   8
ENDBRANCH   1   2
BRANCH   1  16
HETATM   16  C   UNL     1      45.066 -11.456   6.705  1.00  0.00    -0.085 C 
BRANCH  16  17
HETATM   17  C   UNL     1      44.219 -12.006   5.880  1.00  0.00    -0.078 C 
BRANCH  17  18
HETATM   18  C   UNL     1      43.232 -12.646   4.918  1.00  0.00     0.269 C 
BRANCH  18  19
HETATM   19  O   UNL     1      42.817 -13.911   5.424  1.00  0.00    -0.339 OA
BRANCH  19  20
HETATM   20  C   UNL     1      42.954 -14.973   4.570  1.00  0.00     0.072 A 
HETATM   21  C   UNL     1      43.358 -16.169   5.172  1.00  0.00     0.069 A 
HETATM   22  C   UNL     1      43.535 -17.338   4.444  1.00  0.00     0.069 A 
HETATM   23  C   UNL     1      43.277 -17.307   3.058  1.00  0.00    -0.007 A 
HETATM   24  N   UNL     1      43.947 -18.457   5.069  1.00  0.00    -0.260 NA
HETATM   25  C   UNL     1      42.854 -16.117   2.448  1.00  0.00     0.016 A 
HETATM   26  C   UNL     1      43.452 -18.487   2.325  1.00  0.00     0.015 A 
HETATM   27  C   UNL     1      42.695 -14.953   3.202  1.00  0.00     0.038 A 
HETATM   28  C   UNL     1      43.876 -19.642   2.969  1.00  0.00     0.020 A 
HETATM   29  C   UNL     1      44.109 -19.576   4.329  1.00  0.00     0.117 A 
ENDBRANCH  19  20
ENDBRANCH  18  19
ENDBRANCH  17  18
ENDBRANCH  16  17
ENDBRANCH   1  16
TORSDOF 7
ENDMDL
MODEL 5
REMARK VINA RESULT:      -8.6      2.243     10.924
REMARK  7 active torsions:
REMARK  status: ('A' for Active; 'I' for Inactive)
REMARK    1  A    between atoms: C_6  and  N_7 
REMARK       I    between atoms: N_7  and  C_8 
REMARK       I    between atoms: C_8  and  N_9 
REMARK    2  A    between atoms: N_9  and  C_10 
REMARK    3  A    between atoms: C_10  and  C_11 
REMARK    4  A    between atoms: C_11  and  C_12 
REMARK    5  A    between atoms: C_12  and  C_13 
REMARK    6  A    between atoms: C_13  and  O_14 
REMARK    7  A    between atoms: O_14  and  C_15 
ROOT
HETATM    1  C   UNL     1      42.450 -12.546   2.721  1.00  0.00     0.219 C 
ENDROOT
BRANCH   1   2
HETATM    2  N   UNL     1      41.478 -13.611   2.683  1.00  0.00    -0.332 N 
HETATM    3  C   UNL     1      41.580 -14.945   2.921  1.00  0.00     0.321 C 
HETATM    4  N   UNL     1      42.835 -15.429   3.155  1.00  0.00    -0.309 N 
HETATM    5  O   UNL     1      40.537 -15.591   2.917  1.00  0.00    -0.247 OA
HETATM    6  H   UNL     1      43.602 -14.807   2.969  1.00  0.00     0.170 HD
HETATM    7  H   UNL     1      40.520 -13.342   2.496  1.00  0.00     0.165 HD
BRANCH   4   8
HETATM    8  C   UNL     1      43.206 -16.750   3.491  1.00  0.00     0.036 A 
HETATM    9  C   UNL     1      43.208 -17.819   2.594  1.00  0.00     0.037 A 
HETATM   10  C   UNL     1      43.596 -19.113   2.995  1.00  0.00    -0.054 A 
HETATM   11  C   UNL     1      44.000 -19.334   4.325  1.00  0.00    -0.056 A 
HETATM   12  C   UNL     1      43.618 -20.215   1.970  1.00  0.00     0.049 C 
HETATM   13  C   UNL     1      44.433 -20.693   4.802  1.00  0.00     0.049 C 
HETATM   14  C   UNL     1      43.978 -18.263   5.228  1.00  0.00     0.009 A 
HETATM   15  C   UNL     1      43.589 -16.987   4.814  1.00  0.00     0.030 A 
ENDBRANCH   4   8
ENDBRANCH   1   2
BRANCH   1  16
HETATM   16  C   UNL     1      42.985 -12.419   4.138  1.00  0.00    -0.085 C 
BRANCH  16  17
HETATM   17  C   UNL     1      43.444 -12.311   5.354  1.00  0.00    -0.078 C 
BRANCH  17  18
HETATM   18  C   UNL     1      43.979 -12.185   6.771  1.00  0.00     0.269 C 
BRANCH  18  19
HETATM   19  O   UNL     1      44.607 -10.918   6.937  1.00  0.00    -0.339 OA
BRANCH  19  20
HETATM   20  C   UNL     1      44.500 -10.353   8.181  1.00  0.00     0.072 A 
HETATM   21  C   UNL     1      43.214  -9.930   8.530  1.00  0.00     0.069 A 
HETATM   22  C   UNL     1      42.939  -9.344   9.758  1.00  0.00     0.069 A 
HETATM   23  C   UNL     1      43.997  -9.194  10.679  1.00  0.00    -0.007 A 
HETATM   24  N   UNL     1      41.687  -8.934  10.036  1.00  0.00    -0.260 NA
HETATM   25  C   UNL     1      45.287  -9.632  10.345  1.00  0.00     0.016 A 
HETATM   26  C   UNL     1      43.719  -8.607  11.919  1.00  0.00     0.015 A 
HETATM   27  C   UNL     1      45.538 -10.208   9.099  1.00  0.00     0.038 A 
HETATM   28  C   UNL     1      42.427  -8.184  12.206  1.00  0.00     0.020 A 
HETATM   29  C   UNL     1      41.457  -8.367  11.241  1.00  0.00     0.117 A 
ENDBRANCH  19  20
ENDBRANCH  18  19
ENDBRANCH  17  18
ENDBRANCH  16  17
ENDBRANCH   1  16
TORSDOF 7
ENDMDL
MODEL 6
REMARK VINA RESULT:      -8.4      1.838     11.765
REMARK  7 active torsions:
REMARK  status: ('A' for Active; 'I' for Inactive)
REMARK    1  A    between atoms: C_6  and  N_7 
REMARK       I    between atoms: N_7  and  C_8 
REMARK       I    between atoms: C_8  and  N_9 
REMARK    2  A    between atoms: N_9  and  C_10 
REMARK    3  A    between atoms: C_10  and  C_11 
REMARK    4  A    between atoms: C_11  and  C_12 
REMARK    5  A    between atoms: C_12  and  C_13 
REMARK    6  A    between atoms: C_13  and  O_14 
REMARK    7  A    between atoms: O_14  and  C_15 
ROOT
HETATM    1  C   UNL     1      43.703 -12.585   5.535  1.00  0.00     0.219 C 
ENDROOT
BRANCH   1   2
HETATM    2  N   UNL     1      42.739 -13.592   5.908  1.00  0.00    -0.332 N 
HETATM    3  C   UNL     1      42.564 -14.878   5.504  1.00  0.00     0.321 C 
HETATM    4  N   UNL     1      43.369 -15.315   4.491  1.00  0.00    -0.309 N 
HETATM    5  O   UNL     1      41.709 -15.533   6.091  1.00  0.00    -0.247 OA
HETATM    6  H   UNL     1      43.909 -14.618   4.009  1.00  0.00     0.170 HD
HETATM    7  H   UNL     1      42.087 -13.343   6.641  1.00  0.00     0.165 HD
BRANCH   4   8
HETATM    8  C   UNL     1      43.437 -16.612   3.937  1.00  0.00     0.036 A 
HETATM    9  C   UNL     1      43.918 -17.733   4.614  1.00  0.00     0.037 A 
HETATM   10  C   UNL     1      43.952 -19.002   4.002  1.00  0.00    -0.054 A 
HETATM   11  C   UNL     1      43.482 -19.148   2.684  1.00  0.00    -0.056 A 
HETATM   12  C   UNL     1      44.443 -20.180   4.800  1.00  0.00     0.049 C 
HETATM   13  C   UNL     1      43.486 -20.481   1.988  1.00  0.00     0.049 C 
HETATM   14  C   UNL     1      43.017 -18.017   2.000  1.00  0.00     0.009 A 
HETATM   15  C   UNL     1      42.992 -16.766   2.620  1.00  0.00     0.030 A 
ENDBRANCH   4   8
ENDBRANCH   1   2
BRANCH   1  16
HETATM   16  C   UNL     1      44.153 -11.848   6.786  1.00  0.00    -0.085 C 
BRANCH  16  17
HETATM   17  C   UNL     1      44.539 -11.215   7.859  1.00  0.00    -0.078 C 
BRANCH  17  18
HETATM   18  C   UNL     1      44.988 -10.478   9.110  1.00  0.00     0.269 C 
BRANCH  18  19
HETATM   19  O   UNL     1      44.094 -10.758  10.181  1.00  0.00    -0.339 OA
BRANCH  19  20
HETATM   20  C   UNL     1      43.574  -9.669  10.830  1.00  0.00     0.072 A 
HETATM   21  C   UNL     1      43.166  -9.904  12.147  1.00  0.00     0.069 A 
HETATM   22  C   UNL     1      42.624  -8.901  12.941  1.00  0.00     0.069 A 
HETATM   23  C   UNL     1      42.507  -7.606  12.393  1.00  0.00    -0.007 A 
HETATM   24  N   UNL     1      42.227  -9.185  14.195  1.00  0.00    -0.260 NA
HETATM   25  C   UNL     1      42.930  -7.356  11.080  1.00  0.00     0.016 A 
HETATM   26  C   UNL     1      41.964  -6.595  13.195  1.00  0.00     0.015 A 
HETATM   27  C   UNL     1      43.460  -8.386  10.300  1.00  0.00     0.038 A 
HETATM   28  C   UNL     1      41.554  -6.887  14.489  1.00  0.00     0.020 A 
HETATM   29  C   UNL     1      41.703  -8.184  14.938  1.00  0.00     0.117 A 
ENDBRANCH  19  20
ENDBRANCH  18  19
ENDBRANCH  17  18
ENDBRANCH  16  17
ENDBRANCH   1  16
TORSDOF 7
ENDMDL
MODEL 7
REMARK VINA RESULT:      -8.1      2.415     10.644
REMARK  7 active torsions:
REMARK  status: ('A' for Active; 'I' for Inactive)
REMARK    1  A    between atoms: C_6  and  N_7 
REMARK       I    between atoms: N_7  and  C_8 
REMARK       I    between atoms: C_8  and  N_9 
REMARK    2  A    between atoms: N_9  and  C_10 
REMARK    3  A    between atoms: C_10  and  C_11 
REMARK    4  A    between atoms: C_11  and  C_12 
REMARK    5  A    between atoms: C_12  and  C_13 
REMARK    6  A    between atoms: C_13  and  O_14 
REMARK    7  A    between atoms: O_14  and  C_15 
ROOT
HETATM    1  C   UNL     1      41.627 -11.193   5.678  1.00  0.00     0.219 C 
ENDROOT
BRANCH   1   2
HETATM    2  N   UNL     1      40.970 -12.379   6.172  1.00  0.00    -0.332 N 
HETATM    3  C   UNL     1      41.246 -13.701   6.022  1.00  0.00     0.321 C 
HETATM    4  N   UNL     1      42.273 -14.019   5.180  1.00  0.00    -0.309 N 
HETATM    5  O   UNL     1      40.558 -14.488   6.663  1.00  0.00    -0.247 OA
HETATM    6  H   UNL     1      42.637 -13.277   4.609  1.00  0.00     0.170 HD
HETATM    7  H   UNL     1      40.182 -12.234   6.790  1.00  0.00     0.165 HD
BRANCH   4   8
HETATM    8  C   UNL     1      42.802 -15.299   4.903  1.00  0.00     0.036 A 
HETATM    9  C   UNL     1      42.502 -16.043   3.760  1.00  0.00     0.037 A 
HETATM   10  C   UNL     1      43.070 -17.314   3.543  1.00  0.00    -0.054 A 
HETATM   11  C   UNL     1      43.967 -17.844   4.489  1.00  0.00    -0.056 A 
HETATM   12  C   UNL     1      42.740 -18.049   2.271  1.00  0.00     0.049 C 
HETATM   13  C   UNL     1      44.609 -19.190   4.300  1.00  0.00     0.049 C 
HETATM   14  C   UNL     1      44.251 -17.102   5.643  1.00  0.00     0.009 A 
HETATM   15  C   UNL     1      43.678 -15.845   5.845  1.00  0.00     0.030 A 
ENDBRANCH   4   8
ENDBRANCH   1   2
BRANCH   1  16
HETATM   16  C   UNL     1      43.043 -11.149   6.230  1.00  0.00    -0.085 C 
BRANCH  16  17
HETATM   17  C   UNL     1      44.257 -11.113   6.703  1.00  0.00    -0.078 C 
BRANCH  17  18
HETATM   18  C   UNL     1      45.673 -11.069   7.255  1.00  0.00     0.269 C 
BRANCH  18  19
HETATM   19  O   UNL     1      45.955  -9.767   7.756  1.00  0.00    -0.339 OA
BRANCH  19  20
HETATM   20  C   UNL     1      45.233  -9.377   8.853  1.00  0.00     0.072 A 
HETATM   21  C   UNL     1      44.498  -8.198   8.690  1.00  0.00     0.069 A 
HETATM   22  C   UNL     1      43.710  -7.673   9.706  1.00  0.00     0.069 A 
HETATM   23  C   UNL     1      43.645  -8.373  10.929  1.00  0.00    -0.007 A 
HETATM   24  N   UNL     1      43.040  -6.524   9.505  1.00  0.00    -0.260 NA
HETATM   25  C   UNL     1      44.363  -9.566  11.097  1.00  0.00     0.016 A 
HETATM   26  C   UNL     1      42.848  -7.846  11.952  1.00  0.00     0.015 A 
HETATM   27  C   UNL     1      45.157 -10.065  10.062  1.00  0.00     0.038 A 
HETATM   28  C   UNL     1      42.156  -6.660  11.745  1.00  0.00     0.020 A 
HETATM   29  C   UNL     1      42.285  -6.042  10.517  1.00  0.00     0.117 A 
ENDBRANCH  19  20
ENDBRANCH  18  19
ENDBRANCH  17  18
ENDBRANCH  16  17
ENDBRANCH   1  16
TORSDOF 7
ENDMDL
MODEL 8
REMARK VINA RESULT:      -7.9      5.320      9.154
REMARK  7 active torsions:
REMARK  status: ('A' for Active; 'I' for Inactive)
REMARK    1  A    between atoms: C_6  and  N_7 
REMARK       I    between atoms: N_7  and  C_8 
REMARK       I    between atoms: C_8  and  N_9 
REMARK    2  A    between atoms: N_9  and  C_10 
REMARK    3  A    between atoms: C_10  and  C_11 
REMARK    4  A    between atoms: C_11  and  C_12 
REMARK    5  A    between atoms: C_12  and  C_13 
REMARK    6  A    between atoms: C_13  and  O_14 
REMARK    7  A    between atoms: O_14  and  C_15 
ROOT
HETATM    1  C   UNL     1      40.261  -9.964   4.008  1.00  0.00     0.219 C 
ENDROOT
BRANCH   1   2
HETATM    2  N   UNL     1      40.900  -9.816   2.724  1.00  0.00    -0.332 N 
HETATM    3  C   UNL     1      40.765 -10.499   1.556  1.00  0.00     0.321 C 
HETATM    4  N   UNL     1      39.950 -11.595   1.580  1.00  0.00    -0.309 N 
HETATM    5  O   UNL     1      41.374 -10.064   0.584  1.00  0.00    -0.247 OA
HETATM    6  H   UNL     1      39.648 -11.914   2.483  1.00  0.00     0.170 HD
HETATM    7  H   UNL     1      41.538  -9.037   2.623  1.00  0.00     0.165 HD
BRANCH   4   8
HETATM    8  C   UNL     1      39.590 -12.430   0.500  1.00  0.00     0.036 A 
HETATM    9  C   UNL     1      38.672 -12.081  -0.492  1.00  0.00     0.037 A 
HETATM   10  C   UNL     1      38.362 -12.962  -1.547  1.00  0.00    -0.054 A 
HETATM   11  C   UNL     1      38.996 -14.216  -1.612  1.00  0.00    -0.056 A 
HETATM   12  C   UNL     1      37.395 -12.510  -2.610  1.00  0.00     0.049 C 
HETATM   13  C   UNL     1      38.709 -15.189  -2.723  1.00  0.00     0.049 C 
HETATM   14  C   UNL     1      39.902 -14.572  -0.605  1.00  0.00     0.009 A 
HETATM   15  C   UNL     1      40.197 -13.688   0.436  1.00  0.00     0.030 A 
ENDBRANCH   4   8
ENDBRANCH   1   2
BRANCH   1  16
HETATM   16  C   UNL     1      40.895 -11.135   4.741  1.00  0.00    -0.085 C 
BRANCH  16  17
HETATM   17  C   UNL     1      41.438 -12.141   5.369  1.00  0.00    -0.078 C 
BRANCH  17  18
HETATM   18  C   UNL     1      42.071 -13.313   6.100  1.00  0.00     0.269 C 
BRANCH  18  19
HETATM   19  O   UNL     1      41.246 -14.465   5.969  1.00  0.00    -0.339 OA
BRANCH  19  20
HETATM   20  C   UNL     1      41.602 -15.349   4.984  1.00  0.00     0.072 A 
HETATM   21  C   UNL     1      42.582 -16.277   5.348  1.00  0.00     0.069 A 
HETATM   22  C   UNL     1      43.047 -17.244   4.466  1.00  0.00     0.069 A 
HETATM   23  C   UNL     1      42.489 -17.290   3.171  1.00  0.00    -0.007 A 
HETATM   24  N   UNL     1      44.008 -18.100   4.860  1.00  0.00    -0.260 NA
HETATM   25  C   UNL     1      41.492 -16.375   2.802  1.00  0.00     0.016 A 
HETATM   26  C   UNL     1      42.955 -18.267   2.283  1.00  0.00     0.015 A 
HETATM   27  C   UNL     1      41.052 -15.406   3.706  1.00  0.00     0.038 A 
HETATM   28  C   UNL     1      43.946 -19.150   2.689  1.00  0.00     0.020 A 
HETATM   29  C   UNL     1      44.436 -19.027   3.974  1.00  0.00     0.117 A 
ENDBRANCH  19  20
ENDBRANCH  18  19
ENDBRANCH  17  18
ENDBRANCH  16  17
ENDBRANCH   1  16
TORSDOF 7
ENDMDL
MODEL 9
REMARK VINA RESULT:      -7.8      1.290      2.177
REMARK  7 active torsions:
REMARK  status: ('A' for Active; 'I' for Inactive)
REMARK    1  A    between atoms: C_6  and  N_7 
REMARK       I    between atoms: N_7  and  C_8 
REMARK       I    between atoms: C_8  and  N_9 
REMARK    2  A    between atoms: N_9  and  C_10 
REMARK    3  A    between atoms: C_10  and  C_11 
REMARK    4  A    between atoms: C_11  and  C_12 
REMARK    5  A    between atoms: C_12  and  C_13 
REMARK    6  A    between atoms: C_13  and  O_14 
REMARK    7  A    between atoms: O_14  and  C_15 
ROOT
HETATM    1  C   UNL     1      43.094 -10.526   6.828  1.00  0.00     0.219 C 
ENDROOT
BRANCH   1   2
HETATM    2  N   UNL     1      44.181 -10.377   7.765  1.00  0.00    -0.332 N 
HETATM    3  C   UNL     1      44.219  -9.950   9.055  1.00  0.00     0.321 C 
HETATM    4  N   UNL     1      43.049  -9.478   9.576  1.00  0.00    -0.309 N 
HETATM    5  O   UNL     1      45.295 -10.039   9.638  1.00  0.00    -0.247 OA
HETATM    6  H   UNL     1      42.295  -9.322   8.930  1.00  0.00     0.170 HD
HETATM    7  H   UNL     1      45.093 -10.685   7.452  1.00  0.00     0.165 HD
BRANCH   4   8
HETATM    8  C   UNL     1      42.802  -9.041  10.896  1.00  0.00     0.036 A 
HETATM    9  C   UNL     1      42.716  -7.701  11.279  1.00  0.00     0.037 A 
HETATM   10  C   UNL     1      42.461  -7.335  12.615  1.00  0.00    -0.054 A 
HETATM   11  C   UNL     1      42.279  -8.337  13.586  1.00  0.00    -0.056 A 
HETATM   12  C   UNL     1      42.337  -5.874  12.956  1.00  0.00     0.049 C 
HETATM   13  C   UNL     1      41.994  -8.001  15.024  1.00  0.00     0.049 C 
HETATM   14  C   UNL     1      42.385  -9.681  13.203  1.00  0.00     0.009 A 
HETATM   15  C   UNL     1      42.640 -10.027  11.874  1.00  0.00     0.030 A 
ENDBRANCH   4   8
ENDBRANCH   1   2
BRANCH   1  16
HETATM   16  C   UNL     1      43.078 -11.958   6.318  1.00  0.00    -0.085 C 
BRANCH  16  17
HETATM   17  C   UNL     1      43.064 -13.186   5.881  1.00  0.00    -0.078 C 
BRANCH  17  18
HETATM   18  C   UNL     1      43.049 -14.618   5.369  1.00  0.00     0.269 C 
BRANCH  18  19
HETATM   19  O   UNL     1      43.635 -15.481   6.337  1.00  0.00    -0.339 OA
BRANCH  19  20
HETATM   20  C   UNL     1      43.641 -16.815   6.026  1.00  0.00     0.072 A 
HETATM   21  C   UNL     1      43.804 -17.106   4.668  1.00  0.00     0.069 A 
HETATM   22  C   UNL     1      43.837 -18.410   4.191  1.00  0.00     0.069 A 
HETATM   23  C   UNL     1      43.721 -19.464   5.121  1.00  0.00    -0.007 A 
HETATM   24  N   UNL     1      43.974 -18.634   2.871  1.00  0.00    -0.260 NA
HETATM   25  C   UNL     1      43.576 -19.183   6.488  1.00  0.00     0.016 A 
HETATM   26  C   UNL     1      43.758 -20.778   4.641  1.00  0.00     0.015 A 
HETATM   27  C   UNL     1      43.534 -17.863   6.938  1.00  0.00     0.038 A 
HETATM   28  C   UNL     1      43.900 -21.011   3.279  1.00  0.00     0.020 A 
HETATM   29  C   UNL     1      44.001 -19.916   2.443  1.00  0.00     0.117 A 
ENDBRANCH  19  20
ENDBRANCH  18  19
ENDBRANCH  17  18
ENDBRANCH  16  17
ENDBRANCH   1  16
TORSDOF 7
ENDMDL
MODEL 10
REMARK VINA RESULT:      -7.8     17.868     20.305
REMARK  7 active torsions:
REMARK  status: ('A' for Active; 'I' for Inactive)
REMARK    1  A    between atoms: C_6  and  N_7 
REMARK       I    between atoms: N_7  and  C_8 
REMARK       I    between atoms: C_8  and  N_9 
REMARK    2  A    between atoms: N_9  and  C_10 
REMARK    3  A    between atoms: C_10  and  C_11 
REMARK    4  A    between atoms: C_11  and  C_12 
REMARK    5  A    between atoms: C_12  and  C_13 
REMARK    6  A    between atoms: C_13  and  O_14 
REMARK    7  A    between atoms: O_14  and  C_15 
ROOT
HETATM    1  C   UNL     1      51.290 -32.356   0.760  1.00  0.00     0.219 C 
ENDROOT
BRANCH   1   2
HETATM    2  N   UNL     1      51.542 -31.524  -0.391  1.00  0.00    -0.332 N 
HETATM    3  C   UNL     1      50.715 -30.794  -1.186  1.00  0.00     0.321 C 
HETATM    4  N   UNL     1      49.376 -30.911  -0.944  1.00  0.00    -0.309 N 
HETATM    5  O   UNL     1      51.245 -30.089  -2.039  1.00  0.00    -0.247 OA
HETATM    6  H   UNL     1      49.091 -31.645  -0.320  1.00  0.00     0.170 HD
HETATM    7  H   UNL     1      52.511 -31.399  -0.654  1.00  0.00     0.165 HD
BRANCH   4   8
HETATM    8  C   UNL     1      48.319 -30.219  -1.574  1.00  0.00     0.036 A 
HETATM    9  C   UNL     1      47.348 -30.824  -2.373  1.00  0.00     0.037 A 
HETATM   10  C   UNL     1      46.314 -30.073  -2.967  1.00  0.00    -0.054 A 
HETATM   11  C   UNL     1      46.250 -28.685  -2.745  1.00  0.00    -0.056 A 
HETATM   12  C   UNL     1      45.273 -30.791  -3.784  1.00  0.00     0.049 C 
HETATM   13  C   UNL     1      45.162 -27.839  -3.347  1.00  0.00     0.049 C 
HETATM   14  C   UNL     1      47.237 -28.077  -1.958  1.00  0.00     0.009 A 
HETATM   15  C   UNL     1      48.256 -28.836  -1.378  1.00  0.00     0.030 A 
ENDBRANCH   4   8
ENDBRANCH   1   2
BRANCH   1  16
HETATM   16  C   UNL     1      50.790 -31.480   1.898  1.00  0.00    -0.085 C 
BRANCH  16  17
HETATM   17  C   UNL     1      50.363 -30.729   2.875  1.00  0.00    -0.078 C 
BRANCH  17  18
HETATM   18  C   UNL     1      49.864 -29.852   4.012  1.00  0.00     0.269 C 
BRANCH  18  19
HETATM   19  O   UNL     1      48.501 -30.155   4.291  1.00  0.00    -0.339 OA
BRANCH  19  20
HETATM   20  C   UNL     1      47.605 -29.856   3.298  1.00  0.00     0.072 A 
HETATM   21  C   UNL     1      46.769 -30.911   2.918  1.00  0.00     0.069 A 
HETATM   22  C   UNL     1      45.803 -30.767   1.931  1.00  0.00     0.069 A 
HETATM   23  C   UNL     1      45.661 -29.507   1.314  1.00  0.00    -0.007 A 
HETATM   24  N   UNL     1      45.039 -31.820   1.587  1.00  0.00    -0.260 NA
HETATM   25  C   UNL     1      46.482 -28.437   1.700  1.00  0.00     0.016 A 
HETATM   26  C   UNL     1      44.685 -29.361   0.321  1.00  0.00     0.015 A 
HETATM   27  C   UNL     1      47.453 -28.613   2.688  1.00  0.00     0.038 A 
HETATM   28  C   UNL     1      43.895 -30.448  -0.033  1.00  0.00     0.020 A 
HETATM   29  C   UNL     1      44.110 -31.644   0.622  1.00  0.00     0.117 A 
ENDBRANCH  19  20
ENDBRANCH  18  19
ENDBRANCH  17  18
ENDBRANCH  16  17
ENDBRANCH   1  16
TORSDOF 7
ENDMDL
