MODEL 1
REMARK VINA RESULT:      -7.8      0.000      0.000
REMARK  6 active torsions:
REMARK  status: ('A' for Active; 'I' for Inactive)
REMARK    1  A    between atoms: C_2  and  N_3 
REMARK    2  A    between atoms: C_2  and  C_21 
REMARK       I    between atoms: N_3  and  C_4 
REMARK       I    between atoms: C_4  and  N_5 
REMARK    3  A    between atoms: N_5  and  C_6 
REMARK    4  A    between atoms: C_9  and  O_10 
REMARK    5  A    between atoms: O_10  and  C_11 
REMARK    6  A    between atoms: C_11  and  C_12 
ROOT
HETATM    1  C   UNL     1      40.586 -14.450   2.835  1.00  0.00     0.036 A 
HETATM    2  C   UNL     1      41.700 -13.784   3.346  1.00  0.00     0.032 A 
HETATM    3  C   UNL     1      42.584 -14.430   4.222  1.00  0.00     0.039 A 
HETATM    4  C   UNL     1      42.361 -15.751   4.603  1.00  0.00     0.068 A 
HETATM    5  C   UNL     1      41.244 -16.418   4.100  1.00  0.00     0.039 A 
HETATM    6  C   UNL     1      40.361 -15.775   3.224  1.00  0.00     0.032 A 
ENDROOT
BRANCH   1   7
HETATM    7  N   UNL     1      39.654 -13.857   1.960  1.00  0.00    -0.309 N 
HETATM    8  C   UNL     1      39.907 -13.290   0.731  1.00  0.00     0.321 C 
HETATM    9  N   UNL     1      38.778 -12.713   0.206  1.00  0.00    -0.332 N 
HETATM   10  O   UNL     1      40.974 -13.281   0.134  1.00  0.00    -0.247 OA
HETATM   11  H   UNL     1      37.998 -12.491   0.809  1.00  0.00     0.165 HD
HETATM   12  H   UNL     1      38.681 -13.936   2.212  1.00  0.00     0.170 HD
BRANCH   9  13
HETATM   13  C   UNL     1      38.817 -11.983  -1.058  1.00  0.00     0.155 C 
HETATM   14  C   UNL     1      37.956 -10.720  -0.994  1.00  0.00     0.041 C 
BRANCH  13  15
HETATM   15  C   UNL     1      38.330 -12.903  -2.144  1.00  0.00     0.169 A 
HETATM   16  N   UNL     1      37.074 -12.890  -2.615  1.00  0.00    -0.156 NA
HETATM   17  N   UNL     1      37.118 -13.865  -3.535  1.00  0.00    -0.270 N 
HETATM   18  H   UNL     1      36.284 -14.083  -4.069  1.00  0.00     0.190 HD
HETATM   19  C   UNL     1      38.352 -14.432  -3.595  1.00  0.00     0.227 A 
HETATM   20  N   UNL     1      39.148 -13.850  -2.729  1.00  0.00    -0.223 NA
ENDBRANCH  13  15
ENDBRANCH   9  13
ENDBRANCH   1   7
BRANCH   4  21
HETATM   21  O   UNL     1      43.146 -16.487   5.447  1.00  0.00    -0.351 OA
BRANCH  21  22
HETATM   22  C   UNL     1      43.091 -17.908   5.297  1.00  0.00     0.180 C 
BRANCH  22  23
HETATM   23  C   UNL     1      44.337 -18.384   4.526  1.00  0.00     0.010 C 
HETATM   24  C   UNL     1      44.639 -19.862   4.819  1.00  0.00     0.007 C 
HETATM   25  C   UNL     1      43.649 -20.816   4.152  1.00  0.00     0.000 C 
HETATM   26  C   UNL     1      43.549 -20.564   2.650  1.00  0.00     0.000 C 
HETATM   27  C   UNL     1      43.235 -19.105   2.335  1.00  0.00     0.000 C 
HETATM   28  C   UNL     1      44.221 -18.153   3.010  1.00  0.00     0.007 C 
ENDBRANCH  22  23
ENDBRANCH  21  22
ENDBRANCH   4  21
TORSDOF 6
ENDMDL
MODEL 2
REMARK VINA RESULT:      -7.6      5.615      8.491
REMARK  6 active torsions:
REMARK  status: ('A' for Active; 'I' for Inactive)
REMARK    1  A    between atoms: C_2  and  N_3 
REMARK    2  A    between atoms: C_2  and  C_21 
REMARK       I    between atoms: N_3  and  C_4 
REMARK       I    between atoms: C_4  and  N_5 
REMARK    3  A    between atoms: N_5  and  C_6 
REMARK    4  A    between atoms: C_9  and  O_10 
REMARK    5  A    between atoms: O_10  and  C_11 
REMARK    6  A    between atoms: C_11  and  C_12 
ROOT
HETATM    1  C   UNL     1      42.614 -13.094   5.879  1.00  0.00     0.036 A 
HETATM    2  C   UNL     1      42.372 -14.419   6.244  1.00  0.00     0.032 A 
HETATM    3  C   UNL     1      42.421 -15.446   5.293  1.00  0.00     0.039 A 
HETATM    4  C   UNL     1      42.708 -15.161   3.959  1.00  0.00     0.068 A 
HETATM    5  C   UNL     1      42.943 -13.837   3.589  1.00  0.00     0.039 A 
HETATM    6  C   UNL     1      42.896 -12.809   4.539  1.00  0.00     0.032 A 
ENDROOT
BRANCH   1   7
HETATM    7  N   UNL     1      42.570 -12.014   6.783  1.00  0.00    -0.309 N 
HETATM    8  C   UNL     1      43.594 -11.545   7.575  1.00  0.00     0.321 C 
HETATM    9  N   UNL     1      43.163 -10.547   8.411  1.00  0.00    -0.332 N 
HETATM   10  O   UNL     1      44.757 -11.925   7.569  1.00  0.00    -0.247 OA
HETATM   11  H   UNL     1      42.176 -10.437   8.598  1.00  0.00     0.165 HD
HETATM   12  H   UNL     1      41.727 -11.459   6.788  1.00  0.00     0.170 HD
BRANCH   9  13
HETATM   13  C   UNL     1      44.055  -9.946   9.399  1.00  0.00     0.155 C 
HETATM   14  C   UNL     1      43.947 -10.658  10.748  1.00  0.00     0.041 C 
BRANCH  13  15
HETATM   15  C   UNL     1      43.688  -8.492   9.534  1.00  0.00     0.169 A 
HETATM   16  N   UNL     1      44.033  -7.557   8.637  1.00  0.00    -0.156 NA
HETATM   17  N   UNL     1      43.506  -6.450   9.181  1.00  0.00    -0.270 N 
HETATM   18  H   UNL     1      43.612  -5.562   8.703  1.00  0.00     0.190 HD
HETATM   19  C   UNL     1      42.881  -6.727  10.355  1.00  0.00     0.227 A 
HETATM   20  N   UNL     1      42.974  -8.010  10.614  1.00  0.00    -0.223 NA
ENDBRANCH  13  15
ENDBRANCH   9  13
ENDBRANCH   1   7
BRANCH   4  21
HETATM   21  O   UNL     1      42.785 -16.072   2.942  1.00  0.00    -0.351 OA
BRANCH  21  22
HETATM   22  C   UNL     1      42.682 -17.451   3.307  1.00  0.00     0.180 C 
BRANCH  22  23
HETATM   23  C   UNL     1      44.065 -18.115   3.173  1.00  0.00     0.010 C 
HETATM   24  C   UNL     1      44.654 -18.454   4.551  1.00  0.00     0.007 C 
HETATM   25  C   UNL     1      43.959 -19.639   5.220  1.00  0.00     0.000 C 
HETATM   26  C   UNL     1      43.942 -20.866   4.313  1.00  0.00     0.000 C 
HETATM   27  C   UNL     1      43.347 -20.557   2.944  1.00  0.00     0.000 C 
HETATM   28  C   UNL     1      44.038 -19.367   2.280  1.00  0.00     0.007 C 
ENDBRANCH  22  23
ENDBRANCH  21  22
ENDBRANCH   4  21
TORSDOF 6
ENDMDL
MODEL 3
REMARK VINA RESULT:      -7.6      1.692      2.002
REMARK  6 active torsions:
REMARK  status: ('A' for Active; 'I' for Inactive)
REMARK    1  A    between atoms: C_2  and  N_3 
REMARK    2  A    between atoms: C_2  and  C_21 
REMARK       I    between atoms: N_3  and  C_4 
REMARK       I    between atoms: C_4  and  N_5 
REMARK    3  A    between atoms: N_5  and  C_6 
REMARK    4  A    between atoms: C_9  and  O_10 
REMARK    5  A    between atoms: O_10  and  C_11 
REMARK    6  A    between atoms: C_11  and  C_12 
ROOT
HETATM    1  C   UNL     1      41.510 -14.990   1.296  1.00  0.00     0.036 A 
HETATM    2  C   UNL     1      42.704 -14.461   1.788  1.00  0.00     0.032 A 
HETATM    3  C   UNL     1      43.244 -14.911   3.000  1.00  0.00     0.039 A 
HETATM    4  C   UNL     1      42.594 -15.896   3.741  1.00  0.00     0.068 A 
HETATM    5  C   UNL     1      41.396 -16.423   3.256  1.00  0.00     0.039 A 
HETATM    6  C   UNL     1      40.856 -15.975   2.045  1.00  0.00     0.032 A 
ENDROOT
BRANCH   1   7
HETATM    7  N   UNL     1      40.908 -14.575   0.092  1.00  0.00    -0.309 N 
HETATM    8  C   UNL     1      39.924 -13.626  -0.067  1.00  0.00     0.321 C 
HETATM    9  N   UNL     1      39.501 -13.558  -1.370  1.00  0.00    -0.332 N 
HETATM   10  O   UNL     1      39.458 -12.902   0.803  1.00  0.00    -0.247 OA
HETATM   11  H   UNL     1      39.687 -14.324  -2.001  1.00  0.00     0.165 HD
HETATM   12  H   UNL     1      41.301 -14.942  -0.762  1.00  0.00     0.170 HD
BRANCH   9  13
HETATM   13  C   UNL     1      38.409 -12.674  -1.768  1.00  0.00     0.155 C 
HETATM   14  C   UNL     1      37.419 -13.395  -2.685  1.00  0.00     0.041 C 
BRANCH  13  15
HETATM   15  C   UNL     1      39.004 -11.480  -2.463  1.00  0.00     0.169 A 
HETATM   16  N   UNL     1      38.346 -10.326  -2.644  1.00  0.00    -0.156 NA
HETATM   17  N   UNL     1      39.257  -9.592  -3.300  1.00  0.00    -0.270 N 
HETATM   18  H   UNL     1      39.029  -8.642  -3.573  1.00  0.00     0.190 HD
HETATM   19  C   UNL     1      40.404 -10.293  -3.501  1.00  0.00     0.227 A 
HETATM   20  N   UNL     1      40.283 -11.494  -2.985  1.00  0.00    -0.223 NA
ENDBRANCH  13  15
ENDBRANCH   9  13
ENDBRANCH   1   7
BRANCH   4  21
HETATM   21  O   UNL     1      43.018 -16.417   4.932  1.00  0.00    -0.351 OA
BRANCH  21  22
HETATM   22  C   UNL     1      42.987 -17.841   5.056  1.00  0.00     0.180 C 
BRANCH  22  23
HETATM   23  C   UNL     1      44.306 -18.425   4.516  1.00  0.00     0.010 C 
HETATM   24  C   UNL     1      44.563 -19.830   5.084  1.00  0.00     0.007 C 
HETATM   25  C   UNL     1      43.646 -20.893   4.481  1.00  0.00     0.000 C 
HETATM   26  C   UNL     1      43.713 -20.896   2.956  1.00  0.00     0.000 C 
HETATM   27  C   UNL     1      43.446 -19.514   2.369  1.00  0.00     0.000 C 
HETATM   28  C   UNL     1      44.359 -18.452   2.979  1.00  0.00     0.007 C 
ENDBRANCH  22  23
ENDBRANCH  21  22
ENDBRANCH   4  21
TORSDOF 6
ENDMDL
MODEL 4
REMARK VINA RESULT:      -7.5      4.891      6.960
REMARK  6 active torsions:
REMARK  status: ('A' for Active; 'I' for Inactive)
REMARK    1  A    between atoms: C_2  and  N_3 
REMARK    2  A    between atoms: C_2  and  C_21 
REMARK       I    between atoms: N_3  and  C_4 
REMARK       I    between atoms: C_4  and  N_5 
REMARK    3  A    between atoms: N_5  and  C_6 
REMARK    4  A    between atoms: C_9  and  O_10 
REMARK    5  A    between atoms: O_10  and  C_11 
REMARK    6  A    between atoms: C_11  and  C_12 
ROOT
HETATM    1  C   UNL     1      41.842 -13.810   4.824  1.00  0.00     0.036 A 
HETATM    2  C   UNL     1      41.178 -15.022   5.018  1.00  0.00     0.032 A 
HETATM    3  C   UNL     1      41.360 -16.091   4.129  1.00  0.00     0.039 A 
HETATM    4  C   UNL     1      42.206 -15.959   3.030  1.00  0.00     0.068 A 
HETATM    5  C   UNL     1      42.866 -14.747   2.829  1.00  0.00     0.039 A 
HETATM    6  C   UNL     1      42.686 -13.679   3.717  1.00  0.00     0.032 A 
ENDROOT
BRANCH   1   7
HETATM    7  N   UNL     1      41.696 -12.695   5.673  1.00  0.00    -0.309 N 
HETATM    8  C   UNL     1      40.551 -11.964   5.902  1.00  0.00     0.321 C 
HETATM    9  N   UNL     1      40.804 -10.879   6.704  1.00  0.00    -0.332 N 
HETATM   10  O   UNL     1      39.429 -12.209   5.480  1.00  0.00    -0.247 OA
HETATM   11  H   UNL     1      41.750 -10.543   6.814  1.00  0.00     0.165 HD
HETATM   12  H   UNL     1      42.488 -12.456   6.249  1.00  0.00     0.170 HD
BRANCH   9  13
HETATM   13  C   UNL     1      39.757  -9.913   7.025  1.00  0.00     0.155 C 
HETATM   14  C   UNL     1      40.198  -8.487   6.688  1.00  0.00     0.041 C 
BRANCH  13  15
HETATM   15  C   UNL     1      39.439 -10.039   8.490  1.00  0.00     0.169 A 
HETATM   16  N   UNL     1      38.548 -10.913   8.980  1.00  0.00    -0.156 NA
HETATM   17  N   UNL     1      38.603 -10.651  10.294  1.00  0.00    -0.270 N 
HETATM   18  H   UNL     1      38.018 -11.179  10.932  1.00  0.00     0.190 HD
HETATM   19  C   UNL     1      39.489  -9.656  10.562  1.00  0.00     0.227 A 
HETATM   20  N   UNL     1      40.040  -9.243   9.445  1.00  0.00    -0.223 NA
ENDBRANCH  13  15
ENDBRANCH   9  13
ENDBRANCH   1   7
BRANCH   4  21
HETATM   21  O   UNL     1      42.465 -16.924   2.097  1.00  0.00    -0.351 OA
BRANCH  21  22
HETATM   22  C   UNL     1      42.536 -18.272   2.571  1.00  0.00     0.180 C 
BRANCH  22  23
HETATM   23  C   UNL     1      44.012 -18.656   2.787  1.00  0.00     0.010 C 
HETATM   24  C   UNL     1      44.482 -18.278   4.200  1.00  0.00     0.007 C 
HETATM   25  C   UNL     1      43.907 -19.189   5.283  1.00  0.00     0.000 C 
HETATM   26  C   UNL     1      44.186 -20.660   4.987  1.00  0.00     0.000 C 
HETATM   27  C   UNL     1      43.714 -21.063   3.594  1.00  0.00     0.000 C 
HETATM   28  C   UNL     1      44.284 -20.145   2.514  1.00  0.00     0.007 C 
ENDBRANCH  22  23
ENDBRANCH  21  22
ENDBRANCH   4  21
TORSDOF 6
ENDMDL
MODEL 5
REMARK VINA RESULT:      -7.2      5.809      8.640
REMARK  6 active torsions:
REMARK  status: ('A' for Active; 'I' for Inactive)
REMARK    1  A    between atoms: C_2  and  N_3 
REMARK    2  A    between atoms: C_2  and  C_21 
REMARK       I    between atoms: N_3  and  C_4 
REMARK       I    between atoms: C_4  and  N_5 
REMARK    3  A    between atoms: N_5  and  C_6 
REMARK    4  A    between atoms: C_9  and  O_10 
REMARK    5  A    between atoms: O_10  and  C_11 
REMARK    6  A    between atoms: C_11  and  C_12 
ROOT
HETATM    1  C   UNL     1      43.131 -13.470   6.244  1.00  0.00     0.036 A 
HETATM    2  C   UNL     1      43.325 -13.095   4.914  1.00  0.00     0.032 A 
HETATM    3  C   UNL     1      42.948 -13.946   3.865  1.00  0.00     0.039 A 
HETATM    4  C   UNL     1      42.374 -15.187   4.134  1.00  0.00     0.068 A 
HETATM    5  C   UNL     1      42.186 -15.569   5.463  1.00  0.00     0.039 A 
HETATM    6  C   UNL     1      42.561 -14.720   6.511  1.00  0.00     0.032 A 
ENDROOT
BRANCH   1   7
HETATM    7  N   UNL     1      43.496 -12.668   7.343  1.00  0.00    -0.309 N 
HETATM    8  C   UNL     1      43.283 -11.317   7.498  1.00  0.00     0.321 C 
HETATM    9  N   UNL     1      43.869 -10.847   8.647  1.00  0.00    -0.332 N 
HETATM   10  O   UNL     1      42.653 -10.584   6.748  1.00  0.00    -0.247 OA
HETATM   11  H   UNL     1      44.595 -11.385   9.099  1.00  0.00     0.165 HD
HETATM   12  H   UNL     1      43.872 -13.146   8.148  1.00  0.00     0.170 HD
BRANCH   9  13
HETATM   13  C   UNL     1      43.842  -9.428   8.987  1.00  0.00     0.155 C 
HETATM   14  C   UNL     1      45.246  -8.823   8.951  1.00  0.00     0.041 C 
BRANCH  13  15
HETATM   15  C   UNL     1      43.239  -9.289  10.359  1.00  0.00     0.169 A 
HETATM   16  N   UNL     1      43.947  -8.940  11.444  1.00  0.00    -0.156 NA
HETATM   17  N   UNL     1      43.005  -8.959  12.400  1.00  0.00    -0.270 N 
HETATM   18  H   UNL     1      43.260  -8.726  13.354  1.00  0.00     0.190 HD
HETATM   19  C   UNL     1      41.795  -9.311  11.894  1.00  0.00     0.227 A 
HETATM   20  N   UNL     1      41.901  -9.528  10.604  1.00  0.00    -0.223 NA
ENDBRANCH  13  15
ENDBRANCH   9  13
ENDBRANCH   1   7
BRANCH   4  21
HETATM   21  O   UNL     1      41.966 -16.102   3.203  1.00  0.00    -0.351 OA
BRANCH  21  22
HETATM   22  C   UNL     1      42.174 -17.480   3.525  1.00  0.00     0.180 C 
BRANCH  22  23
HETATM   23  C   UNL     1      43.581 -17.901   3.060  1.00  0.00     0.010 C 
HETATM   24  C   UNL     1      44.425 -18.408   4.240  1.00  0.00     0.007 C 
HETATM   25  C   UNL     1      43.988 -19.786   4.736  1.00  0.00     0.000 C 
HETATM   26  C   UNL     1      43.957 -20.808   3.604  1.00  0.00     0.000 C 
HETATM   27  C   UNL     1      43.111 -20.333   2.427  1.00  0.00     0.000 C 
HETATM   28  C   UNL     1      43.545 -18.952   1.938  1.00  0.00     0.007 C 
ENDBRANCH  22  23
ENDBRANCH  21  22
ENDBRANCH   4  21
TORSDOF 6
ENDMDL
MODEL 6
REMARK VINA RESULT:      -7.2      6.446      9.296
REMARK  6 active torsions:
REMARK  status: ('A' for Active; 'I' for Inactive)
REMARK    1  A    between atoms: C_2  and  N_3 
REMARK    2  A    between atoms: C_2  and  C_21 
REMARK       I    between atoms: N_3  and  C_4 
REMARK       I    between atoms: C_4  and  N_5 
REMARK    3  A    between atoms: N_5  and  C_6 
REMARK    4  A    between atoms: C_9  and  O_10 
REMARK    5  A    between atoms: O_10  and  C_11 
REMARK    6  A    between atoms: C_11  and  C_12 
ROOT
HETATM    1  C   UNL     1      43.951 -11.483   6.603  1.00  0.00     0.036 A 
HETATM    2  C   UNL     1      45.215 -11.437   7.193  1.00  0.00     0.032 A 
HETATM    3  C   UNL     1      45.486 -10.549   8.243  1.00  0.00     0.039 A 
HETATM    4  C   UNL     1      44.496  -9.690   8.715  1.00  0.00     0.068 A 
HETATM    5  C   UNL     1      43.233  -9.727   8.122  1.00  0.00     0.039 A 
HETATM    6  C   UNL     1      42.960 -10.615   7.074  1.00  0.00     0.032 A 
ENDROOT
BRANCH   1   7
HETATM    7  N   UNL     1      43.616 -12.344   5.539  1.00  0.00    -0.309 N 
HETATM    8  C   UNL     1      42.950 -13.547   5.616  1.00  0.00     0.321 C 
HETATM    9  N   UNL     1      42.894 -14.165   4.392  1.00  0.00    -0.332 N 
HETATM   10  O   UNL     1      42.446 -14.042   6.614  1.00  0.00    -0.247 OA
HETATM   11  H   UNL     1      43.532 -13.891   3.659  1.00  0.00     0.165 HD
HETATM   12  H   UNL     1      43.798 -12.005   4.607  1.00  0.00     0.170 HD
BRANCH   9  13
HETATM   13  C   UNL     1      42.301 -15.491   4.239  1.00  0.00     0.155 C 
HETATM   14  C   UNL     1      43.326 -16.498   3.713  1.00  0.00     0.041 C 
BRANCH  13  15
HETATM   15  C   UNL     1      41.137 -15.374   3.293  1.00  0.00     0.169 A 
HETATM   16  N   UNL     1      40.151 -14.477   3.443  1.00  0.00    -0.156 NA
HETATM   17  N   UNL     1      39.365 -14.759   2.393  1.00  0.00    -0.270 N 
HETATM   18  H   UNL     1      38.518 -14.220   2.246  1.00  0.00     0.190 HD
HETATM   19  C   UNL     1      39.870 -15.786   1.660  1.00  0.00     0.227 A 
HETATM   20  N   UNL     1      40.992 -16.202   2.197  1.00  0.00    -0.223 NA
ENDBRANCH  13  15
ENDBRANCH   9  13
ENDBRANCH   1   7
BRANCH   4  21
HETATM   21  O   UNL     1      44.636  -8.782   9.728  1.00  0.00    -0.351 OA
BRANCH  21  22
HETATM   22  C   UNL     1      43.462  -8.487  10.490  1.00  0.00     0.180 C 
BRANCH  22  23
HETATM   23  C   UNL     1      43.641  -9.019  11.924  1.00  0.00     0.010 C 
HETATM   24  C   UNL     1      43.355  -7.923  12.962  1.00  0.00     0.007 C 
HETATM   25  C   UNL     1      41.868  -7.593  13.085  1.00  0.00     0.000 C 
HETATM   26  C   UNL     1      41.036  -8.842  13.363  1.00  0.00     0.000 C 
HETATM   27  C   UNL     1      41.292  -9.940  12.335  1.00  0.00     0.000 C 
HETATM   28  C   UNL     1      42.780 -10.261  12.207  1.00  0.00     0.007 C 
ENDBRANCH  22  23
ENDBRANCH  21  22
ENDBRANCH   4  21
TORSDOF 6
ENDMDL
MODEL 7
REMARK VINA RESULT:      -7.1      4.951      7.394
REMARK  6 active torsions:
REMARK  status: ('A' for Active; 'I' for Inactive)
REMARK    1  A    between atoms: C_2  and  N_3 
REMARK    2  A    between atoms: C_2  and  C_21 
REMARK       I    between atoms: N_3  and  C_4 
REMARK       I    between atoms: C_4  and  N_5 
REMARK    3  A    between atoms: N_5  and  C_6 
REMARK    4  A    between atoms: C_9  and  O_10 
REMARK    5  A    between atoms: O_10  and  C_11 
REMARK    6  A    between atoms: C_11  and  C_12 
ROOT
HETATM    1  C   UNL     1      43.295 -12.813   4.541  1.00  0.00     0.036 A 
HETATM    2  C   UNL     1      43.195 -13.647   5.656  1.00  0.00     0.032 A 
HETATM    3  C   UNL     1      43.721 -13.256   6.895  1.00  0.00     0.039 A 
HETATM    4  C   UNL     1      44.359 -12.025   7.035  1.00  0.00     0.068 A 
HETATM    5  C   UNL     1      44.468 -11.192   5.921  1.00  0.00     0.039 A 
HETATM    6  C   UNL     1      43.942 -11.581   4.682  1.00  0.00     0.032 A 
ENDROOT
BRANCH   1   7
HETATM    7  N   UNL     1      42.798 -13.150   3.267  1.00  0.00    -0.309 N 
HETATM    8  C   UNL     1      41.496 -13.443   2.929  1.00  0.00     0.321 C 
HETATM    9  N   UNL     1      41.396 -13.832   1.616  1.00  0.00    -0.332 N 
HETATM   10  O   UNL     1      40.516 -13.373   3.658  1.00  0.00    -0.247 OA
HETATM   11  H   UNL     1      42.218 -14.143   1.119  1.00  0.00     0.165 HD
HETATM   12  H   UNL     1      43.444 -13.080   2.495  1.00  0.00     0.170 HD
BRANCH   9  13
HETATM   13  C   UNL     1      40.122 -14.265   1.049  1.00  0.00     0.155 C 
HETATM   14  C   UNL     1      39.930 -15.774   1.208  1.00  0.00     0.041 C 
BRANCH  13  15
HETATM   15  C   UNL     1      40.105 -13.879  -0.406  1.00  0.00     0.169 A 
HETATM   16  N   UNL     1      40.716 -12.786  -0.887  1.00  0.00    -0.156 NA
HETATM   17  N   UNL     1      40.419 -12.860  -2.193  1.00  0.00    -0.270 N 
HETATM   18  H   UNL     1      40.762 -12.144  -2.823  1.00  0.00     0.190 HD
HETATM   19  C   UNL     1      39.657 -13.953  -2.464  1.00  0.00     0.227 A 
HETATM   20  N   UNL     1      39.437 -14.623  -1.358  1.00  0.00    -0.223 NA
ENDBRANCH  13  15
ENDBRANCH   9  13
ENDBRANCH   1   7
BRANCH   4  21
HETATM   21  O   UNL     1      44.910 -11.532   8.185  1.00  0.00    -0.351 OA
BRANCH  21  22
HETATM   22  C   UNL     1      44.046 -10.772   9.035  1.00  0.00     0.180 C 
BRANCH  22  23
HETATM   23  C   UNL     1      44.858  -9.652   9.711  1.00  0.00     0.010 C 
HETATM   24  C   UNL     1      45.012  -8.439   8.780  1.00  0.00     0.007 C 
HETATM   25  C   UNL     1      43.718  -7.642   8.621  1.00  0.00     0.000 C 
HETATM   26  C   UNL     1      43.144  -7.227   9.973  1.00  0.00     0.000 C 
HETATM   27  C   UNL     1      42.967  -8.418  10.909  1.00  0.00     0.000 C 
HETATM   28  C   UNL     1      44.260  -9.218  11.060  1.00  0.00     0.007 C 
ENDBRANCH  22  23
ENDBRANCH  21  22
ENDBRANCH   4  21
TORSDOF 6
ENDMDL
MODEL 8
REMARK VINA RESULT:      -7.0      5.816      8.605
REMARK  6 active torsions:
REMARK  status: ('A' for Active; 'I' for Inactive)
REMARK    1  A    between atoms: C_2  and  N_3 
REMARK    2  A    between atoms: C_2  and  C_21 
REMARK       I    between atoms: N_3  and  C_4 
REMARK       I    between atoms: C_4  and  N_5 
REMARK    3  A    between atoms: N_5  and  C_6 
REMARK    4  A    between atoms: C_9  and  O_10 
REMARK    5  A    between atoms: O_10  and  C_11 
REMARK    6  A    between atoms: C_11  and  C_12 
ROOT
HETATM    1  C   UNL     1      43.469 -11.673   5.294  1.00  0.00     0.036 A 
HETATM    2  C   UNL     1      43.374 -11.298   3.953  1.00  0.00     0.032 A 
HETATM    3  C   UNL     1      43.067 -12.241   2.963  1.00  0.00     0.039 A 
HETATM    4  C   UNL     1      42.855 -13.576   3.301  1.00  0.00     0.068 A 
HETATM    5  C   UNL     1      42.956 -13.957   4.639  1.00  0.00     0.039 A 
HETATM    6  C   UNL     1      43.262 -13.015   5.630  1.00  0.00     0.032 A 
ENDROOT
BRANCH   1   7
HETATM    7  N   UNL     1      43.785 -10.778   6.336  1.00  0.00    -0.309 N 
HETATM    8  C   UNL     1      42.905 -10.121   7.167  1.00  0.00     0.321 C 
HETATM    9  N   UNL     1      43.561  -9.245   7.995  1.00  0.00    -0.332 N 
HETATM   10  O   UNL     1      41.692 -10.267   7.212  1.00  0.00    -0.247 OA
HETATM   11  H   UNL     1      44.496  -8.939   7.767  1.00  0.00     0.165 HD
HETATM   12  H   UNL     1      44.762 -10.674   6.565  1.00  0.00     0.170 HD
BRANCH   9  13
HETATM   13  C   UNL     1      42.829  -8.378   8.915  1.00  0.00     0.155 C 
HETATM   14  C   UNL     1      43.621  -7.107   9.226  1.00  0.00     0.041 C 
BRANCH  13  15
HETATM   15  C   UNL     1      42.558  -9.157  10.173  1.00  0.00     0.169 A 
HETATM   16  N   UNL     1      41.327  -9.506  10.575  1.00  0.00    -0.156 NA
HETATM   17  N   UNL     1      41.588 -10.158  11.718  1.00  0.00    -0.270 N 
HETATM   18  H   UNL     1      40.822 -10.547  12.255  1.00  0.00     0.190 HD
HETATM   19  C   UNL     1      42.922 -10.184  11.978  1.00  0.00     0.227 A 
HETATM   20  N   UNL     1      43.570  -9.561  11.022  1.00  0.00    -0.223 NA
ENDBRANCH  13  15
ENDBRANCH   9  13
ENDBRANCH   1   7
BRANCH   4  21
HETATM   21  O   UNL     1      42.549 -14.586   2.431  1.00  0.00    -0.351 OA
BRANCH  21  22
HETATM   22  C   UNL     1      43.356 -15.765   2.510  1.00  0.00     0.180 C 
BRANCH  22  23
HETATM   23  C   UNL     1      42.476 -16.952   2.942  1.00  0.00     0.010 C 
HETATM   24  C   UNL     1      42.938 -18.257   2.275  1.00  0.00     0.007 C 
HETATM   25  C   UNL     1      44.246 -18.792   2.857  1.00  0.00     0.000 C 
HETATM   26  C   UNL     1      44.165 -18.949   4.373  1.00  0.00     0.000 C 
HETATM   27  C   UNL     1      43.722 -17.660   5.059  1.00  0.00     0.000 C 
HETATM   28  C   UNL     1      42.419 -17.124   4.470  1.00  0.00     0.007 C 
ENDBRANCH  22  23
ENDBRANCH  21  22
ENDBRANCH   4  21
TORSDOF 6
ENDMDL
MODEL 9
REMARK VINA RESULT:      -7.0      5.316      9.478
REMARK  6 active torsions:
REMARK  status: ('A' for Active; 'I' for Inactive)
REMARK    1  A    between atoms: C_2  and  N_3 
REMARK    2  A    between atoms: C_2  and  C_21 
REMARK       I    between atoms: N_3  and  C_4 
REMARK       I    between atoms: C_4  and  N_5 
REMARK    3  A    between atoms: N_5  and  C_6 
REMARK    4  A    between atoms: C_9  and  O_10 
REMARK    5  A    between atoms: O_10  and  C_11 
REMARK    6  A    between atoms: C_11  and  C_12 
ROOT
HETATM    1  C   UNL     1      42.474 -13.563   5.085  1.00  0.00     0.036 A 
HETATM    2  C   UNL     1      43.029 -13.338   3.824  1.00  0.00     0.032 A 
HETATM    3  C   UNL     1      42.411 -13.834   2.668  1.00  0.00     0.039 A 
HETATM    4  C   UNL     1      41.228 -14.566   2.758  1.00  0.00     0.068 A 
HETATM    5  C   UNL     1      40.674 -14.799   4.017  1.00  0.00     0.039 A 
HETATM    6  C   UNL     1      41.290 -14.304   5.173  1.00  0.00     0.032 A 
ENDROOT
BRANCH   1   7
HETATM    7  N   UNL     1      43.049 -13.102   6.286  1.00  0.00    -0.309 N 
HETATM    8  C   UNL     1      43.139 -11.800   6.723  1.00  0.00     0.321 C 
HETATM    9  N   UNL     1      43.859 -11.713   7.888  1.00  0.00    -0.332 N 
HETATM   10  O   UNL     1      42.649 -10.813   6.191  1.00  0.00    -0.247 OA
HETATM   11  H   UNL     1      44.472 -12.469   8.159  1.00  0.00     0.165 HD
HETATM   12  H   UNL     1      43.348 -13.805   6.945  1.00  0.00     0.170 HD
BRANCH   9  13
HETATM   13  C   UNL     1      44.152 -10.422   8.504  1.00  0.00     0.155 C 
HETATM   14  C   UNL     1      45.655 -10.138   8.507  1.00  0.00     0.041 C 
BRANCH  13  15
HETATM   15  C   UNL     1      43.613 -10.443   9.909  1.00  0.00     0.169 A 
HETATM   16  N   UNL     1      44.060 -11.277  10.859  1.00  0.00    -0.156 NA
HETATM   17  N   UNL     1      43.292 -10.937  11.904  1.00  0.00    -0.270 N 
HETATM   18  H   UNL     1      43.414 -11.416  12.789  1.00  0.00     0.190 HD
HETATM   19  C   UNL     1      42.424  -9.944  11.576  1.00  0.00     0.227 A 
HETATM   20  N   UNL     1      42.596  -9.604  10.321  1.00  0.00    -0.223 NA
ENDBRANCH  13  15
ENDBRANCH   9  13
ENDBRANCH   1   7
BRANCH   4  21
HETATM   21  O   UNL     1      40.532 -15.099   1.709  1.00  0.00    -0.351 OA
BRANCH  21  22
HETATM   22  C   UNL     1      40.876 -14.623   0.404  1.00  0.00     0.180 C 
BRANCH  22  23
HETATM   23  C   UNL     1      39.702 -13.799  -0.159  1.00  0.00     0.010 C 
HETATM   24  C   UNL     1      40.069 -12.311  -0.264  1.00  0.00     0.007 C 
HETATM   25  C   UNL     1      41.047 -12.017  -1.401  1.00  0.00     0.000 C 
HETATM   26  C   UNL     1      40.535 -12.552  -2.735  1.00  0.00     0.000 C 
HETATM   27  C   UNL     1      40.178 -14.033  -2.660  1.00  0.00     0.000 C 
HETATM   28  C   UNL     1      39.207 -14.325  -1.517  1.00  0.00     0.007 C 
ENDBRANCH  22  23
ENDBRANCH  21  22
ENDBRANCH   4  21
TORSDOF 6
ENDMDL
MODEL 10
REMARK VINA RESULT:      -6.9     15.057     17.152
REMARK  6 active torsions:
REMARK  status: ('A' for Active; 'I' for Inactive)
REMARK    1  A    between atoms: C_2  and  N_3 
REMARK    2  A    between atoms: C_2  and  C_21 
REMARK       I    between atoms: N_3  and  C_4 
REMARK       I    between atoms: C_4  and  N_5 
REMARK    3  A    between atoms: N_5  and  C_6 
REMARK    4  A    between atoms: C_9  and  O_10 
REMARK    5  A    between atoms: O_10  and  C_11 
REMARK    6  A    between atoms: C_11  and  C_12 
ROOT
HETATM    1  C   UNL     1      42.340 -31.285   2.488  1.00  0.00     0.036 A 
HETATM    2  C   UNL     1      42.083 -30.141   1.733  1.00  0.00     0.032 A 
HETATM    3  C   UNL     1      43.120 -29.268   1.374  1.00  0.00     0.039 A 
HETATM    4  C   UNL     1      44.430 -29.527   1.772  1.00  0.00     0.068 A 
HETATM    5  C   UNL     1      44.690 -30.666   2.534  1.00  0.00     0.039 A 
HETATM    6  C   UNL     1      43.656 -31.540   2.892  1.00  0.00     0.032 A 
ENDROOT
BRANCH   1   7
HETATM    7  N   UNL     1      41.344 -32.196   2.890  1.00  0.00    -0.309 N 
HETATM    8  C   UNL     1      40.509 -32.094   3.980  1.00  0.00     0.321 C 
HETATM    9  N   UNL     1      39.736 -33.219   4.125  1.00  0.00    -0.332 N 
HETATM   10  O   UNL     1      40.418 -31.144   4.746  1.00  0.00    -0.247 OA
HETATM   11  H   UNL     1      40.007 -34.078   3.669  1.00  0.00     0.165 HD
HETATM   12  H   UNL     1      41.152 -32.964   2.265  1.00  0.00     0.170 HD
BRANCH   9  13
HETATM   13  C   UNL     1      38.825 -33.373   5.255  1.00  0.00     0.155 C 
HETATM   14  C   UNL     1      39.069 -34.695   5.986  1.00  0.00     0.041 C 
BRANCH  13  15
HETATM   15  C   UNL     1      37.416 -33.308   4.731  1.00  0.00     0.169 A 
HETATM   16  N   UNL     1      36.340 -33.178   5.521  1.00  0.00    -0.156 NA
HETATM   17  N   UNL     1      35.342 -33.177   4.623  1.00  0.00    -0.270 N 
HETATM   18  H   UNL     1      34.385 -33.087   4.944  1.00  0.00     0.190 HD
HETATM   19  C   UNL     1      35.818 -33.308   3.357  1.00  0.00     0.227 A 
HETATM   20  N   UNL     1      37.127 -33.394   3.383  1.00  0.00    -0.223 NA
ENDBRANCH  13  15
ENDBRANCH   9  13
ENDBRANCH   1   7
BRANCH   4  21
HETATM   21  O   UNL     1      45.523 -28.756   1.487  1.00  0.00    -0.351 OA
BRANCH  21  22
HETATM   22  C   UNL     1      46.359 -29.202   0.415  1.00  0.00     0.180 C 
BRANCH  22  23
HETATM   23  C   UNL     1      46.450 -28.094  -0.651  1.00  0.00     0.010 C 
HETATM   24  C   UNL     1      47.516 -28.426  -1.706  1.00  0.00     0.007 C 
HETATM   25  C   UNL     1      47.086 -29.544  -2.656  1.00  0.00     0.000 C 
HETATM   26  C   UNL     1      45.742 -29.240  -3.310  1.00  0.00     0.000 C 
HETATM   27  C   UNL     1      44.663 -28.922  -2.281  1.00  0.00     0.000 C 
HETATM   28  C   UNL     1      45.098 -27.810  -1.327  1.00  0.00     0.007 C 
ENDBRANCH  22  23
ENDBRANCH  21  22
ENDBRANCH   4  21
TORSDOF 6
ENDMDL
