MODEL 1
REMARK VINA RESULT:      -8.6      0.000      0.000
REMARK  14 active torsions:
REMARK  status: ('A' for Active; 'I' for Inactive)
REMARK    1  A    between atoms: C_2  and  N_3 
REMARK    2  A    between atoms: N_3  and  C_5 
REMARK    3  A    between atoms: N_3  and  C_39 
REMARK    4  A    between atoms: C_5  and  C_6 
REMARK    5  A    between atoms: C_6  and  C_7 
REMARK    6  A    between atoms: C_7  and  N_8 
REMARK    7  A    between atoms: C_11  and  O_12 
REMARK    8  A    between atoms: C_13  and  C_14 
REMARK    9  A    between atoms: C_14  and  C_15 
REMARK   10  A    between atoms: C_18  and  O_19 
REMARK   11  A    between atoms: O_19  and  C_20 
REMARK   12  A    between atoms: C_20  and  C_21 
REMARK   13  A    between atoms: C_31  and  C_32 
REMARK   14  A    between atoms: C_35  and  O_36 
ROOT
HETATM    1  N   UNL     1      38.570 -11.371   2.495  1.00  0.00    -0.333 N 
HETATM    2  C   UNL     1      39.023 -10.136   2.917  1.00  0.00     0.278 C 
HETATM    3  O   UNL     1      38.928  -9.060   2.356  1.00  0.00    -0.265 OA
HETATM    4  C   UNL     1      39.582 -10.311   4.276  1.00  0.00     0.146 C 
HETATM    5  C   UNL     1      39.484 -11.611   4.576  1.00  0.00     0.059 C 
HETATM    6  C   UNL     1      39.052 -12.421   3.385  1.00  0.00     0.161 C 
ENDROOT
BRANCH   5   7
HETATM    7  C   UNL     1      39.659 -12.327   5.860  1.00  0.00     0.193 C 
HETATM    8  O   UNL     1      39.167 -11.847   6.880  1.00  0.00    -0.287 OA
BRANCH   7   9
HETATM    9  C   UNL     1      40.527 -13.522   5.997  1.00  0.00     0.015 A 
HETATM   10  C   UNL     1      41.924 -13.441   6.029  1.00  0.00     0.018 A 
HETATM   11  C   UNL     1      42.699 -14.585   6.259  1.00  0.00     0.038 A 
HETATM   12  C   UNL     1      42.085 -15.812   6.508  1.00  0.00     0.069 A 
HETATM   13  C   UNL     1      40.691 -15.890   6.498  1.00  0.00     0.038 A 
HETATM   14  C   UNL     1      39.914 -14.754   6.247  1.00  0.00     0.018 A 
BRANCH  12  15
HETATM   15  O   UNL     1      42.722 -16.986   6.799  1.00  0.00    -0.347 OA
BRANCH  15  16
HETATM   16  C   UNL     1      44.035 -17.169   6.270  1.00  0.00     0.214 C 
BRANCH  16  17
HETATM   17  C   UNL     1      43.969 -18.069   5.060  1.00  0.00    -0.034 A 
HETATM   18  C   UNL     1      44.127 -19.455   5.183  1.00  0.00     0.010 A 
HETATM   19  C   UNL     1      43.999 -20.286   4.068  1.00  0.00     0.007 A 
HETATM   20  C   UNL     1      43.712 -19.747   2.809  1.00  0.00    -0.062 A 
HETATM   21  C   UNL     1      43.539 -20.633   1.612  1.00  0.00     0.048 C 
HETATM   22  C   UNL     1      43.552 -18.363   2.683  1.00  0.00     0.007 A 
HETATM   23  C   UNL     1      43.681 -17.532   3.798  1.00  0.00     0.010 A 
ENDBRANCH  16  17
ENDBRANCH  15  16
ENDBRANCH  12  15
ENDBRANCH   7   9
ENDBRANCH   5   7
BRANCH   4  24
HETATM   24  O   UNL     1      39.987  -9.264   5.045  1.00  0.00    -0.355 OA
HETATM   25  H   UNL     1      40.443  -8.640   4.441  1.00  0.00     0.218 HD
ENDBRANCH   4  24
BRANCH   6  26
HETATM   26  C   UNL     1      40.140 -13.281   2.760  1.00  0.00    -0.030 A 
HETATM   27  C   UNL     1      39.861 -14.622   2.439  1.00  0.00     0.012 A 
HETATM   28  C   UNL     1      40.832 -15.440   1.857  1.00  0.00     0.037 A 
HETATM   29  C   UNL     1      42.093 -14.921   1.593  1.00  0.00     0.065 A 
HETATM   30  C   UNL     1      42.399 -13.605   1.911  1.00  0.00     0.037 A 
HETATM   31  C   UNL     1      41.430 -12.788   2.500  1.00  0.00     0.012 A 
BRANCH  29  32
HETATM   32  O   UNL     1      43.072 -15.679   1.025  1.00  0.00    -0.361 OA
HETATM   33  H   UNL     1      43.635 -16.047   1.725  1.00  0.00     0.217 HD
ENDBRANCH  29  32
ENDBRANCH   6  26
BRANCH   1  34
HETATM   34  C   UNL     1      38.047 -11.594   1.154  1.00  0.00     0.129 C 
BRANCH  34  35
HETATM   35  C   UNL     1      39.079 -11.435   0.036  1.00  0.00     0.048 C 
BRANCH  35  36
HETATM   36  C   UNL     1      39.204 -12.699  -0.811  1.00  0.00     0.236 C 
BRANCH  36  37
HETATM   37  N   UNL     1      38.813 -12.467  -2.267  1.00  0.00    -0.072 N 
HETATM   38  H   UNL     1      37.953 -11.903  -2.242  1.00  0.00     0.279 HD
BRANCH  37  39
HETATM   39  C   UNL     1      38.439 -13.763  -2.980  1.00  0.00     0.230 C 
HETATM   40  C   UNL     1      38.911 -14.976  -2.199  1.00  0.00     0.034 C 
ENDBRANCH  37  39
BRANCH  37  41
HETATM   41  C   UNL     1      39.787 -11.644  -3.098  1.00  0.00     0.230 C 
HETATM   42  C   UNL     1      41.215 -12.150  -3.002  1.00  0.00     0.034 C 
ENDBRANCH  37  41
ENDBRANCH  36  37
ENDBRANCH  35  36
ENDBRANCH  34  35
ENDBRANCH   1  34
TORSDOF 14
ENDMDL
MODEL 2
REMARK VINA RESULT:      -8.3      3.013      6.512
REMARK  14 active torsions:
REMARK  status: ('A' for Active; 'I' for Inactive)
REMARK    1  A    between atoms: C_2  and  N_3 
REMARK    2  A    between atoms: N_3  and  C_5 
REMARK    3  A    between atoms: N_3  and  C_39 
REMARK    4  A    between atoms: C_5  and  C_6 
REMARK    5  A    between atoms: C_6  and  C_7 
REMARK    6  A    between atoms: C_7  and  N_8 
REMARK    7  A    between atoms: C_11  and  O_12 
REMARK    8  A    between atoms: C_13  and  C_14 
REMARK    9  A    between atoms: C_14  and  C_15 
REMARK   10  A    between atoms: C_18  and  O_19 
REMARK   11  A    between atoms: O_19  and  C_20 
REMARK   12  A    between atoms: C_20  and  C_21 
REMARK   13  A    between atoms: C_31  and  C_32 
REMARK   14  A    between atoms: C_35  and  O_36 
ROOT
HETATM    1  N   UNL     1      40.590  -9.816   6.440  1.00  0.00    -0.333 N 
HETATM    2  C   UNL     1      39.267  -9.437   6.316  1.00  0.00     0.278 C 
HETATM    3  O   UNL     1      38.575  -8.825   7.108  1.00  0.00    -0.265 OA
HETATM    4  C   UNL     1      38.824  -9.818   4.956  1.00  0.00     0.146 C 
HETATM    5  C   UNL     1      39.855 -10.432   4.365  1.00  0.00     0.059 C 
HETATM    6  C   UNL     1      40.976 -10.687   5.336  1.00  0.00     0.161 C 
ENDROOT
BRANCH   5   7
HETATM    7  C   UNL     1      40.078 -10.814   2.953  1.00  0.00     0.193 C 
HETATM    8  O   UNL     1      39.739 -10.032   2.065  1.00  0.00    -0.287 OA
BRANCH   7   9
HETATM    9  C   UNL     1      40.555 -12.161   2.554  1.00  0.00     0.015 A 
HETATM   10  C   UNL     1      41.895 -12.430   2.254  1.00  0.00     0.018 A 
HETATM   11  C   UNL     1      42.315 -13.737   1.978  1.00  0.00     0.038 A 
HETATM   12  C   UNL     1      41.411 -14.796   2.048  1.00  0.00     0.069 A 
HETATM   13  C   UNL     1      40.078 -14.532   2.371  1.00  0.00     0.038 A 
HETATM   14  C   UNL     1      39.650 -13.225   2.624  1.00  0.00     0.018 A 
BRANCH  12  15
HETATM   15  O   UNL     1      41.703 -16.118   1.857  1.00  0.00    -0.347 OA
BRANCH  15  16
HETATM   16  C   UNL     1      43.077 -16.469   1.695  1.00  0.00     0.214 C 
BRANCH  16  17
HETATM   17  C   UNL     1      43.431 -17.576   2.658  1.00  0.00    -0.034 A 
HETATM   18  C   UNL     1      43.638 -17.310   4.017  1.00  0.00     0.010 A 
HETATM   19  C   UNL     1      43.900 -18.351   4.912  1.00  0.00     0.007 A 
HETATM   20  C   UNL     1      43.963 -19.674   4.464  1.00  0.00    -0.062 A 
HETATM   21  C   UNL     1      44.210 -20.802   5.422  1.00  0.00     0.048 C 
HETATM   22  C   UNL     1      43.755 -19.943   3.107  1.00  0.00     0.007 A 
HETATM   23  C   UNL     1      43.494 -18.903   2.212  1.00  0.00     0.010 A 
ENDBRANCH  16  17
ENDBRANCH  15  16
ENDBRANCH  12  15
ENDBRANCH   7   9
ENDBRANCH   5   7
BRANCH   4  24
HETATM   24  O   UNL     1      37.613  -9.461   4.451  1.00  0.00    -0.355 OA
HETATM   25  H   UNL     1      37.330  -8.665   4.949  1.00  0.00     0.218 HD
ENDBRANCH   4  24
BRANCH   6  26
HETATM   26  C   UNL     1      41.150 -12.139   5.754  1.00  0.00    -0.030 A 
HETATM   27  C   UNL     1      42.444 -12.684   5.833  1.00  0.00     0.012 A 
HETATM   28  C   UNL     1      42.645 -14.011   6.221  1.00  0.00     0.037 A 
HETATM   29  C   UNL     1      41.547 -14.805   6.530  1.00  0.00     0.065 A 
HETATM   30  C   UNL     1      40.259 -14.296   6.447  1.00  0.00     0.037 A 
HETATM   31  C   UNL     1      40.057 -12.971   6.052  1.00  0.00     0.012 A 
BRANCH  29  32
HETATM   32  O   UNL     1      41.692 -16.103   6.914  1.00  0.00    -0.361 OA
HETATM   33  H   UNL     1      42.503 -16.191   7.441  1.00  0.00     0.217 HD
ENDBRANCH  29  32
ENDBRANCH   6  26
BRANCH   1  34
HETATM   34  C   UNL     1      41.326  -9.686   7.690  1.00  0.00     0.129 C 
BRANCH  34  35
HETATM   35  C   UNL     1      42.702  -9.032   7.551  1.00  0.00     0.048 C 
BRANCH  35  36
HETATM   36  C   UNL     1      43.824  -9.955   8.018  1.00  0.00     0.236 C 
BRANCH  36  37
HETATM   37  N   UNL     1      44.940  -9.203   8.735  1.00  0.00    -0.072 N 
HETATM   38  H   UNL     1      44.731  -8.203   8.611  1.00  0.00     0.279 HD
BRANCH  37  39
HETATM   39  C   UNL     1      46.301  -9.428   8.086  1.00  0.00     0.230 C 
HETATM   40  C   UNL     1      46.332 -10.732   7.311  1.00  0.00     0.034 C 
ENDBRANCH  37  39
BRANCH  37  41
HETATM   41  C   UNL     1      45.012  -9.394  10.244  1.00  0.00     0.230 C 
HETATM   42  C   UNL     1      44.028 -10.431  10.753  1.00  0.00     0.034 C 
ENDBRANCH  37  41
ENDBRANCH  36  37
ENDBRANCH  35  36
ENDBRANCH  34  35
ENDBRANCH   1  34
TORSDOF 14
ENDMDL
MODEL 3
REMARK VINA RESULT:      -8.1      4.881      8.209
REMARK  14 active torsions:
REMARK  status: ('A' for Active; 'I' for Inactive)
REMARK    1  A    between atoms: C_2  and  N_3 
REMARK    2  A    between atoms: N_3  and  C_5 
REMARK    3  A    between atoms: N_3  and  C_39 
REMARK    4  A    between atoms: C_5  and  C_6 
REMARK    5  A    between atoms: C_6  and  C_7 
REMARK    6  A    between atoms: C_7  and  N_8 
REMARK    7  A    between atoms: C_11  and  O_12 
REMARK    8  A    between atoms: C_13  and  C_14 
REMARK    9  A    between atoms: C_14  and  C_15 
REMARK   10  A    between atoms: C_18  and  O_19 
REMARK   11  A    between atoms: O_19  and  C_20 
REMARK   12  A    between atoms: C_20  and  C_21 
REMARK   13  A    between atoms: C_31  and  C_32 
REMARK   14  A    between atoms: C_35  and  O_36 
ROOT
HETATM    1  N   UNL     1      42.143  -8.473   9.082  1.00  0.00    -0.333 N 
HETATM    2  C   UNL     1      43.284  -7.696   9.024  1.00  0.00     0.278 C 
HETATM    3  O   UNL     1      43.468  -6.582   9.478  1.00  0.00    -0.265 OA
HETATM    4  C   UNL     1      44.340  -8.508   8.381  1.00  0.00     0.146 C 
HETATM    5  C   UNL     1      43.787  -9.680   8.049  1.00  0.00     0.059 C 
HETATM    6  C   UNL     1      42.297  -9.665   8.255  1.00  0.00     0.161 C 
ENDROOT
BRANCH   5   7
HETATM    7  C   UNL     1      44.399 -10.952   7.603  1.00  0.00     0.193 C 
HETATM    8  O   UNL     1      45.526 -11.242   8.003  1.00  0.00    -0.287 OA
BRANCH   7   9
HETATM    9  C   UNL     1      43.776 -11.822   6.575  1.00  0.00     0.015 A 
HETATM   10  C   UNL     1      43.819 -11.527   5.208  1.00  0.00     0.018 A 
HETATM   11  C   UNL     1      43.302 -12.427   4.268  1.00  0.00     0.038 A 
HETATM   12  C   UNL     1      42.782 -13.653   4.680  1.00  0.00     0.069 A 
HETATM   13  C   UNL     1      42.759 -13.959   6.043  1.00  0.00     0.038 A 
HETATM   14  C   UNL     1      43.253 -13.053   6.987  1.00  0.00     0.018 A 
BRANCH  12  15
HETATM   15  O   UNL     1      42.299 -14.638   3.864  1.00  0.00    -0.347 OA
BRANCH  15  16
HETATM   16  C   UNL     1      43.206 -15.212   2.923  1.00  0.00     0.214 C 
BRANCH  16  17
HETATM   17  C   UNL     1      43.345 -16.690   3.195  1.00  0.00    -0.034 A 
HETATM   18  C   UNL     1      43.116 -17.634   2.186  1.00  0.00     0.010 A 
HETATM   19  C   UNL     1      43.311 -18.996   2.431  1.00  0.00     0.007 A 
HETATM   20  C   UNL     1      43.735 -19.439   3.689  1.00  0.00    -0.062 A 
HETATM   21  C   UNL     1      43.980 -20.895   3.952  1.00  0.00     0.048 C 
HETATM   22  C   UNL     1      43.965 -18.498   4.698  1.00  0.00     0.007 A 
HETATM   23  C   UNL     1      43.769 -17.137   4.455  1.00  0.00     0.010 A 
ENDBRANCH  16  17
ENDBRANCH  15  16
ENDBRANCH  12  15
ENDBRANCH   7   9
ENDBRANCH   5   7
BRANCH   4  24
HETATM   24  O   UNL     1      45.634  -8.097   8.294  1.00  0.00    -0.355 OA
HETATM   25  H   UNL     1      46.030  -8.247   9.178  1.00  0.00     0.218 HD
ENDBRANCH   4  24
BRANCH   6  26
HETATM   26  C   UNL     1      41.470  -9.617   6.980  1.00  0.00    -0.030 A 
HETATM   27  C   UNL     1      41.735  -8.621   6.022  1.00  0.00     0.012 A 
HETATM   28  C   UNL     1      41.002  -8.551   4.834  1.00  0.00     0.037 A 
HETATM   29  C   UNL     1      39.995  -9.477   4.598  1.00  0.00     0.065 A 
HETATM   30  C   UNL     1      39.703 -10.461   5.533  1.00  0.00     0.037 A 
HETATM   31  C   UNL     1      40.431 -10.528   6.723  1.00  0.00     0.012 A 
BRANCH  29  32
HETATM   32  O   UNL     1      39.254  -9.449   3.456  1.00  0.00    -0.361 OA
HETATM   33  H   UNL     1      39.850  -9.457   2.690  1.00  0.00     0.217 HD
ENDBRANCH  29  32
ENDBRANCH   6  26
BRANCH   1  34
HETATM   34  C   UNL     1      40.871  -7.957   9.565  1.00  0.00     0.129 C 
BRANCH  34  35
HETATM   35  C   UNL     1      40.301  -8.702  10.774  1.00  0.00     0.048 C 
BRANCH  35  36
HETATM   36  C   UNL     1      40.762  -8.088  12.094  1.00  0.00     0.236 C 
BRANCH  36  37
HETATM   37  N   UNL     1      41.891  -8.880  12.744  1.00  0.00    -0.072 N 
HETATM   38  H   UNL     1      41.608  -9.025  13.722  1.00  0.00     0.279 HD
BRANCH  37  39
HETATM   39  C   UNL     1      43.195  -8.091  12.799  1.00  0.00     0.230 C 
HETATM   40  C   UNL     1      43.219  -7.152  13.991  1.00  0.00     0.034 C 
ENDBRANCH  37  39
BRANCH  37  41
HETATM   41  C   UNL     1      42.121 -10.284  12.201  1.00  0.00     0.230 C 
HETATM   42  C   UNL     1      43.554 -10.516  11.759  1.00  0.00     0.034 C 
ENDBRANCH  37  41
ENDBRANCH  36  37
ENDBRANCH  35  36
ENDBRANCH  34  35
ENDBRANCH   1  34
TORSDOF 14
ENDMDL
MODEL 4
REMARK VINA RESULT:      -7.9      4.392      7.555
REMARK  14 active torsions:
REMARK  status: ('A' for Active; 'I' for Inactive)
REMARK    1  A    between atoms: C_2  and  N_3 
REMARK    2  A    between atoms: N_3  and  C_5 
REMARK    3  A    between atoms: N_3  and  C_39 
REMARK    4  A    between atoms: C_5  and  C_6 
REMARK    5  A    between atoms: C_6  and  C_7 
REMARK    6  A    between atoms: C_7  and  N_8 
REMARK    7  A    between atoms: C_11  and  O_12 
REMARK    8  A    between atoms: C_13  and  C_14 
REMARK    9  A    between atoms: C_14  and  C_15 
REMARK   10  A    between atoms: C_18  and  O_19 
REMARK   11  A    between atoms: O_19  and  C_20 
REMARK   12  A    between atoms: C_20  and  C_21 
REMARK   13  A    between atoms: C_31  and  C_32 
REMARK   14  A    between atoms: C_35  and  O_36 
ROOT
HETATM    1  N   UNL     1      41.065 -14.096   3.086  1.00  0.00    -0.333 N 
HETATM    2  C   UNL     1      41.605 -14.958   4.021  1.00  0.00     0.278 C 
HETATM    3  O   UNL     1      41.349 -16.132   4.210  1.00  0.00    -0.265 OA
HETATM    4  C   UNL     1      42.676 -14.224   4.731  1.00  0.00     0.146 C 
HETATM    5  C   UNL     1      42.694 -12.981   4.237  1.00  0.00     0.059 C 
HETATM    6  C   UNL     1      41.526 -12.733   3.323  1.00  0.00     0.161 C 
ENDROOT
BRANCH   5   7
HETATM    7  C   UNL     1      43.683 -11.889   4.388  1.00  0.00     0.193 C 
HETATM    8  O   UNL     1      44.351 -11.552   3.411  1.00  0.00    -0.287 OA
BRANCH   7   9
HETATM    9  C   UNL     1      44.012 -11.285   5.703  1.00  0.00     0.015 A 
HETATM   10  C   UNL     1      45.305 -11.291   6.235  1.00  0.00     0.018 A 
HETATM   11  C   UNL     1      45.586 -10.622   7.433  1.00  0.00     0.038 A 
HETATM   12  C   UNL     1      44.589  -9.899   8.086  1.00  0.00     0.069 A 
HETATM   13  C   UNL     1      43.302  -9.873   7.543  1.00  0.00     0.038 A 
HETATM   14  C   UNL     1      43.012 -10.558   6.359  1.00  0.00     0.018 A 
BRANCH  12  15
HETATM   15  O   UNL     1      44.744  -9.161   9.227  1.00  0.00    -0.347 OA
BRANCH  15  16
HETATM   16  C   UNL     1      45.038  -9.869  10.430  1.00  0.00     0.214 C 
BRANCH  16  17
HETATM   17  C   UNL     1      43.989  -9.553  11.468  1.00  0.00    -0.034 A 
HETATM   18  C   UNL     1      43.133 -10.549  11.955  1.00  0.00     0.010 A 
HETATM   19  C   UNL     1      42.210 -10.260  12.963  1.00  0.00     0.007 A 
HETATM   20  C   UNL     1      42.124  -8.972  13.501  1.00  0.00    -0.062 A 
HETATM   21  C   UNL     1      41.161  -8.660  14.607  1.00  0.00     0.048 C 
HETATM   22  C   UNL     1      42.979  -7.975  13.018  1.00  0.00     0.007 A 
HETATM   23  C   UNL     1      43.902  -8.263  12.010  1.00  0.00     0.010 A 
ENDBRANCH  16  17
ENDBRANCH  15  16
ENDBRANCH  12  15
ENDBRANCH   7   9
ENDBRANCH   5   7
BRANCH   4  24
HETATM   24  O   UNL     1      43.512 -14.822   5.623  1.00  0.00    -0.355 OA
HETATM   25  H   UNL     1      44.327 -14.278   5.643  1.00  0.00     0.218 HD
ENDBRANCH   4  24
BRANCH   6  26
HETATM   26  C   UNL     1      40.443 -11.828   3.891  1.00  0.00    -0.030 A 
HETATM   27  C   UNL     1      39.920 -10.793   3.095  1.00  0.00     0.012 A 
HETATM   28  C   UNL     1      38.919  -9.947   3.578  1.00  0.00     0.037 A 
HETATM   29  C   UNL     1      38.436 -10.129   4.868  1.00  0.00     0.065 A 
HETATM   30  C   UNL     1      38.944 -11.134   5.680  1.00  0.00     0.037 A 
HETATM   31  C   UNL     1      39.949 -11.976   5.199  1.00  0.00     0.012 A 
BRANCH  29  32
HETATM   32  O   UNL     1      37.461  -9.331   5.383  1.00  0.00    -0.361 OA
HETATM   33  H   UNL     1      36.790  -9.886   5.815  1.00  0.00     0.217 HD
ENDBRANCH  29  32
ENDBRANCH   6  26
BRANCH   1  34
HETATM   34  C   UNL     1      39.913 -14.453   2.270  1.00  0.00     0.129 C 
BRANCH  34  35
HETATM   35  C   UNL     1      40.244 -14.771   0.810  1.00  0.00     0.048 C 
BRANCH  35  36
HETATM   36  C   UNL     1      39.664 -13.734  -0.148  1.00  0.00     0.236 C 
BRANCH  36  37
HETATM   37  N   UNL     1      40.576 -13.467  -1.341  1.00  0.00    -0.072 N 
HETATM   38  H   UNL     1      41.417 -14.038  -1.186  1.00  0.00     0.279 HD
BRANCH  37  39
HETATM   39  C   UNL     1      41.057 -12.020  -1.390  1.00  0.00     0.230 C 
HETATM   40  C   UNL     1      40.109 -11.100  -0.642  1.00  0.00     0.034 C 
ENDBRANCH  37  39
BRANCH  37  41
HETATM   41  C   UNL     1      40.051 -13.918  -2.697  1.00  0.00     0.230 C 
HETATM   42  C   UNL     1      38.886 -14.883  -2.585  1.00  0.00     0.034 C 
ENDBRANCH  37  41
ENDBRANCH  36  37
ENDBRANCH  35  36
ENDBRANCH  34  35
ENDBRANCH   1  34
TORSDOF 14
ENDMDL
MODEL 5
REMARK VINA RESULT:      -7.9      4.209      8.307
REMARK  14 active torsions:
REMARK  status: ('A' for Active; 'I' for Inactive)
REMARK    1  A    between atoms: C_2  and  N_3 
REMARK    2  A    between atoms: N_3  and  C_5 
REMARK    3  A    between atoms: N_3  and  C_39 
REMARK    4  A    between atoms: C_5  and  C_6 
REMARK    5  A    between atoms: C_6  and  C_7 
REMARK    6  A    between atoms: C_7  and  N_8 
REMARK    7  A    between atoms: C_11  and  O_12 
REMARK    8  A    between atoms: C_13  and  C_14 
REMARK    9  A    between atoms: C_14  and  C_15 
REMARK   10  A    between atoms: C_18  and  O_19 
REMARK   11  A    between atoms: O_19  and  C_20 
REMARK   12  A    between atoms: C_20  and  C_21 
REMARK   13  A    between atoms: C_31  and  C_32 
REMARK   14  A    between atoms: C_35  and  O_36 
ROOT
HETATM    1  N   UNL     1      40.877 -14.872   4.037  1.00  0.00    -0.333 N 
HETATM    2  C   UNL     1      40.520 -14.956   2.704  1.00  0.00     0.278 C 
HETATM    3  O   UNL     1      40.616 -15.906   1.951  1.00  0.00    -0.265 OA
HETATM    4  C   UNL     1      39.873 -13.676   2.338  1.00  0.00     0.146 C 
HETATM    5  C   UNL     1      39.915 -12.891   3.421  1.00  0.00     0.059 C 
HETATM    6  C   UNL     1      40.759 -13.497   4.509  1.00  0.00     0.161 C 
ENDROOT
BRANCH   5   7
HETATM    7  C   UNL     1      39.230 -11.614   3.723  1.00  0.00     0.193 C 
HETATM    8  O   UNL     1      38.493 -11.120   2.870  1.00  0.00    -0.287 OA
BRANCH   7   9
HETATM    9  C   UNL     1      39.508 -10.828   4.949  1.00  0.00     0.015 A 
HETATM   10  C   UNL     1      38.976 -11.164   6.199  1.00  0.00     0.018 A 
HETATM   11  C   UNL     1      39.345 -10.449   7.346  1.00  0.00     0.038 A 
HETATM   12  C   UNL     1      40.287  -9.424   7.264  1.00  0.00     0.069 A 
HETATM   13  C   UNL     1      40.836  -9.103   6.020  1.00  0.00     0.038 A 
HETATM   14  C   UNL     1      40.453  -9.799   4.869  1.00  0.00     0.018 A 
BRANCH  12  15
HETATM   15  O   UNL     1      40.771  -8.691   8.311  1.00  0.00    -0.347 OA
BRANCH  15  16
HETATM   16  C   UNL     1      42.095  -8.981   8.757  1.00  0.00     0.214 C 
BRANCH  16  17
HETATM   17  C   UNL     1      42.130  -8.977  10.266  1.00  0.00    -0.034 A 
HETATM   18  C   UNL     1      43.283  -8.592  10.960  1.00  0.00     0.010 A 
HETATM   19  C   UNL     1      43.284  -8.529  12.356  1.00  0.00     0.007 A 
HETATM   20  C   UNL     1      42.133  -8.851  13.083  1.00  0.00    -0.062 A 
HETATM   21  C   UNL     1      42.112  -8.754  14.579  1.00  0.00     0.048 C 
HETATM   22  C   UNL     1      40.978  -9.235  12.392  1.00  0.00     0.007 A 
HETATM   23  C   UNL     1      40.977  -9.299  10.997  1.00  0.00     0.010 A 
ENDBRANCH  16  17
ENDBRANCH  15  16
ENDBRANCH  12  15
ENDBRANCH   7   9
ENDBRANCH   5   7
BRANCH   4  24
HETATM   24  O   UNL     1      39.273 -13.473   1.135  1.00  0.00    -0.355 OA
HETATM   25  H   UNL     1      38.674 -14.237   0.994  1.00  0.00     0.218 HD
ENDBRANCH   4  24
BRANCH   6  26
HETATM   26  C   UNL     1      42.104 -12.825   4.732  1.00  0.00    -0.030 A 
HETATM   27  C   UNL     1      42.587 -12.664   6.043  1.00  0.00     0.012 A 
HETATM   28  C   UNL     1      43.823 -12.059   6.287  1.00  0.00     0.037 A 
HETATM   29  C   UNL     1      44.584 -11.607   5.217  1.00  0.00     0.065 A 
HETATM   30  C   UNL     1      44.126 -11.741   3.914  1.00  0.00     0.037 A 
HETATM   31  C   UNL     1      42.887 -12.340   3.670  1.00  0.00     0.012 A 
BRANCH  29  32
HETATM   32  O   UNL     1      45.795 -11.012   5.404  1.00  0.00    -0.361 OA
HETATM   33  H   UNL     1      45.811 -10.167   4.924  1.00  0.00     0.217 HD
ENDBRANCH  29  32
ENDBRANCH   6  26
BRANCH   1  34
HETATM   34  C   UNL     1      41.631 -15.919   4.710  1.00  0.00     0.129 C 
BRANCH  34  35
HETATM   35  C   UNL     1      42.975 -16.252   4.060  1.00  0.00     0.048 C 
BRANCH  35  36
HETATM   36  C   UNL     1      43.713 -17.360   4.806  1.00  0.00     0.236 C 
BRANCH  36  37
HETATM   37  N   UNL     1      44.197 -18.468   3.877  1.00  0.00    -0.072 N 
HETATM   38  H   UNL     1      45.154 -18.209   3.603  1.00  0.00     0.279 HD
BRANCH  37  39
HETATM   39  C   UNL     1      43.394 -18.529   2.582  1.00  0.00     0.230 C 
HETATM   40  C   UNL     1      43.262 -19.957   2.083  1.00  0.00     0.034 C 
ENDBRANCH  37  39
BRANCH  37  41
HETATM   41  C   UNL     1      44.338 -19.849   4.501  1.00  0.00     0.230 C 
HETATM   42  C   UNL     1      43.710 -19.939   5.879  1.00  0.00     0.034 C 
ENDBRANCH  37  41
ENDBRANCH  36  37
ENDBRANCH  35  36
ENDBRANCH  34  35
ENDBRANCH   1  34
TORSDOF 14
ENDMDL
MODEL 6
REMARK VINA RESULT:      -7.9      3.585      7.937
REMARK  14 active torsions:
REMARK  status: ('A' for Active; 'I' for Inactive)
REMARK    1  A    between atoms: C_2  and  N_3 
REMARK    2  A    between atoms: N_3  and  C_5 
REMARK    3  A    between atoms: N_3  and  C_39 
REMARK    4  A    between atoms: C_5  and  C_6 
REMARK    5  A    between atoms: C_6  and  C_7 
REMARK    6  A    between atoms: C_7  and  N_8 
REMARK    7  A    between atoms: C_11  and  O_12 
REMARK    8  A    between atoms: C_13  and  C_14 
REMARK    9  A    between atoms: C_14  and  C_15 
REMARK   10  A    between atoms: C_18  and  O_19 
REMARK   11  A    between atoms: O_19  and  C_20 
REMARK   12  A    between atoms: C_20  and  C_21 
REMARK   13  A    between atoms: C_31  and  C_32 
REMARK   14  A    between atoms: C_35  and  O_36 
ROOT
HETATM    1  N   UNL     1      41.143 -15.242   4.061  1.00  0.00    -0.333 N 
HETATM    2  C   UNL     1      40.871 -15.422   2.717  1.00  0.00     0.278 C 
HETATM    3  O   UNL     1      41.093 -16.396   2.022  1.00  0.00    -0.265 OA
HETATM    4  C   UNL     1      40.138 -14.225   2.250  1.00  0.00     0.146 C 
HETATM    5  C   UNL     1      40.049 -13.389   3.291  1.00  0.00     0.059 C 
HETATM    6  C   UNL     1      40.879 -13.862   4.452  1.00  0.00     0.161 C 
ENDROOT
BRANCH   5   7
HETATM    7  C   UNL     1      39.239 -12.165   3.486  1.00  0.00     0.193 C 
HETATM    8  O   UNL     1      38.445 -11.831   2.608  1.00  0.00    -0.287 OA
BRANCH   7   9
HETATM    9  C   UNL     1      39.449 -11.241   4.628  1.00  0.00     0.015 A 
HETATM   10  C   UNL     1      40.033  -9.979   4.481  1.00  0.00     0.018 A 
HETATM   11  C   UNL     1      40.122  -9.103   5.570  1.00  0.00     0.038 A 
HETATM   12  C   UNL     1      39.583  -9.460   6.806  1.00  0.00     0.069 A 
HETATM   13  C   UNL     1      38.979 -10.711   6.948  1.00  0.00     0.038 A 
HETATM   14  C   UNL     1      38.909 -11.598   5.869  1.00  0.00     0.018 A 
BRANCH  12  15
HETATM   15  O   UNL     1      39.554  -8.679   7.927  1.00  0.00    -0.347 OA
BRANCH  15  16
HETATM   16  C   UNL     1      40.586  -7.704   8.074  1.00  0.00     0.214 C 
BRANCH  16  17
HETATM   17  C   UNL     1      41.830  -8.366   8.616  1.00  0.00    -0.034 A 
HETATM   18  C   UNL     1      42.995  -8.453   7.845  1.00  0.00     0.010 A 
HETATM   19  C   UNL     1      44.160  -9.008   8.380  1.00  0.00     0.007 A 
HETATM   20  C   UNL     1      44.181  -9.489   9.694  1.00  0.00    -0.062 A 
HETATM   21  C   UNL     1      45.435 -10.056  10.288  1.00  0.00     0.048 C 
HETATM   22  C   UNL     1      43.018  -9.402  10.467  1.00  0.00     0.007 A 
HETATM   23  C   UNL     1      41.853  -8.848   9.933  1.00  0.00     0.010 A 
ENDBRANCH  16  17
ENDBRANCH  15  16
ENDBRANCH  12  15
ENDBRANCH   7   9
ENDBRANCH   5   7
BRANCH   4  24
HETATM   24  O   UNL     1      39.592 -14.136   1.008  1.00  0.00    -0.355 OA
HETATM   25  H   UNL     1      40.051 -14.805   0.457  1.00  0.00     0.218 HD
ENDBRANCH   4  24
BRANCH   6  26
HETATM   26  C   UNL     1      42.146 -13.062   4.709  1.00  0.00    -0.030 A 
HETATM   27  C   UNL     1      42.564 -12.837   6.034  1.00  0.00     0.012 A 
HETATM   28  C   UNL     1      43.727 -12.114   6.309  1.00  0.00     0.037 A 
HETATM   29  C   UNL     1      44.480 -11.607   5.258  1.00  0.00     0.065 A 
HETATM   30  C   UNL     1      44.083 -11.802   3.942  1.00  0.00     0.037 A 
HETATM   31  C   UNL     1      42.916 -12.519   3.666  1.00  0.00     0.012 A 
BRANCH  29  32
HETATM   32  O   UNL     1      45.621 -10.896   5.476  1.00  0.00    -0.361 OA
HETATM   33  H   UNL     1      46.304 -11.491   5.829  1.00  0.00     0.217 HD
ENDBRANCH  29  32
ENDBRANCH   6  26
BRANCH   1  34
HETATM   34  C   UNL     1      41.945 -16.183   4.828  1.00  0.00     0.129 C 
BRANCH  34  35
HETATM   35  C   UNL     1      43.341 -16.441   4.257  1.00  0.00     0.048 C 
BRANCH  35  36
HETATM   36  C   UNL     1      44.073 -17.549   5.011  1.00  0.00     0.236 C 
BRANCH  36  37
HETATM   37  N   UNL     1      44.453 -18.717   4.107  1.00  0.00    -0.072 N 
HETATM   38  H   UNL     1      45.453 -18.598   3.897  1.00  0.00     0.279 HD
BRANCH  37  39
HETATM   39  C   UNL     1      43.735 -18.666   2.762  1.00  0.00     0.230 C 
HETATM   40  C   UNL     1      43.461 -20.062   2.233  1.00  0.00     0.034 C 
ENDBRANCH  37  39
BRANCH  37  41
HETATM   41  C   UNL     1      44.355 -20.102   4.730  1.00  0.00     0.230 C 
HETATM   42  C   UNL     1      43.579 -20.108   6.034  1.00  0.00     0.034 C 
ENDBRANCH  37  41
ENDBRANCH  36  37
ENDBRANCH  35  36
ENDBRANCH  34  35
ENDBRANCH   1  34
TORSDOF 14
ENDMDL
MODEL 7
REMARK VINA RESULT:      -7.8      3.121      4.521
REMARK  14 active torsions:
REMARK  status: ('A' for Active; 'I' for Inactive)
REMARK    1  A    between atoms: C_2  and  N_3 
REMARK    2  A    between atoms: N_3  and  C_5 
REMARK    3  A    between atoms: N_3  and  C_39 
REMARK    4  A    between atoms: C_5  and  C_6 
REMARK    5  A    between atoms: C_6  and  C_7 
REMARK    6  A    between atoms: C_7  and  N_8 
REMARK    7  A    between atoms: C_11  and  O_12 
REMARK    8  A    between atoms: C_13  and  C_14 
REMARK    9  A    between atoms: C_14  and  C_15 
REMARK   10  A    between atoms: C_18  and  O_19 
REMARK   11  A    between atoms: O_19  and  C_20 
REMARK   12  A    between atoms: C_20  and  C_21 
REMARK   13  A    between atoms: C_31  and  C_32 
REMARK   14  A    between atoms: C_35  and  O_36 
ROOT
HETATM    1  N   UNL     1      40.259  -9.881  -1.079  1.00  0.00    -0.333 N 
HETATM    2  C   UNL     1      41.509  -9.826  -0.491  1.00  0.00     0.278 C 
HETATM    3  O   UNL     1      42.522  -9.297  -0.909  1.00  0.00    -0.265 OA
HETATM    4  C   UNL     1      41.397 -10.453   0.844  1.00  0.00     0.146 C 
HETATM    5  C   UNL     1      40.137 -10.885   0.971  1.00  0.00     0.059 C 
HETATM    6  C   UNL     1      39.380 -10.766  -0.324  1.00  0.00     0.161 C 
ENDROOT
BRANCH   5   7
HETATM    7  C   UNL     1      39.390 -11.370   2.154  1.00  0.00     0.193 C 
HETATM    8  O   UNL     1      38.425 -10.720   2.555  1.00  0.00    -0.287 OA
BRANCH   7   9
HETATM    9  C   UNL     1      39.844 -12.524   2.967  1.00  0.00     0.015 A 
HETATM   10  C   UNL     1      39.678 -13.851   2.555  1.00  0.00     0.018 A 
HETATM   11  C   UNL     1      40.210 -14.903   3.311  1.00  0.00     0.038 A 
HETATM   12  C   UNL     1      40.955 -14.639   4.459  1.00  0.00     0.069 A 
HETATM   13  C   UNL     1      41.141 -13.314   4.859  1.00  0.00     0.038 A 
HETATM   14  C   UNL     1      40.592 -12.261   4.120  1.00  0.00     0.018 A 
BRANCH  12  15
HETATM   15  O   UNL     1      41.572 -15.568   5.250  1.00  0.00    -0.347 OA
BRANCH  15  16
HETATM   16  C   UNL     1      42.983 -15.721   5.104  1.00  0.00     0.214 C 
BRANCH  16  17
HETATM   17  C   UNL     1      43.273 -16.955   4.284  1.00  0.00    -0.034 A 
HETATM   18  C   UNL     1      43.808 -18.105   4.877  1.00  0.00     0.010 A 
HETATM   19  C   UNL     1      44.011 -19.264   4.122  1.00  0.00     0.007 A 
HETATM   20  C   UNL     1      43.685 -19.292   2.762  1.00  0.00    -0.062 A 
HETATM   21  C   UNL     1      43.867 -20.540   1.951  1.00  0.00     0.048 C 
HETATM   22  C   UNL     1      43.149 -18.145   2.168  1.00  0.00     0.007 A 
HETATM   23  C   UNL     1      42.947 -16.986   2.921  1.00  0.00     0.010 A 
ENDBRANCH  16  17
ENDBRANCH  15  16
ENDBRANCH  12  15
ENDBRANCH   7   9
ENDBRANCH   5   7
BRANCH   4  24
HETATM   24  O   UNL     1      42.412 -10.441   1.750  1.00  0.00    -0.355 OA
HETATM   25  H   UNL     1      42.132  -9.833   2.467  1.00  0.00     0.218 HD
ENDBRANCH   4  24
BRANCH   6  26
HETATM   26  C   UNL     1      39.105 -12.082  -1.034  1.00  0.00    -0.030 A 
HETATM   27  C   UNL     1      37.887 -12.258  -1.715  1.00  0.00     0.012 A 
HETATM   28  C   UNL     1      37.602 -13.449  -2.386  1.00  0.00     0.037 A 
HETATM   29  C   UNL     1      38.535 -14.477  -2.377  1.00  0.00     0.065 A 
HETATM   30  C   UNL     1      39.740 -14.336  -1.702  1.00  0.00     0.037 A 
HETATM   31  C   UNL     1      40.023 -13.147  -1.025  1.00  0.00     0.012 A 
BRANCH  29  32
HETATM   32  O   UNL     1      38.304 -15.657  -3.018  1.00  0.00    -0.361 OA
HETATM   33  H   UNL     1      38.861 -16.348  -2.623  1.00  0.00     0.217 HD
ENDBRANCH  29  32
ENDBRANCH   6  26
BRANCH   1  34
HETATM   34  C   UNL     1      40.020  -9.443  -2.446  1.00  0.00     0.129 C 
BRANCH  34  35
HETATM   35  C   UNL     1      39.327  -8.084  -2.566  1.00  0.00     0.048 C 
BRANCH  35  36
HETATM   36  C   UNL     1      40.213  -6.944  -2.070  1.00  0.00     0.236 C 
BRANCH  36  37
HETATM   37  N   UNL     1      41.531  -6.855  -2.832  1.00  0.00    -0.072 N 
HETATM   38  H   UNL     1      42.031  -7.731  -2.634  1.00  0.00     0.279 HD
BRANCH  37  39
HETATM   39  C   UNL     1      42.426  -5.736  -2.312  1.00  0.00     0.230 C 
HETATM   40  C   UNL     1      43.778  -6.271  -1.874  1.00  0.00     0.034 C 
ENDBRANCH  37  39
BRANCH  37  41
HETATM   41  C   UNL     1      41.423  -6.811  -4.350  1.00  0.00     0.230 C 
HETATM   42  C   UNL     1      41.823  -5.467  -4.930  1.00  0.00     0.034 C 
ENDBRANCH  37  41
ENDBRANCH  36  37
ENDBRANCH  35  36
ENDBRANCH  34  35
ENDBRANCH   1  34
TORSDOF 14
ENDMDL
MODEL 8
REMARK VINA RESULT:      -7.7      3.487      7.118
REMARK  14 active torsions:
REMARK  status: ('A' for Active; 'I' for Inactive)
REMARK    1  A    between atoms: C_2  and  N_3 
REMARK    2  A    between atoms: N_3  and  C_5 
REMARK    3  A    between atoms: N_3  and  C_39 
REMARK    4  A    between atoms: C_5  and  C_6 
REMARK    5  A    between atoms: C_6  and  C_7 
REMARK    6  A    between atoms: C_7  and  N_8 
REMARK    7  A    between atoms: C_11  and  O_12 
REMARK    8  A    between atoms: C_13  and  C_14 
REMARK    9  A    between atoms: C_14  and  C_15 
REMARK   10  A    between atoms: C_18  and  O_19 
REMARK   11  A    between atoms: O_19  and  C_20 
REMARK   12  A    between atoms: C_20  and  C_21 
REMARK   13  A    between atoms: C_31  and  C_32 
REMARK   14  A    between atoms: C_35  and  O_36 
ROOT
HETATM    1  N   UNL     1      40.868  -9.138   7.011  1.00  0.00    -0.333 N 
HETATM    2  C   UNL     1      39.492  -9.239   6.934  1.00  0.00     0.278 C 
HETATM    3  O   UNL     1      38.666  -9.050   7.808  1.00  0.00    -0.265 OA
HETATM    4  C   UNL     1      39.148  -9.526   5.524  1.00  0.00     0.146 C 
HETATM    5  C   UNL     1      40.301  -9.630   4.852  1.00  0.00     0.059 C 
HETATM    6  C   UNL     1      41.483  -9.624   5.781  1.00  0.00     0.161 C 
ENDROOT
BRANCH   5   7
HETATM    7  C   UNL     1      40.578  -9.673   3.398  1.00  0.00     0.193 C 
HETATM    8  O   UNL     1      40.658  -8.614   2.777  1.00  0.00    -0.287 OA
BRANCH   7   9
HETATM    9  C   UNL     1      40.614 -10.941   2.629  1.00  0.00     0.015 A 
HETATM   10  C   UNL     1      41.810 -11.572   2.270  1.00  0.00     0.018 A 
HETATM   11  C   UNL     1      41.794 -12.818   1.629  1.00  0.00     0.038 A 
HETATM   12  C   UNL     1      40.585 -13.468   1.385  1.00  0.00     0.069 A 
HETATM   13  C   UNL     1      39.392 -12.849   1.763  1.00  0.00     0.038 A 
HETATM   14  C   UNL     1      39.402 -11.595   2.383  1.00  0.00     0.018 A 
BRANCH  12  15
HETATM   15  O   UNL     1      40.435 -14.704   0.820  1.00  0.00    -0.347 OA
BRANCH  15  16
HETATM   16  C   UNL     1      39.965 -15.756   1.662  1.00  0.00     0.214 C 
BRANCH  16  17
HETATM   17  C   UNL     1      41.087 -16.227   2.554  1.00  0.00    -0.034 A 
HETATM   18  C   UNL     1      40.954 -16.218   3.948  1.00  0.00     0.010 A 
HETATM   19  C   UNL     1      41.973 -16.717   4.762  1.00  0.00     0.007 A 
HETATM   20  C   UNL     1      43.145 -17.232   4.198  1.00  0.00    -0.062 A 
HETATM   21  C   UNL     1      44.231 -17.801   5.062  1.00  0.00     0.048 C 
HETATM   22  C   UNL     1      43.281 -17.244   2.806  1.00  0.00     0.007 A 
HETATM   23  C   UNL     1      42.263 -16.744   1.991  1.00  0.00     0.010 A 
ENDBRANCH  16  17
ENDBRANCH  15  16
ENDBRANCH  12  15
ENDBRANCH   7   9
ENDBRANCH   5   7
BRANCH   4  24
HETATM   24  O   UNL     1      37.866  -9.547   5.068  1.00  0.00    -0.355 OA
HETATM   25  H   UNL     1      37.326  -9.095   5.750  1.00  0.00     0.218 HD
ENDBRANCH   4  24
BRANCH   6  26
HETATM   26  C   UNL     1      42.177 -10.966   5.951  1.00  0.00    -0.030 A 
HETATM   27  C   UNL     1      43.580 -11.010   6.054  1.00  0.00     0.012 A 
HETATM   28  C   UNL     1      44.252 -12.224   6.220  1.00  0.00     0.037 A 
HETATM   29  C   UNL     1      43.524 -13.405   6.280  1.00  0.00     0.065 A 
HETATM   30  C   UNL     1      42.140 -13.391   6.168  1.00  0.00     0.037 A 
HETATM   31  C   UNL     1      41.468 -12.179   5.995  1.00  0.00     0.012 A 
BRANCH  29  32
HETATM   32  O   UNL     1      44.134 -14.612   6.441  1.00  0.00    -0.361 OA
HETATM   33  H   UNL     1      44.887 -14.671   5.831  1.00  0.00     0.217 HD
ENDBRANCH  29  32
ENDBRANCH   6  26
BRANCH   1  34
HETATM   34  C   UNL     1      41.568  -8.959   8.275  1.00  0.00     0.129 C 
BRANCH  34  35
HETATM   35  C   UNL     1      42.776  -8.024   8.205  1.00  0.00     0.048 C 
BRANCH  35  36
HETATM   36  C   UNL     1      43.700  -8.190   9.409  1.00  0.00     0.236 C 
BRANCH  36  37
HETATM   37  N   UNL     1      44.021  -9.652   9.700  1.00  0.00    -0.072 N 
HETATM   38  H   UNL     1      43.296 -10.202   9.221  1.00  0.00     0.279 HD
BRANCH  37  39
HETATM   39  C   UNL     1      43.890  -9.990  11.182  1.00  0.00     0.230 C 
HETATM   40  C   UNL     1      42.440  -9.942  11.630  1.00  0.00     0.034 C 
ENDBRANCH  37  39
BRANCH  37  41
HETATM   41  C   UNL     1      45.333 -10.174   9.132  1.00  0.00     0.230 C 
HETATM   42  C   UNL     1      46.053  -9.148   8.276  1.00  0.00     0.034 C 
ENDBRANCH  37  41
ENDBRANCH  36  37
ENDBRANCH  35  36
ENDBRANCH  34  35
ENDBRANCH   1  34
TORSDOF 14
ENDMDL
MODEL 9
REMARK VINA RESULT:      -7.6      1.819      3.147
REMARK  14 active torsions:
REMARK  status: ('A' for Active; 'I' for Inactive)
REMARK    1  A    between atoms: C_2  and  N_3 
REMARK    2  A    between atoms: N_3  and  C_5 
REMARK    3  A    between atoms: N_3  and  C_39 
REMARK    4  A    between atoms: C_5  and  C_6 
REMARK    5  A    between atoms: C_6  and  C_7 
REMARK    6  A    between atoms: C_7  and  N_8 
REMARK    7  A    between atoms: C_11  and  O_12 
REMARK    8  A    between atoms: C_13  and  C_14 
REMARK    9  A    between atoms: C_14  and  C_15 
REMARK   10  A    between atoms: C_18  and  O_19 
REMARK   11  A    between atoms: O_19  and  C_20 
REMARK   12  A    between atoms: C_20  and  C_21 
REMARK   13  A    between atoms: C_31  and  C_32 
REMARK   14  A    between atoms: C_35  and  O_36 
ROOT
HETATM    1  N   UNL     1      38.655 -11.175   2.385  1.00  0.00    -0.333 N 
HETATM    2  C   UNL     1      39.204  -9.994   2.846  1.00  0.00     0.278 C 
HETATM    3  O   UNL     1      39.216  -8.902   2.309  1.00  0.00    -0.265 OA
HETATM    4  C   UNL     1      39.712 -10.247   4.213  1.00  0.00     0.146 C 
HETATM    5  C   UNL     1      39.495 -11.540   4.479  1.00  0.00     0.059 C 
HETATM    6  C   UNL     1      39.022 -12.283   3.260  1.00  0.00     0.161 C 
ENDROOT
BRANCH   5   7
HETATM    7  C   UNL     1      39.576 -12.297   5.749  1.00  0.00     0.193 C 
HETATM    8  O   UNL     1      38.818 -11.995   6.670  1.00  0.00    -0.287 OA
BRANCH   7   9
HETATM    9  C   UNL     1      40.631 -13.305   6.013  1.00  0.00     0.015 A 
HETATM   10  C   UNL     1      40.342 -14.635   6.334  1.00  0.00     0.018 A 
HETATM   11  C   UNL     1      41.372 -15.574   6.479  1.00  0.00     0.038 A 
HETATM   12  C   UNL     1      42.697 -15.204   6.256  1.00  0.00     0.069 A 
HETATM   13  C   UNL     1      42.986 -13.881   5.913  1.00  0.00     0.038 A 
HETATM   14  C   UNL     1      41.962 -12.936   5.789  1.00  0.00     0.018 A 
BRANCH  12  15
HETATM   15  O   UNL     1      43.784 -16.032   6.310  1.00  0.00    -0.347 OA
BRANCH  15  16
HETATM   16  C   UNL     1      43.545 -17.409   6.593  1.00  0.00     0.214 C 
BRANCH  16  17
HETATM   17  C   UNL     1      43.667 -18.213   5.322  1.00  0.00    -0.034 A 
HETATM   18  C   UNL     1      43.959 -19.582   5.359  1.00  0.00     0.010 A 
HETATM   19  C   UNL     1      44.004 -20.331   4.180  1.00  0.00     0.007 A 
HETATM   20  C   UNL     1      43.761 -19.724   2.943  1.00  0.00    -0.062 A 
HETATM   21  C   UNL     1      43.773 -20.525   1.675  1.00  0.00     0.048 C 
HETATM   22  C   UNL     1      43.468 -18.357   2.903  1.00  0.00     0.007 A 
HETATM   23  C   UNL     1      43.423 -17.608   4.081  1.00  0.00     0.010 A 
ENDBRANCH  16  17
ENDBRANCH  15  16
ENDBRANCH  12  15
ENDBRANCH   7   9
ENDBRANCH   5   7
BRANCH   4  24
HETATM   24  O   UNL     1      40.189  -9.257   5.015  1.00  0.00    -0.355 OA
HETATM   25  H   UNL     1      39.697  -9.328   5.860  1.00  0.00     0.218 HD
ENDBRANCH   4  24
BRANCH   6  26
HETATM   26  C   UNL     1      40.045 -13.221   2.639  1.00  0.00    -0.030 A 
HETATM   27  C   UNL     1      41.299 -12.714   2.250  1.00  0.00     0.012 A 
HETATM   28  C   UNL     1      42.268 -13.546   1.683  1.00  0.00     0.037 A 
HETATM   29  C   UNL     1      41.987 -14.894   1.498  1.00  0.00     0.065 A 
HETATM   30  C   UNL     1      40.753 -15.417   1.861  1.00  0.00     0.037 A 
HETATM   31  C   UNL     1      39.781 -14.584   2.421  1.00  0.00     0.012 A 
BRANCH  29  32
HETATM   32  O   UNL     1      42.898 -15.744   0.951  1.00  0.00    -0.361 OA
HETATM   33  H   UNL     1      43.085 -16.460   1.582  1.00  0.00     0.217 HD
ENDBRANCH  29  32
ENDBRANCH   6  26
BRANCH   1  34
HETATM   34  C   UNL     1      38.147 -11.323   1.029  1.00  0.00     0.129 C 
BRANCH  34  35
HETATM   35  C   UNL     1      36.741 -10.758   0.813  1.00  0.00     0.048 C 
BRANCH  35  36
HETATM   36  C   UNL     1      36.706  -9.722  -0.308  1.00  0.00     0.236 C 
BRANCH  36  37
HETATM   37  N   UNL     1      35.765  -8.562  -0.001  1.00  0.00    -0.072 N 
HETATM   38  H   UNL     1      35.958  -7.845  -0.713  1.00  0.00     0.279 HD
BRANCH  37  39
HETATM   39  C   UNL     1      36.070  -7.908   1.342  1.00  0.00     0.230 C 
HETATM   40  C   UNL     1      36.610  -6.501   1.158  1.00  0.00     0.034 C 
ENDBRANCH  37  39
BRANCH  37  41
HETATM   41  C   UNL     1      34.278  -8.852  -0.145  1.00  0.00     0.230 C 
HETATM   42  C   UNL     1      33.517  -8.685   1.157  1.00  0.00     0.034 C 
ENDBRANCH  37  41
ENDBRANCH  36  37
ENDBRANCH  35  36
ENDBRANCH  34  35
ENDBRANCH   1  34
TORSDOF 14
ENDMDL
MODEL 10
REMARK VINA RESULT:      -7.5      4.910      8.574
REMARK  14 active torsions:
REMARK  status: ('A' for Active; 'I' for Inactive)
REMARK    1  A    between atoms: C_2  and  N_3 
REMARK    2  A    between atoms: N_3  and  C_5 
REMARK    3  A    between atoms: N_3  and  C_39 
REMARK    4  A    between atoms: C_5  and  C_6 
REMARK    5  A    between atoms: C_6  and  C_7 
REMARK    6  A    between atoms: C_7  and  N_8 
REMARK    7  A    between atoms: C_11  and  O_12 
REMARK    8  A    between atoms: C_13  and  C_14 
REMARK    9  A    between atoms: C_14  and  C_15 
REMARK   10  A    between atoms: C_18  and  O_19 
REMARK   11  A    between atoms: O_19  and  C_20 
REMARK   12  A    between atoms: C_20  and  C_21 
REMARK   13  A    between atoms: C_31  and  C_32 
REMARK   14  A    between atoms: C_35  and  O_36 
ROOT
HETATM    1  N   UNL     1      41.344 -14.727   5.052  1.00  0.00    -0.333 N 
HETATM    2  C   UNL     1      40.424 -14.397   6.028  1.00  0.00     0.278 C 
HETATM    3  O   UNL     1      39.775 -15.138   6.743  1.00  0.00    -0.265 OA
HETATM    4  C   UNL     1      40.422 -12.922   6.152  1.00  0.00     0.146 C 
HETATM    5  C   UNL     1      41.278 -12.450   5.238  1.00  0.00     0.059 C 
HETATM    6  C   UNL     1      41.754 -13.537   4.315  1.00  0.00     0.161 C 
ENDROOT
BRANCH   5   7
HETATM    7  C   UNL     1      41.856 -11.100   5.055  1.00  0.00     0.193 C 
HETATM    8  O   UNL     1      42.082 -10.699   3.914  1.00  0.00    -0.287 OA
BRANCH   7   9
HETATM    9  C   UNL     1      42.313 -10.265   6.193  1.00  0.00     0.015 A 
HETATM   10  C   UNL     1      41.778  -9.002   6.466  1.00  0.00     0.018 A 
HETATM   11  C   UNL     1      42.173  -8.292   7.608  1.00  0.00     0.038 A 
HETATM   12  C   UNL     1      43.068  -8.860   8.514  1.00  0.00     0.069 A 
HETATM   13  C   UNL     1      43.585 -10.131   8.254  1.00  0.00     0.038 A 
HETATM   14  C   UNL     1      43.212 -10.832   7.103  1.00  0.00     0.018 A 
BRANCH  12  15
HETATM   15  O   UNL     1      43.489  -8.299   9.688  1.00  0.00    -0.347 OA
BRANCH  15  16
HETATM   16  C   UNL     1      43.934  -9.185  10.715  1.00  0.00     0.214 C 
BRANCH  16  17
HETATM   17  C   UNL     1      43.194  -8.882  11.995  1.00  0.00    -0.034 A 
HETATM   18  C   UNL     1      42.149  -9.703  12.436  1.00  0.00     0.010 A 
HETATM   19  C   UNL     1      41.514  -9.451  13.655  1.00  0.00     0.007 A 
HETATM   20  C   UNL     1      41.911  -8.374  14.454  1.00  0.00    -0.062 A 
HETATM   21  C   UNL     1      41.260  -8.115  15.780  1.00  0.00     0.048 C 
HETATM   22  C   UNL     1      42.956  -7.552  14.017  1.00  0.00     0.007 A 
HETATM   23  C   UNL     1      43.590  -7.803  12.798  1.00  0.00     0.010 A 
ENDBRANCH  16  17
ENDBRANCH  15  16
ENDBRANCH  12  15
ENDBRANCH   7   9
ENDBRANCH   5   7
BRANCH   4  24
HETATM   24  O   UNL     1      39.731 -12.267   7.124  1.00  0.00    -0.355 OA
HETATM   25  H   UNL     1      39.067 -11.713   6.663  1.00  0.00     0.218 HD
ENDBRANCH   4  24
BRANCH   6  26
HETATM   26  C   UNL     1      41.183 -13.482   2.906  1.00  0.00    -0.030 A 
HETATM   27  C   UNL     1      41.987 -13.874   1.820  1.00  0.00     0.012 A 
HETATM   28  C   UNL     1      41.496 -13.846   0.512  1.00  0.00     0.037 A 
HETATM   29  C   UNL     1      40.194 -13.420   0.282  1.00  0.00     0.065 A 
HETATM   30  C   UNL     1      39.383 -13.015   1.334  1.00  0.00     0.037 A 
HETATM   31  C   UNL     1      39.877 -13.037   2.641  1.00  0.00     0.012 A 
BRANCH  29  32
HETATM   32  O   UNL     1      39.670 -13.375  -0.974  1.00  0.00    -0.361 OA
HETATM   33  H   UNL     1      39.241 -14.224  -1.170  1.00  0.00     0.217 HD
ENDBRANCH  29  32
ENDBRANCH   6  26
BRANCH   1  34
HETATM   34  C   UNL     1      41.538 -16.095   4.593  1.00  0.00     0.129 C 
BRANCH  34  35
HETATM   35  C   UNL     1      42.996 -16.478   4.334  1.00  0.00     0.048 C 
BRANCH  35  36
HETATM   36  C   UNL     1      43.119 -17.617   3.325  1.00  0.00     0.236 C 
BRANCH  36  37
HETATM   37  N   UNL     1      44.056 -18.721   3.803  1.00  0.00    -0.072 N 
HETATM   38  H   UNL     1      45.010 -18.356   3.681  1.00  0.00     0.279 HD
BRANCH  37  39
HETATM   39  C   UNL     1      43.973 -19.969   2.931  1.00  0.00     0.230 C 
HETATM   40  C   UNL     1      42.894 -19.829   1.872  1.00  0.00     0.034 C 
ENDBRANCH  37  39
BRANCH  37  41
HETATM   41  C   UNL     1      43.969 -19.077   5.281  1.00  0.00     0.230 C 
HETATM   42  C   UNL     1      43.983 -20.574   5.527  1.00  0.00     0.034 C 
ENDBRANCH  37  41
ENDBRANCH  36  37
ENDBRANCH  35  36
ENDBRANCH  34  35
ENDBRANCH   1  34
TORSDOF 14
ENDMDL
