MODEL 1
REMARK VINA RESULT:      -7.8      0.000      0.000
REMARK  5 active torsions:
REMARK  status: ('A' for Active; 'I' for Inactive)
REMARK    1  A    between atoms: C_10  and  N_11 
REMARK    2  A    between atoms: N_11  and  C_12 
REMARK    3  A    between atoms: C_12  and  C_13 
REMARK    4  A    between atoms: C_13  and  N_14 
REMARK       I    between atoms: N_14  and  C_15 
REMARK    5  A    between atoms: C_15  and  C_16 
ROOT
HETATM    1  C   UNL     1      43.631 -20.333   1.774  1.00  0.00     0.048 C 
HETATM    2  C   UNL     1      43.522 -19.112   2.643  1.00  0.00    -0.060 A 
HETATM    3  C   UNL     1      42.590 -18.107   2.356  1.00  0.00     0.037 A 
HETATM    4  C   UNL     1      42.480 -16.984   3.187  1.00  0.00     0.044 A 
HETATM    5  C   UNL     1      43.295 -16.860   4.327  1.00  0.00    -0.009 A 
HETATM    6  C   UNL     1      44.217 -17.875   4.617  1.00  0.00     0.014 A 
HETATM    7  C   UNL     1      44.325 -18.991   3.784  1.00  0.00     0.007 A 
HETATM    8  N   UNL     1      41.599 -16.012   2.903  1.00  0.00    -0.346 N 
HETATM    9  H   UNL     1      41.022 -16.141   2.081  1.00  0.00     0.167 HD
HETATM   10  C   UNL     1      41.438 -14.889   3.626  1.00  0.00     0.086 A 
HETATM   11  C   UNL     1      42.200 -14.743   4.802  1.00  0.00    -0.023 A 
HETATM   12  C   UNL     1      42.065 -13.539   5.696  1.00  0.00     0.052 C 
HETATM   13  C   UNL     1      43.144 -15.727   5.131  1.00  0.00     0.023 A 
ENDROOT
BRANCH  10  14
HETATM   14  N   UNL     1      40.480 -13.934   3.268  1.00  0.00    -0.277 NA
HETATM   15  H   UNL     1      39.920 -13.656   4.076  1.00  0.00     0.129 HD
BRANCH  14  16
HETATM   16  C   UNL     1      40.903 -12.793   2.457  1.00  0.00     0.113 C 
BRANCH  16  17
HETATM   17  C   UNL     1      41.692 -13.198   1.206  1.00  0.00     0.137 C 
BRANCH  17  18
HETATM   18  N   UNL     1      40.914 -13.354  -0.020  1.00  0.00    -0.360 N 
HETATM   19  C   UNL     1      40.058 -14.399  -0.311  1.00  0.00     0.221 C 
HETATM   20  O   UNL     1      39.877 -15.349   0.448  1.00  0.00    -0.273 OA
HETATM   21  H   UNL     1      40.967 -12.594  -0.689  1.00  0.00     0.162 HD
BRANCH  19  22
HETATM   22  C   UNL     1      39.352 -14.263  -1.660  1.00  0.00     0.070 C 
HETATM   23  C   UNL     1      38.246 -13.213  -1.586  1.00  0.00     0.019 C 
HETATM   24  C   UNL     1      40.350 -13.907  -2.761  1.00  0.00     0.019 C 
ENDBRANCH  19  22
ENDBRANCH  17  18
ENDBRANCH  16  17
ENDBRANCH  14  16
ENDBRANCH  10  14
TORSDOF 5
ENDMDL
MODEL 2
REMARK VINA RESULT:      -7.7      1.800      2.623
REMARK  5 active torsions:
REMARK  status: ('A' for Active; 'I' for Inactive)
REMARK    1  A    between atoms: C_10  and  N_11 
REMARK    2  A    between atoms: N_11  and  C_12 
REMARK    3  A    between atoms: C_12  and  C_13 
REMARK    4  A    between atoms: C_13  and  N_14 
REMARK       I    between atoms: N_14  and  C_15 
REMARK    5  A    between atoms: C_15  and  C_16 
ROOT
HETATM    1  C   UNL     1      43.847 -20.442   1.748  1.00  0.00     0.048 C 
HETATM    2  C   UNL     1      43.784 -19.706   3.056  1.00  0.00    -0.060 A 
HETATM    3  C   UNL     1      43.545 -18.327   3.094  1.00  0.00     0.037 A 
HETATM    4  C   UNL     1      43.463 -17.655   4.320  1.00  0.00     0.044 A 
HETATM    5  C   UNL     1      43.606 -18.360   5.529  1.00  0.00    -0.009 A 
HETATM    6  C   UNL     1      43.832 -19.743   5.487  1.00  0.00     0.014 A 
HETATM    7  C   UNL     1      43.915 -20.408   4.261  1.00  0.00     0.007 A 
HETATM    8  N   UNL     1      43.252 -16.329   4.357  1.00  0.00    -0.346 N 
HETATM    9  H   UNL     1      43.143 -15.857   3.467  1.00  0.00     0.167 HD
HETATM   10  C   UNL     1      43.182 -15.595   5.482  1.00  0.00     0.086 A 
HETATM   11  C   UNL     1      43.273 -16.267   6.717  1.00  0.00    -0.023 A 
HETATM   12  C   UNL     1      43.170 -15.537   8.030  1.00  0.00     0.052 C 
HETATM   13  C   UNL     1      43.508 -17.649   6.728  1.00  0.00     0.023 A 
ENDROOT
BRANCH  10  14
HETATM   14  N   UNL     1      42.939 -14.219   5.428  1.00  0.00    -0.277 NA
HETATM   15  H   UNL     1      43.573 -13.760   4.770  1.00  0.00     0.129 HD
BRANCH  14  16
HETATM   16  C   UNL     1      41.558 -13.760   5.289  1.00  0.00     0.113 C 
BRANCH  16  17
HETATM   17  C   UNL     1      41.334 -12.879   4.053  1.00  0.00     0.137 C 
BRANCH  17  18
HETATM   18  N   UNL     1      40.885 -13.568   2.846  1.00  0.00    -0.360 N 
HETATM   19  C   UNL     1      41.684 -14.284   1.975  1.00  0.00     0.221 C 
HETATM   20  O   UNL     1      42.899 -14.395   2.117  1.00  0.00    -0.273 OA
HETATM   21  H   UNL     1      39.886 -13.568   2.671  1.00  0.00     0.162 HD
BRANCH  19  22
HETATM   22  C   UNL     1      40.917 -14.929   0.821  1.00  0.00     0.070 C 
HETATM   23  C   UNL     1      39.910 -15.950   1.346  1.00  0.00     0.019 C 
HETATM   24  C   UNL     1      40.207 -13.868  -0.019  1.00  0.00     0.019 C 
ENDBRANCH  19  22
ENDBRANCH  17  18
ENDBRANCH  16  17
ENDBRANCH  14  16
ENDBRANCH  10  14
TORSDOF 5
ENDMDL
MODEL 3
REMARK VINA RESULT:      -7.6      3.791      6.667
REMARK  5 active torsions:
REMARK  status: ('A' for Active; 'I' for Inactive)
REMARK    1  A    between atoms: C_10  and  N_11 
REMARK    2  A    between atoms: N_11  and  C_12 
REMARK    3  A    between atoms: C_12  and  C_13 
REMARK    4  A    between atoms: C_13  and  N_14 
REMARK       I    between atoms: N_14  and  C_15 
REMARK    5  A    between atoms: C_15  and  C_16 
ROOT
HETATM    1  C   UNL     1      44.372 -20.939   5.277  1.00  0.00     0.048 C 
HETATM    2  C   UNL     1      43.964 -19.774   4.420  1.00  0.00    -0.060 A 
HETATM    3  C   UNL     1      43.869 -18.485   4.958  1.00  0.00     0.037 A 
HETATM    4  C   UNL     1      43.511 -17.402   4.144  1.00  0.00     0.044 A 
HETATM    5  C   UNL     1      43.258 -17.594   2.774  1.00  0.00    -0.009 A 
HETATM    6  C   UNL     1      43.368 -18.885   2.236  1.00  0.00     0.014 A 
HETATM    7  C   UNL     1      43.722 -19.962   3.053  1.00  0.00     0.007 A 
HETATM    8  N   UNL     1      43.402 -16.168   4.663  1.00  0.00    -0.346 N 
HETATM    9  H   UNL     1      43.602 -16.066   5.650  1.00  0.00     0.167 HD
HETATM   10  C   UNL     1      43.043 -15.074   3.968  1.00  0.00     0.086 A 
HETATM   11  C   UNL     1      42.824 -15.211   2.583  1.00  0.00    -0.023 A 
HETATM   12  C   UNL     1      42.454 -14.039   1.714  1.00  0.00     0.052 C 
HETATM   13  C   UNL     1      42.913 -16.483   2.000  1.00  0.00     0.023 A 
ENDROOT
BRANCH  10  14
HETATM   14  N   UNL     1      42.972 -13.821   4.586  1.00  0.00    -0.277 NA
HETATM   15  H   UNL     1      42.315 -13.208   4.098  1.00  0.00     0.129 HD
BRANCH  14  16
HETATM   16  C   UNL     1      42.816 -13.769   6.039  1.00  0.00     0.113 C 
BRANCH  16  17
HETATM   17  C   UNL     1      43.984 -13.071   6.749  1.00  0.00     0.137 C 
BRANCH  17  18
HETATM   18  N   UNL     1      43.626 -11.972   7.642  1.00  0.00    -0.360 N 
HETATM   19  C   UNL     1      44.506 -11.085   8.232  1.00  0.00     0.221 C 
HETATM   20  O   UNL     1      45.724 -11.150   8.081  1.00  0.00    -0.273 OA
HETATM   21  H   UNL     1      42.636 -11.815   7.791  1.00  0.00     0.162 HD
BRANCH  19  22
HETATM   22  C   UNL     1      43.828 -10.015   9.086  1.00  0.00     0.070 C 
HETATM   23  C   UNL     1      44.629  -9.753  10.359  1.00  0.00     0.019 C 
HETATM   24  C   UNL     1      43.651  -8.720   8.294  1.00  0.00     0.019 C 
ENDBRANCH  19  22
ENDBRANCH  17  18
ENDBRANCH  16  17
ENDBRANCH  14  16
ENDBRANCH  10  14
TORSDOF 5
ENDMDL
MODEL 4
REMARK VINA RESULT:      -6.9      2.270      3.398
REMARK  5 active torsions:
REMARK  status: ('A' for Active; 'I' for Inactive)
REMARK    1  A    between atoms: C_10  and  N_11 
REMARK    2  A    between atoms: N_11  and  C_12 
REMARK    3  A    between atoms: C_12  and  C_13 
REMARK    4  A    between atoms: C_13  and  N_14 
REMARK       I    between atoms: N_14  and  C_15 
REMARK    5  A    between atoms: C_15  and  C_16 
ROOT
HETATM    1  C   UNL     1      44.308 -20.798   5.381  1.00  0.00     0.048 C 
HETATM    2  C   UNL     1      43.931 -19.651   4.485  1.00  0.00    -0.060 A 
HETATM    3  C   UNL     1      43.759 -18.362   5.003  1.00  0.00     0.037 A 
HETATM    4  C   UNL     1      43.432 -17.296   4.155  1.00  0.00     0.044 A 
HETATM    5  C   UNL     1      43.286 -17.505   2.772  1.00  0.00    -0.009 A 
HETATM    6  C   UNL     1      43.472 -18.795   2.256  1.00  0.00     0.014 A 
HETATM    7  C   UNL     1      43.795 -19.856   3.107  1.00  0.00     0.007 A 
HETATM    8  N   UNL     1      43.250 -16.062   4.653  1.00  0.00    -0.346 N 
HETATM    9  H   UNL     1      43.374 -15.947   5.652  1.00  0.00     0.167 HD
HETATM   10  C   UNL     1      42.912 -14.983   3.924  1.00  0.00     0.086 A 
HETATM   11  C   UNL     1      42.800 -15.137   2.528  1.00  0.00    -0.023 A 
HETATM   12  C   UNL     1      42.462 -13.981   1.624  1.00  0.00     0.052 C 
HETATM   13  C   UNL     1      42.967 -16.409   1.965  1.00  0.00     0.023 A 
ENDROOT
BRANCH  10  14
HETATM   14  N   UNL     1      42.761 -13.729   4.524  1.00  0.00    -0.277 NA
HETATM   15  H   UNL     1      42.459 -13.030   3.842  1.00  0.00     0.129 HD
BRANCH  14  16
HETATM   16  C   UNL     1      42.019 -13.642   5.781  1.00  0.00     0.113 C 
BRANCH  16  17
HETATM   17  C   UNL     1      40.505 -13.494   5.583  1.00  0.00     0.137 C 
BRANCH  17  18
HETATM   18  N   UNL     1      40.082 -12.527   4.573  1.00  0.00    -0.360 N 
HETATM   19  C   UNL     1      39.499 -12.825   3.356  1.00  0.00     0.221 C 
HETATM   20  O   UNL     1      39.294 -13.976   2.975  1.00  0.00    -0.273 OA
HETATM   21  H   UNL     1      40.174 -11.548   4.819  1.00  0.00     0.162 HD
BRANCH  19  22
HETATM   22  C   UNL     1      39.129 -11.595   2.529  1.00  0.00     0.070 C 
HETATM   23  C   UNL     1      40.204 -10.517   2.655  1.00  0.00     0.019 C 
HETATM   24  C   UNL     1      38.922 -11.969   1.062  1.00  0.00     0.019 C 
ENDBRANCH  19  22
ENDBRANCH  17  18
ENDBRANCH  16  17
ENDBRANCH  14  16
ENDBRANCH  10  14
TORSDOF 5
ENDMDL
MODEL 5
REMARK VINA RESULT:      -6.7      3.300      4.655
REMARK  5 active torsions:
REMARK  status: ('A' for Active; 'I' for Inactive)
REMARK    1  A    between atoms: C_10  and  N_11 
REMARK    2  A    between atoms: N_11  and  C_12 
REMARK    3  A    between atoms: C_12  and  C_13 
REMARK    4  A    between atoms: C_13  and  N_14 
REMARK       I    between atoms: N_14  and  C_15 
REMARK    5  A    between atoms: C_15  and  C_16 
ROOT
HETATM    1  C   UNL     1      43.447 -20.267   1.688  1.00  0.00     0.048 C 
HETATM    2  C   UNL     1      43.558 -19.192   2.733  1.00  0.00    -0.060 A 
HETATM    3  C   UNL     1      42.966 -17.939   2.539  1.00  0.00     0.037 A 
HETATM    4  C   UNL     1      43.055 -16.952   3.530  1.00  0.00     0.044 A 
HETATM    5  C   UNL     1      43.728 -17.214   4.737  1.00  0.00    -0.009 A 
HETATM    6  C   UNL     1      44.307 -18.476   4.932  1.00  0.00     0.014 A 
HETATM    7  C   UNL     1      44.218 -19.455   3.939  1.00  0.00     0.007 A 
HETATM    8  N   UNL     1      42.503 -15.743   3.338  1.00  0.00    -0.346 N 
HETATM    9  H   UNL     1      42.018 -15.594   2.462  1.00  0.00     0.167 HD
HETATM   10  C   UNL     1      42.557 -14.728   4.219  1.00  0.00     0.086 A 
HETATM   11  C   UNL     1      43.180 -14.961   5.461  1.00  0.00    -0.023 A 
HETATM   12  C   UNL     1      43.258 -13.898   6.525  1.00  0.00     0.052 C 
HETATM   13  C   UNL     1      43.783 -16.203   5.700  1.00  0.00     0.023 A 
ENDROOT
BRANCH  10  14
HETATM   14  N   UNL     1      41.936 -13.505   3.944  1.00  0.00    -0.277 NA
HETATM   15  H   UNL     1      42.396 -13.026   3.167  1.00  0.00     0.129 HD
BRANCH  14  16
HETATM   16  C   UNL     1      40.478 -13.472   3.838  1.00  0.00     0.113 C 
BRANCH  16  17
HETATM   17  C   UNL     1      39.795 -12.846   5.062  1.00  0.00     0.137 C 
BRANCH  17  18
HETATM   18  N   UNL     1      39.706 -11.388   5.070  1.00  0.00    -0.360 N 
HETATM   19  C   UNL     1      38.971 -10.624   5.956  1.00  0.00     0.221 C 
HETATM   20  O   UNL     1      38.273 -11.112   6.843  1.00  0.00    -0.273 OA
HETATM   21  H   UNL     1      40.285 -10.896   4.398  1.00  0.00     0.162 HD
BRANCH  19  22
HETATM   22  C   UNL     1      39.108  -9.118   5.737  1.00  0.00     0.070 C 
HETATM   23  C   UNL     1      37.883  -8.564   5.013  1.00  0.00     0.019 C 
HETATM   24  C   UNL     1      39.311  -8.392   7.066  1.00  0.00     0.019 C 
ENDBRANCH  19  22
ENDBRANCH  17  18
ENDBRANCH  16  17
ENDBRANCH  14  16
ENDBRANCH  10  14
TORSDOF 5
ENDMDL
MODEL 6
REMARK VINA RESULT:      -6.6      2.752      5.602
REMARK  5 active torsions:
REMARK  status: ('A' for Active; 'I' for Inactive)
REMARK    1  A    between atoms: C_10  and  N_11 
REMARK    2  A    between atoms: N_11  and  C_12 
REMARK    3  A    between atoms: C_12  and  C_13 
REMARK    4  A    between atoms: C_13  and  N_14 
REMARK       I    between atoms: N_14  and  C_15 
REMARK    5  A    between atoms: C_15  and  C_16 
ROOT
HETATM    1  C   UNL     1      44.400 -17.845   5.408  1.00  0.00     0.048 C 
HETATM    2  C   UNL     1      43.649 -17.187   4.285  1.00  0.00    -0.060 A 
HETATM    3  C   UNL     1      43.303 -15.833   4.349  1.00  0.00     0.037 A 
HETATM    4  C   UNL     1      42.625 -15.223   3.285  1.00  0.00     0.044 A 
HETATM    5  C   UNL     1      42.297 -15.961   2.133  1.00  0.00    -0.009 A 
HETATM    6  C   UNL     1      42.658 -17.314   2.068  1.00  0.00     0.014 A 
HETATM    7  C   UNL     1      43.332 -17.918   3.133  1.00  0.00     0.007 A 
HETATM    8  N   UNL     1      42.276 -13.928   3.353  1.00  0.00    -0.346 N 
HETATM    9  H   UNL     1      42.538 -13.426   4.193  1.00  0.00     0.167 HD
HETATM   10  C   UNL     1      41.605 -13.264   2.395  1.00  0.00     0.086 A 
HETATM   11  C   UNL     1      41.297 -13.951   1.205  1.00  0.00    -0.023 A 
HETATM   12  C   UNL     1      40.580 -13.284   0.061  1.00  0.00     0.052 C 
HETATM   13  C   UNL     1      41.628 -15.309   1.094  1.00  0.00     0.023 A 
ENDROOT
BRANCH  10  14
HETATM   14  N   UNL     1      41.298 -11.907   2.541  1.00  0.00    -0.277 NA
HETATM   15  H   UNL     1      40.509 -11.776   3.178  1.00  0.00     0.129 HD
BRANCH  14  16
HETATM   16  C   UNL     1      42.391 -10.970   2.802  1.00  0.00     0.113 C 
BRANCH  16  17
HETATM   17  C   UNL     1      42.325 -10.335   4.196  1.00  0.00     0.137 C 
BRANCH  17  18
HETATM   18  N   UNL     1      42.997 -11.067   5.267  1.00  0.00    -0.360 N 
HETATM   19  C   UNL     1      44.317 -11.476   5.267  1.00  0.00     0.221 C 
HETATM   20  O   UNL     1      45.079 -11.281   4.323  1.00  0.00    -0.273 OA
HETATM   21  H   UNL     1      42.456 -11.234   6.108  1.00  0.00     0.162 HD
BRANCH  19  22
HETATM   22  C   UNL     1      44.744 -12.187   6.550  1.00  0.00     0.070 C 
HETATM   23  C   UNL     1      44.994 -11.177   7.669  1.00  0.00     0.019 C 
HETATM   24  C   UNL     1      43.691 -13.207   6.982  1.00  0.00     0.019 C 
ENDBRANCH  19  22
ENDBRANCH  17  18
ENDBRANCH  16  17
ENDBRANCH  14  16
ENDBRANCH  10  14
TORSDOF 5
ENDMDL
MODEL 7
REMARK VINA RESULT:      -6.6     14.398     16.348
REMARK  5 active torsions:
REMARK  status: ('A' for Active; 'I' for Inactive)
REMARK    1  A    between atoms: C_10  and  N_11 
REMARK    2  A    between atoms: N_11  and  C_12 
REMARK    3  A    between atoms: C_12  and  C_13 
REMARK    4  A    between atoms: C_13  and  N_14 
REMARK       I    between atoms: N_14  and  C_15 
REMARK    5  A    between atoms: C_15  and  C_16 
ROOT
HETATM    1  C   UNL     1      43.565 -29.456  -3.788  1.00  0.00     0.048 C 
HETATM    2  C   UNL     1      44.539 -29.060  -2.714  1.00  0.00    -0.060 A 
HETATM    3  C   UNL     1      44.341 -29.453  -1.385  1.00  0.00     0.037 A 
HETATM    4  C   UNL     1      45.268 -29.099  -0.396  1.00  0.00     0.044 A 
HETATM    5  C   UNL     1      46.416 -28.357  -0.729  1.00  0.00    -0.009 A 
HETATM    6  C   UNL     1      46.617 -27.978  -2.064  1.00  0.00     0.014 A 
HETATM    7  C   UNL     1      45.688 -28.331  -3.046  1.00  0.00     0.007 A 
HETATM    8  N   UNL     1      45.070 -29.459   0.882  1.00  0.00    -0.346 N 
HETATM    9  H   UNL     1      44.238 -30.001   1.083  1.00  0.00     0.167 HD
HETATM   10  C   UNL     1      45.890 -29.147   1.902  1.00  0.00     0.086 A 
HETATM   11  C   UNL     1      47.075 -28.445   1.608  1.00  0.00    -0.023 A 
HETATM   12  C   UNL     1      48.073 -28.081   2.675  1.00  0.00     0.052 C 
HETATM   13  C   UNL     1      47.317 -28.035   0.289  1.00  0.00     0.023 A 
ENDROOT
BRANCH  10  14
HETATM   14  N   UNL     1      45.616 -29.581   3.203  1.00  0.00    -0.277 NA
HETATM   15  H   UNL     1      44.711 -29.230   3.523  1.00  0.00     0.129 HD
BRANCH  14  16
HETATM   16  C   UNL     1      45.815 -30.994   3.522  1.00  0.00     0.113 C 
BRANCH  16  17
HETATM   17  C   UNL     1      46.642 -31.217   4.795  1.00  0.00     0.137 C 
BRANCH  17  18
HETATM   18  N   UNL     1      47.994 -30.665   4.786  1.00  0.00    -0.360 N 
HETATM   19  C   UNL     1      49.115 -31.269   4.249  1.00  0.00     0.221 C 
HETATM   20  O   UNL     1      49.091 -32.383   3.729  1.00  0.00    -0.273 OA
HETATM   21  H   UNL     1      48.102 -29.727   5.156  1.00  0.00     0.162 HD
BRANCH  19  22
HETATM   22  C   UNL     1      50.384 -30.425   4.355  1.00  0.00     0.070 C 
HETATM   23  C   UNL     1      51.386 -31.076   5.307  1.00  0.00     0.019 C 
HETATM   24  C   UNL     1      51.016 -30.219   2.979  1.00  0.00     0.019 C 
ENDBRANCH  19  22
ENDBRANCH  17  18
ENDBRANCH  16  17
ENDBRANCH  14  16
ENDBRANCH  10  14
TORSDOF 5
ENDMDL
MODEL 8
REMARK VINA RESULT:      -6.5      1.533      6.189
REMARK  5 active torsions:
REMARK  status: ('A' for Active; 'I' for Inactive)
REMARK    1  A    between atoms: C_10  and  N_11 
REMARK    2  A    between atoms: N_11  and  C_12 
REMARK    3  A    between atoms: C_12  and  C_13 
REMARK    4  A    between atoms: C_13  and  N_14 
REMARK       I    between atoms: N_14  and  C_15 
REMARK    5  A    between atoms: C_15  and  C_16 
ROOT
HETATM    1  C   UNL     1      38.613 -15.383  -2.483  1.00  0.00     0.048 C 
HETATM    2  C   UNL     1      39.171 -14.372  -1.522  1.00  0.00    -0.060 A 
HETATM    3  C   UNL     1      40.155 -14.731  -0.594  1.00  0.00     0.037 A 
HETATM    4  C   UNL     1      40.687 -13.774   0.281  1.00  0.00     0.044 A 
HETATM    5  C   UNL     1      40.248 -12.439   0.227  1.00  0.00    -0.009 A 
HETATM    6  C   UNL     1      39.273 -12.081  -0.714  1.00  0.00     0.014 A 
HETATM    7  C   UNL     1      38.744 -13.040  -1.582  1.00  0.00     0.007 A 
HETATM    8  N   UNL     1      41.618 -14.121   1.184  1.00  0.00    -0.346 N 
HETATM    9  H   UNL     1      41.917 -15.089   1.187  1.00  0.00     0.167 HD
HETATM   10  C   UNL     1      42.168 -13.281   2.079  1.00  0.00     0.086 A 
HETATM   11  C   UNL     1      41.793 -11.924   2.031  1.00  0.00    -0.023 A 
HETATM   12  C   UNL     1      42.380 -10.900   2.966  1.00  0.00     0.052 C 
HETATM   13  C   UNL     1      40.813 -11.518   1.114  1.00  0.00     0.023 A 
ENDROOT
BRANCH  10  14
HETATM   14  N   UNL     1      43.148 -13.724   2.973  1.00  0.00    -0.277 NA
HETATM   15  H   UNL     1      43.987 -13.143   2.916  1.00  0.00     0.129 HD
BRANCH  14  16
HETATM   16  C   UNL     1      42.755 -14.008   4.353  1.00  0.00     0.113 C 
BRANCH  16  17
HETATM   17  C   UNL     1      42.126 -15.396   4.531  1.00  0.00     0.137 C 
BRANCH  17  18
HETATM   18  N   UNL     1      42.940 -16.529   4.098  1.00  0.00    -0.360 N 
HETATM   19  C   UNL     1      42.734 -17.291   2.964  1.00  0.00     0.221 C 
HETATM   20  O   UNL     1      41.798 -17.103   2.191  1.00  0.00    -0.273 OA
HETATM   21  H   UNL     1      43.764 -16.731   4.653  1.00  0.00     0.162 HD
BRANCH  19  22
HETATM   22  C   UNL     1      43.780 -18.386   2.756  1.00  0.00     0.070 C 
HETATM   23  C   UNL     1      44.450 -18.750   4.080  1.00  0.00     0.019 C 
HETATM   24  C   UNL     1      43.151 -19.626   2.122  1.00  0.00     0.019 C 
ENDBRANCH  19  22
ENDBRANCH  17  18
ENDBRANCH  16  17
ENDBRANCH  14  16
ENDBRANCH  10  14
TORSDOF 5
ENDMDL
MODEL 9
REMARK VINA RESULT:      -6.5      1.743      2.130
REMARK  5 active torsions:
REMARK  status: ('A' for Active; 'I' for Inactive)
REMARK    1  A    between atoms: C_10  and  N_11 
REMARK    2  A    between atoms: N_11  and  C_12 
REMARK    3  A    between atoms: C_12  and  C_13 
REMARK    4  A    between atoms: C_13  and  N_14 
REMARK       I    between atoms: N_14  and  C_15 
REMARK    5  A    between atoms: C_15  and  C_16 
ROOT
HETATM    1  C   UNL     1      43.977 -20.561   2.218  1.00  0.00     0.048 C 
HETATM    2  C   UNL     1      43.698 -19.220   2.837  1.00  0.00    -0.060 A 
HETATM    3  C   UNL     1      42.710 -18.379   2.313  1.00  0.00     0.037 A 
HETATM    4  C   UNL     1      42.442 -17.141   2.912  1.00  0.00     0.044 A 
HETATM    5  C   UNL     1      43.153 -16.735   4.056  1.00  0.00    -0.009 A 
HETATM    6  C   UNL     1      44.133 -17.587   4.586  1.00  0.00     0.014 A 
HETATM    7  C   UNL     1      44.398 -18.819   3.982  1.00  0.00     0.007 A 
HETATM    8  N   UNL     1      41.506 -16.325   2.400  1.00  0.00    -0.346 N 
HETATM    9  H   UNL     1      41.007 -16.655   1.582  1.00  0.00     0.167 HD
HETATM   10  C   UNL     1      41.196 -15.112   2.890  1.00  0.00     0.086 A 
HETATM   11  C   UNL     1      41.850 -14.684   4.062  1.00  0.00    -0.023 A 
HETATM   12  C   UNL     1      41.545 -13.358   4.707  1.00  0.00     0.052 C 
HETATM   13  C   UNL     1      42.845 -15.496   4.624  1.00  0.00     0.023 A 
ENDROOT
BRANCH  10  14
HETATM   14  N   UNL     1      40.191 -14.335   2.303  1.00  0.00    -0.277 NA
HETATM   15  H   UNL     1      39.888 -13.591   2.934  1.00  0.00     0.129 HD
BRANCH  14  16
HETATM   16  C   UNL     1      40.386 -13.864   0.932  1.00  0.00     0.113 C 
BRANCH  16  17
HETATM   17  C   UNL     1      39.649 -12.553   0.632  1.00  0.00     0.137 C 
BRANCH  17  18
HETATM   18  N   UNL     1      39.003 -12.465  -0.675  1.00  0.00    -0.360 N 
HETATM   19  C   UNL     1      37.852 -11.758  -0.968  1.00  0.00     0.221 C 
HETATM   20  O   UNL     1      37.218 -11.131  -0.122  1.00  0.00    -0.273 OA
HETATM   21  H   UNL     1      39.481 -12.918  -1.446  1.00  0.00     0.162 HD
BRANCH  19  22
HETATM   22  C   UNL     1      37.443 -11.823  -2.438  1.00  0.00     0.070 C 
HETATM   23  C   UNL     1      37.143 -13.263  -2.851  1.00  0.00     0.019 C 
HETATM   24  C   UNL     1      36.230 -10.932  -2.705  1.00  0.00     0.019 C 
ENDBRANCH  19  22
ENDBRANCH  17  18
ENDBRANCH  16  17
ENDBRANCH  14  16
ENDBRANCH  10  14
TORSDOF 5
ENDMDL
MODEL 10
REMARK VINA RESULT:      -6.4     14.646     16.992
REMARK  5 active torsions:
REMARK  status: ('A' for Active; 'I' for Inactive)
REMARK    1  A    between atoms: C_10  and  N_11 
REMARK    2  A    between atoms: N_11  and  C_12 
REMARK    3  A    between atoms: C_12  and  C_13 
REMARK    4  A    between atoms: C_13  and  N_14 
REMARK       I    between atoms: N_14  and  C_15 
REMARK    5  A    between atoms: C_15  and  C_16 
ROOT
HETATM    1  C   UNL     1      44.293 -30.386  -5.518  1.00  0.00     0.048 C 
HETATM    2  C   UNL     1      44.694 -29.915  -4.149  1.00  0.00    -0.060 A 
HETATM    3  C   UNL     1      46.036 -29.921  -3.751  1.00  0.00     0.037 A 
HETATM    4  C   UNL     1      46.401 -29.457  -2.480  1.00  0.00     0.044 A 
HETATM    5  C   UNL     1      45.424 -28.966  -1.594  1.00  0.00    -0.009 A 
HETATM    6  C   UNL     1      44.083 -28.949  -2.002  1.00  0.00     0.014 A 
HETATM    7  C   UNL     1      43.724 -29.416  -3.269  1.00  0.00     0.007 A 
HETATM    8  N   UNL     1      47.686 -29.479  -2.091  1.00  0.00    -0.346 N 
HETATM    9  H   UNL     1      48.362 -29.829  -2.759  1.00  0.00     0.167 HD
HETATM   10  C   UNL     1      48.128 -29.077  -0.886  1.00  0.00     0.086 A 
HETATM   11  C   UNL     1      47.192 -28.535   0.016  1.00  0.00    -0.023 A 
HETATM   12  C   UNL     1      47.596 -28.025   1.374  1.00  0.00     0.052 C 
HETATM   13  C   UNL     1      45.836 -28.505  -0.341  1.00  0.00     0.023 A 
ENDROOT
BRANCH  10  14
HETATM   14  N   UNL     1      49.490 -29.117  -0.571  1.00  0.00    -0.277 NA
HETATM   15  H   UNL     1      49.647 -28.877   0.410  1.00  0.00     0.129 HD
BRANCH  14  16
HETATM   16  C   UNL     1      50.270 -30.279  -0.995  1.00  0.00     0.113 C 
BRANCH  16  17
HETATM   17  C   UNL     1      51.043 -30.941   0.152  1.00  0.00     0.137 C 
BRANCH  17  18
HETATM   18  N   UNL     1      50.820 -30.382   1.483  1.00  0.00    -0.360 N 
HETATM   19  C   UNL     1      50.557 -31.101   2.633  1.00  0.00     0.221 C 
HETATM   20  O   UNL     1      50.455 -32.326   2.649  1.00  0.00    -0.273 OA
HETATM   21  H   UNL     1      50.928 -29.378   1.575  1.00  0.00     0.162 HD
BRANCH  19  22
HETATM   22  C   UNL     1      50.410 -30.236   3.884  1.00  0.00     0.070 C 
HETATM   23  C   UNL     1      48.937 -30.065   4.252  1.00  0.00     0.019 C 
HETATM   24  C   UNL     1      51.182 -30.840   5.056  1.00  0.00     0.019 C 
ENDBRANCH  19  22
ENDBRANCH  17  18
ENDBRANCH  16  17
ENDBRANCH  14  16
ENDBRANCH  10  14
TORSDOF 5
ENDMDL
