MODEL 1
REMARK VINA RESULT:     -10.4      0.000      0.000
REMARK  9 active torsions:
REMARK  status: ('A' for Active; 'I' for Inactive)
REMARK    1  A    between atoms: C_2  and  O_3 
REMARK    2  A    between atoms: O_3  and  C_4 
REMARK    3  A    between atoms: C_7  and  C_8 
REMARK    4  A    between atoms: C_9  and  C_10 
REMARK       I    between atoms: C_10  and  N_11 
REMARK    5  A    between atoms: N_11  and  C_12 
REMARK    6  A    between atoms: C_22  and  S_23 
REMARK    7  A    between atoms: S_23  and  C_24 
REMARK    8  A    between atoms: C_24  and  C_25 
REMARK       I    between atoms: C_25  and  N_26 
REMARK    9  A    between atoms: N_26  and  C_27 
ROOT
HETATM    1  C   UNL     1      43.185 -14.162   4.355  1.00  0.00     0.106 C 
HETATM    2  C   UNL     1      43.228 -15.130   5.526  1.00  0.00     0.046 C 
HETATM    3  C   UNL     1      42.729 -14.785   6.734  1.00  0.00     0.019 C 
HETATM    4  C   UNL     1      42.817 -15.631   7.978  1.00  0.00     0.069 C 
HETATM    5  N   UNL     1      42.132 -13.543   6.887  1.00  0.00    -0.353 N 
HETATM    6  C   UNL     1      42.223 -12.500   5.976  1.00  0.00     0.088 C 
HETATM    7  C   UNL     1      42.791 -12.734   4.765  1.00  0.00     0.069 C 
HETATM    8  C   UNL     1      42.997 -11.712   3.786  1.00  0.00     0.099 C 
HETATM    9  N   UNL     1      43.191 -10.897   2.984  1.00  0.00    -0.192 NA
HETATM   10  H   UNL     1      41.721 -13.331   7.789  1.00  0.00     0.166 HD
ENDROOT
BRANCH   1  11
HETATM   11  C   UNL     1      42.207 -14.626   3.264  1.00  0.00    -0.044 A 
HETATM   12  C   UNL     1      40.829 -14.744   3.530  1.00  0.00     0.011 A 
HETATM   13  C   UNL     1      39.915 -14.936   2.493  1.00  0.00     0.037 A 
HETATM   14  C   UNL     1      40.365 -14.999   1.175  1.00  0.00     0.068 A 
HETATM   15  C   UNL     1      41.732 -14.975   0.908  1.00  0.00     0.037 A 
HETATM   16  C   UNL     1      42.651 -14.783   1.943  1.00  0.00     0.011 A 
BRANCH  14  17
HETATM   17  O   UNL     1      39.537 -15.085   0.088  1.00  0.00    -0.352 OA
BRANCH  17  18
HETATM   18  C   UNL     1      39.962 -14.296  -1.030  1.00  0.00     0.171 C 
HETATM   19  C   UNL     1      39.104 -14.662  -2.228  1.00  0.00     0.034 C 
ENDBRANCH  17  18
ENDBRANCH  14  17
ENDBRANCH   1  11
BRANCH   6  20
HETATM   20  S   UNL     1      41.488 -10.938   6.285  1.00  0.00    -0.102 SA
BRANCH  20  21
HETATM   21  C   UNL     1      42.776 -10.006   7.166  1.00  0.00     0.184 C 
BRANCH  21  22
HETATM   22  C   UNL     1      42.243  -9.367   8.452  1.00  0.00     0.231 C 
HETATM   23  N   UNL     1      42.857  -9.824   9.606  1.00  0.00    -0.327 N 
HETATM   24  H   UNL     1      43.490 -10.607   9.473  1.00  0.00     0.169 HD
HETATM   25  O   UNL     1      41.411  -8.465   8.387  1.00  0.00    -0.272 OA
BRANCH  23  26
HETATM   26  C   UNL     1      42.657  -9.414  10.936  1.00  0.00     0.034 A 
HETATM   27  C   UNL     1      43.500  -8.545  11.623  1.00  0.00     0.030 A 
HETATM   28  C   UNL     1      43.223  -8.193  12.950  1.00  0.00     0.009 A 
HETATM   29  C   UNL     1      42.106  -8.716  13.611  1.00  0.00    -0.062 A 
HETATM   30  C   UNL     1      41.790  -8.317  15.021  1.00  0.00     0.048 C 
HETATM   31  C   UNL     1      41.254  -9.578  12.917  1.00  0.00     0.009 A 
HETATM   32  C   UNL     1      41.529  -9.925  11.592  1.00  0.00     0.030 A 
ENDBRANCH  23  26
ENDBRANCH  21  22
ENDBRANCH  20  21
ENDBRANCH   6  20
BRANCH   2  33
HETATM   33  C   UNL     1      43.942 -16.410   5.270  1.00  0.00     0.255 C 
HETATM   34  N   UNL     1      43.228 -17.268   4.461  1.00  0.00    -0.323 N 
HETATM   35  H   UNL     1      42.361 -16.917   4.078  1.00  0.00     0.169 HD
HETATM   36  O   UNL     1      45.055 -16.577   5.751  1.00  0.00    -0.268 OA
BRANCH  34  37
HETATM   37  C   UNL     1      43.556 -18.597   4.122  1.00  0.00     0.035 A 
HETATM   38  C   UNL     1      43.896 -19.580   5.053  1.00  0.00     0.029 A 
HETATM   39  C   UNL     1      44.179 -20.884   4.635  1.00  0.00     0.002 A 
HETATM   40  C   UNL     1      44.121 -21.218   3.284  1.00  0.00     0.000 A 
HETATM   41  C   UNL     1      43.785 -20.245   2.347  1.00  0.00     0.002 A 
HETATM   42  C   UNL     1      43.507 -18.940   2.763  1.00  0.00     0.029 A 
ENDBRANCH  34  37
ENDBRANCH   2  33
TORSDOF 9
ENDMDL
MODEL 2
REMARK VINA RESULT:     -10.2      3.635      7.213
REMARK  9 active torsions:
REMARK  status: ('A' for Active; 'I' for Inactive)
REMARK    1  A    between atoms: C_2  and  O_3 
REMARK    2  A    between atoms: O_3  and  C_4 
REMARK    3  A    between atoms: C_7  and  C_8 
REMARK    4  A    between atoms: C_9  and  C_10 
REMARK       I    between atoms: C_10  and  N_11 
REMARK    5  A    between atoms: N_11  and  C_12 
REMARK    6  A    between atoms: C_22  and  S_23 
REMARK    7  A    between atoms: S_23  and  C_24 
REMARK    8  A    between atoms: C_24  and  C_25 
REMARK       I    between atoms: C_25  and  N_26 
REMARK    9  A    between atoms: N_26  and  C_27 
ROOT
HETATM    1  C   UNL     1      40.431 -12.606   2.544  1.00  0.00     0.106 C 
HETATM    2  C   UNL     1      40.909 -11.672   1.444  1.00  0.00     0.046 C 
HETATM    3  C   UNL     1      41.546 -10.518   1.739  1.00  0.00     0.019 C 
HETATM    4  C   UNL     1      41.966  -9.480   0.729  1.00  0.00     0.069 C 
HETATM    5  N   UNL     1      41.802 -10.208   3.066  1.00  0.00    -0.353 N 
HETATM    6  C   UNL     1      41.234 -10.854   4.156  1.00  0.00     0.088 C 
HETATM    7  C   UNL     1      40.501 -11.977   3.944  1.00  0.00     0.069 C 
HETATM    8  C   UNL     1      39.816 -12.674   4.989  1.00  0.00     0.099 C 
HETATM    9  N   UNL     1      39.238 -13.245   5.816  1.00  0.00    -0.192 NA
HETATM   10  H   UNL     1      42.326  -9.362   3.256  1.00  0.00     0.166 HD
ENDROOT
BRANCH   1  11
HETATM   11  C   UNL     1      41.236 -13.915   2.574  1.00  0.00    -0.044 A 
HETATM   12  C   UNL     1      40.586 -15.162   2.652  1.00  0.00     0.011 A 
HETATM   13  C   UNL     1      41.290 -16.349   2.446  1.00  0.00     0.037 A 
HETATM   14  C   UNL     1      42.650 -16.305   2.146  1.00  0.00     0.068 A 
HETATM   15  C   UNL     1      43.323 -15.085   2.157  1.00  0.00     0.037 A 
HETATM   16  C   UNL     1      42.621 -13.894   2.362  1.00  0.00     0.011 A 
BRANCH  14  17
HETATM   17  O   UNL     1      43.399 -17.407   1.831  1.00  0.00    -0.352 OA
BRANCH  17  18
HETATM   18  C   UNL     1      43.386 -18.425   2.839  1.00  0.00     0.171 C 
HETATM   19  C   UNL     1      43.386 -19.779   2.152  1.00  0.00     0.034 C 
ENDBRANCH  17  18
ENDBRANCH  14  17
ENDBRANCH   1  11
BRANCH   6  20
HETATM   20  S   UNL     1      41.565 -10.350   5.803  1.00  0.00    -0.102 SA
BRANCH  20  21
HETATM   21  C   UNL     1      43.310 -10.785   6.061  1.00  0.00     0.184 C 
BRANCH  21  22
HETATM   22  C   UNL     1      43.469 -12.185   6.662  1.00  0.00     0.231 C 
HETATM   23  N   UNL     1      43.214 -13.214   5.773  1.00  0.00    -0.327 N 
HETATM   24  H   UNL     1      42.836 -12.922   4.877  1.00  0.00     0.169 HD
HETATM   25  O   UNL     1      43.883 -12.312   7.813  1.00  0.00    -0.272 OA
BRANCH  23  26
HETATM   26  C   UNL     1      43.321 -14.601   5.971  1.00  0.00     0.034 A 
HETATM   27  C   UNL     1      44.525 -15.276   6.155  1.00  0.00     0.030 A 
HETATM   28  C   UNL     1      44.537 -16.664   6.345  1.00  0.00     0.009 A 
HETATM   29  C   UNL     1      43.344 -17.396   6.338  1.00  0.00    -0.062 A 
HETATM   30  C   UNL     1      43.350 -18.878   6.570  1.00  0.00     0.048 C 
HETATM   31  C   UNL     1      42.136 -16.717   6.165  1.00  0.00     0.009 A 
HETATM   32  C   UNL     1      42.126 -15.332   5.981  1.00  0.00     0.030 A 
ENDBRANCH  23  26
ENDBRANCH  21  22
ENDBRANCH  20  21
ENDBRANCH   6  20
BRANCH   2  33
HETATM   33  C   UNL     1      40.532 -12.070   0.060  1.00  0.00     0.255 C 
HETATM   34  N   UNL     1      39.306 -12.697  -0.001  1.00  0.00    -0.323 N 
HETATM   35  H   UNL     1      38.778 -12.748   0.859  1.00  0.00     0.169 HD
HETATM   36  O   UNL     1      41.288 -11.798  -0.863  1.00  0.00    -0.268 OA
BRANCH  34  37
HETATM   37  C   UNL     1      38.709 -13.301  -1.127  1.00  0.00     0.035 A 
HETATM   38  C   UNL     1      37.624 -12.763  -1.819  1.00  0.00     0.029 A 
HETATM   39  C   UNL     1      37.111 -13.411  -2.947  1.00  0.00     0.002 A 
HETATM   40  C   UNL     1      37.680 -14.601  -3.394  1.00  0.00     0.000 A 
HETATM   41  C   UNL     1      38.761 -15.148  -2.710  1.00  0.00     0.002 A 
HETATM   42  C   UNL     1      39.272 -14.503  -1.580  1.00  0.00     0.029 A 
ENDBRANCH  34  37
ENDBRANCH   2  33
TORSDOF 9
ENDMDL
MODEL 3
REMARK VINA RESULT:     -10.2      1.732      2.085
REMARK  9 active torsions:
REMARK  status: ('A' for Active; 'I' for Inactive)
REMARK    1  A    between atoms: C_2  and  O_3 
REMARK    2  A    between atoms: O_3  and  C_4 
REMARK    3  A    between atoms: C_7  and  C_8 
REMARK    4  A    between atoms: C_9  and  C_10 
REMARK       I    between atoms: C_10  and  N_11 
REMARK    5  A    between atoms: N_11  and  C_12 
REMARK    6  A    between atoms: C_22  and  S_23 
REMARK    7  A    between atoms: S_23  and  C_24 
REMARK    8  A    between atoms: C_24  and  C_25 
REMARK       I    between atoms: C_25  and  N_26 
REMARK    9  A    between atoms: N_26  and  C_27 
ROOT
HETATM    1  C   UNL     1      42.854 -14.029   4.799  1.00  0.00     0.106 C 
HETATM    2  C   UNL     1      42.755 -15.088   5.885  1.00  0.00     0.046 C 
HETATM    3  C   UNL     1      42.994 -14.782   7.179  1.00  0.00     0.019 C 
HETATM    4  C   UNL     1      43.021 -15.778   8.311  1.00  0.00     0.069 C 
HETATM    5  N   UNL     1      43.291 -13.471   7.519  1.00  0.00    -0.353 N 
HETATM    6  C   UNL     1      43.625 -12.473   6.615  1.00  0.00     0.088 C 
HETATM    7  C   UNL     1      43.499 -12.722   5.286  1.00  0.00     0.069 C 
HETATM    8  C   UNL     1      43.883 -11.787   4.274  1.00  0.00     0.099 C 
HETATM    9  N   UNL     1      44.205 -11.053   3.436  1.00  0.00    -0.192 NA
HETATM   10  H   UNL     1      43.415 -13.261   8.503  1.00  0.00     0.166 HD
ENDROOT
BRANCH   1  11
HETATM   11  C   UNL     1      41.479 -13.684   4.206  1.00  0.00    -0.044 A 
HETATM   12  C   UNL     1      40.530 -12.961   4.954  1.00  0.00     0.011 A 
HETATM   13  C   UNL     1      39.383 -12.448   4.347  1.00  0.00     0.037 A 
HETATM   14  C   UNL     1      39.176 -12.639   2.982  1.00  0.00     0.068 A 
HETATM   15  C   UNL     1      40.060 -13.430   2.251  1.00  0.00     0.037 A 
HETATM   16  C   UNL     1      41.211 -13.946   2.855  1.00  0.00     0.011 A 
BRANCH  14  17
HETATM   17  O   UNL     1      38.135 -12.090   2.282  1.00  0.00    -0.352 OA
BRANCH  17  18
HETATM   18  C   UNL     1      38.131 -10.658   2.276  1.00  0.00     0.171 C 
HETATM   19  C   UNL     1      39.014 -10.181   1.137  1.00  0.00     0.034 C 
ENDBRANCH  17  18
ENDBRANCH  14  17
ENDBRANCH   1  11
BRANCH   6  20
HETATM   20  S   UNL     1      44.053 -10.856   7.142  1.00  0.00    -0.102 SA
BRANCH  20  21
HETATM   21  C   UNL     1      42.500  -9.921   7.022  1.00  0.00     0.184 C 
BRANCH  21  22
HETATM   22  C   UNL     1      42.171  -9.183   8.324  1.00  0.00     0.231 C 
HETATM   23  N   UNL     1      42.582  -9.846   9.467  1.00  0.00    -0.327 N 
HETATM   24  H   UNL     1      42.935 -10.786   9.315  1.00  0.00     0.169 HD
HETATM   25  O   UNL     1      41.672  -8.061   8.281  1.00  0.00    -0.272 OA
BRANCH  23  26
HETATM   26  C   UNL     1      42.495  -9.434  10.809  1.00  0.00     0.034 A 
HETATM   27  C   UNL     1      43.460  -8.667  11.457  1.00  0.00     0.030 A 
HETATM   28  C   UNL     1      43.290  -8.303  12.798  1.00  0.00     0.009 A 
HETATM   29  C   UNL     1      42.158  -8.712  13.513  1.00  0.00    -0.062 A 
HETATM   30  C   UNL     1      41.959  -8.300  14.941  1.00  0.00     0.048 C 
HETATM   31  C   UNL     1      41.185  -9.471  12.859  1.00  0.00     0.009 A 
HETATM   32  C   UNL     1      41.354  -9.830  11.519  1.00  0.00     0.030 A 
ENDBRANCH  23  26
ENDBRANCH  21  22
ENDBRANCH  20  21
ENDBRANCH   6  20
BRANCH   2  33
HETATM   33  C   UNL     1      42.488 -16.471   5.405  1.00  0.00     0.255 C 
HETATM   34  N   UNL     1      43.622 -17.108   4.949  1.00  0.00    -0.323 N 
HETATM   35  H   UNL     1      44.497 -16.613   5.058  1.00  0.00     0.169 HD
HETATM   36  O   UNL     1      41.350 -16.915   5.475  1.00  0.00    -0.268 OA
BRANCH  34  37
HETATM   37  C   UNL     1      43.703 -18.368   4.322  1.00  0.00     0.035 A 
HETATM   38  C   UNL     1      43.550 -18.570   2.950  1.00  0.00     0.029 A 
HETATM   39  C   UNL     1      43.675 -19.851   2.404  1.00  0.00     0.002 A 
HETATM   40  C   UNL     1      43.959 -20.941   3.224  1.00  0.00     0.000 A 
HETATM   41  C   UNL     1      44.112 -20.751   4.594  1.00  0.00     0.002 A 
HETATM   42  C   UNL     1      43.981 -19.472   5.141  1.00  0.00     0.029 A 
ENDBRANCH  34  37
ENDBRANCH   2  33
TORSDOF 9
ENDMDL
MODEL 4
REMARK VINA RESULT:     -10.1      3.544      5.959
REMARK  9 active torsions:
REMARK  status: ('A' for Active; 'I' for Inactive)
REMARK    1  A    between atoms: C_2  and  O_3 
REMARK    2  A    between atoms: O_3  and  C_4 
REMARK    3  A    between atoms: C_7  and  C_8 
REMARK    4  A    between atoms: C_9  and  C_10 
REMARK       I    between atoms: C_10  and  N_11 
REMARK    5  A    between atoms: N_11  and  C_12 
REMARK    6  A    between atoms: C_22  and  S_23 
REMARK    7  A    between atoms: S_23  and  C_24 
REMARK    8  A    between atoms: C_24  and  C_25 
REMARK       I    between atoms: C_25  and  N_26 
REMARK    9  A    between atoms: N_26  and  C_27 
ROOT
HETATM    1  C   UNL     1      43.131 -14.161   4.291  1.00  0.00     0.106 C 
HETATM    2  C   UNL     1      43.168 -15.136   5.455  1.00  0.00     0.046 C 
HETATM    3  C   UNL     1      42.651 -14.802   6.659  1.00  0.00     0.019 C 
HETATM    4  C   UNL     1      42.730 -15.656   7.899  1.00  0.00     0.069 C 
HETATM    5  N   UNL     1      42.043 -13.566   6.813  1.00  0.00    -0.353 N 
HETATM    6  C   UNL     1      42.138 -12.517   5.910  1.00  0.00     0.088 C 
HETATM    7  C   UNL     1      42.723 -12.738   4.704  1.00  0.00     0.069 C 
HETATM    8  C   UNL     1      42.933 -11.709   3.735  1.00  0.00     0.099 C 
HETATM    9  N   UNL     1      43.131 -10.887   2.941  1.00  0.00    -0.192 NA
HETATM   10  H   UNL     1      41.619 -13.363   7.711  1.00  0.00     0.166 HD
ENDROOT
BRANCH   1  11
HETATM   11  C   UNL     1      42.171 -14.624   3.184  1.00  0.00    -0.044 A 
HETATM   12  C   UNL     1      40.806 -14.839   3.454  1.00  0.00     0.011 A 
HETATM   13  C   UNL     1      39.893 -15.030   2.416  1.00  0.00     0.037 A 
HETATM   14  C   UNL     1      40.331 -14.997   1.093  1.00  0.00     0.068 A 
HETATM   15  C   UNL     1      41.691 -14.878   0.817  1.00  0.00     0.037 A 
HETATM   16  C   UNL     1      42.609 -14.685   1.854  1.00  0.00     0.011 A 
BRANCH  14  17
HETATM   17  O   UNL     1      39.497 -15.076   0.010  1.00  0.00    -0.352 OA
BRANCH  17  18
HETATM   18  C   UNL     1      40.027 -14.471  -1.175  1.00  0.00     0.171 C 
HETATM   19  C   UNL     1      39.019 -14.649  -2.296  1.00  0.00     0.034 C 
ENDBRANCH  17  18
ENDBRANCH  14  17
ENDBRANCH   1  11
BRANCH   6  20
HETATM   20  S   UNL     1      41.388 -10.962   6.220  1.00  0.00    -0.102 SA
BRANCH  20  21
HETATM   21  C   UNL     1      39.630 -11.232   5.850  1.00  0.00     0.184 C 
BRANCH  21  22
HETATM   22  C   UNL     1      39.240 -10.673   4.478  1.00  0.00     0.231 C 
HETATM   23  N   UNL     1      39.312 -11.598   3.450  1.00  0.00    -0.327 N 
HETATM   24  H   UNL     1      39.728 -12.489   3.704  1.00  0.00     0.169 HD
HETATM   25  O   UNL     1      38.818  -9.523   4.384  1.00  0.00    -0.272 OA
BRANCH  23  26
HETATM   26  C   UNL     1      38.973 -11.442   2.095  1.00  0.00     0.034 A 
HETATM   27  C   UNL     1      37.670 -11.466   1.605  1.00  0.00     0.030 A 
HETATM   28  C   UNL     1      37.426 -11.303   0.236  1.00  0.00     0.009 A 
HETATM   29  C   UNL     1      38.484 -11.129  -0.664  1.00  0.00    -0.062 A 
HETATM   30  C   UNL     1      38.225 -10.925  -2.127  1.00  0.00     0.048 C 
HETATM   31  C   UNL     1      39.790 -11.093  -0.170  1.00  0.00     0.009 A 
HETATM   32  C   UNL     1      40.032 -11.251   1.197  1.00  0.00     0.030 A 
ENDBRANCH  23  26
ENDBRANCH  21  22
ENDBRANCH  20  21
ENDBRANCH   6  20
BRANCH   2  33
HETATM   33  C   UNL     1      43.894 -16.410   5.200  1.00  0.00     0.255 C 
HETATM   34  N   UNL     1      43.181 -17.282   4.406  1.00  0.00    -0.323 N 
HETATM   35  H   UNL     1      42.305 -16.944   4.031  1.00  0.00     0.169 HD
HETATM   36  O   UNL     1      45.015 -16.559   5.669  1.00  0.00    -0.268 OA
BRANCH  34  37
HETATM   37  C   UNL     1      43.521 -18.609   4.073  1.00  0.00     0.035 A 
HETATM   38  C   UNL     1      43.861 -19.587   5.008  1.00  0.00     0.029 A 
HETATM   39  C   UNL     1      44.156 -20.891   4.596  1.00  0.00     0.002 A 
HETATM   40  C   UNL     1      44.111 -21.228   3.245  1.00  0.00     0.000 A 
HETATM   41  C   UNL     1      43.775 -20.260   2.303  1.00  0.00     0.002 A 
HETATM   42  C   UNL     1      43.485 -18.956   2.714  1.00  0.00     0.029 A 
ENDBRANCH  34  37
ENDBRANCH   2  33
TORSDOF 9
ENDMDL
MODEL 5
REMARK VINA RESULT:      -9.9      2.626      5.348
REMARK  9 active torsions:
REMARK  status: ('A' for Active; 'I' for Inactive)
REMARK    1  A    between atoms: C_2  and  O_3 
REMARK    2  A    between atoms: O_3  and  C_4 
REMARK    3  A    between atoms: C_7  and  C_8 
REMARK    4  A    between atoms: C_9  and  C_10 
REMARK       I    between atoms: C_10  and  N_11 
REMARK    5  A    between atoms: N_11  and  C_12 
REMARK    6  A    between atoms: C_22  and  S_23 
REMARK    7  A    between atoms: S_23  and  C_24 
REMARK    8  A    between atoms: C_24  and  C_25 
REMARK       I    between atoms: C_25  and  N_26 
REMARK    9  A    between atoms: N_26  and  C_27 
ROOT
HETATM    1  C   UNL     1      41.268 -13.147   4.216  1.00  0.00     0.106 C 
HETATM    2  C   UNL     1      41.661 -13.459   2.782  1.00  0.00     0.046 C 
HETATM    3  C   UNL     1      41.143 -12.758   1.749  1.00  0.00     0.019 C 
HETATM    4  C   UNL     1      41.389 -13.056   0.292  1.00  0.00     0.069 C 
HETATM    5  N   UNL     1      40.272 -11.712   2.014  1.00  0.00    -0.353 N 
HETATM    6  C   UNL     1      39.671 -11.470   3.241  1.00  0.00     0.088 C 
HETATM    7  C   UNL     1      40.068 -12.192   4.321  1.00  0.00     0.069 C 
HETATM    8  C   UNL     1      39.463 -12.070   5.610  1.00  0.00     0.099 C 
HETATM    9  N   UNL     1      38.976 -12.001   6.661  1.00  0.00    -0.192 NA
HETATM   10  H   UNL     1      39.939 -11.171   1.224  1.00  0.00     0.166 HD
ENDROOT
BRANCH   1  11
HETATM   11  C   UNL     1      42.432 -12.531   5.009  1.00  0.00    -0.044 A 
HETATM   12  C   UNL     1      42.847 -13.088   6.234  1.00  0.00     0.011 A 
HETATM   13  C   UNL     1      44.039 -12.681   6.836  1.00  0.00     0.037 A 
HETATM   14  C   UNL     1      44.837 -11.722   6.215  1.00  0.00     0.068 A 
HETATM   15  C   UNL     1      44.392 -11.099   5.051  1.00  0.00     0.037 A 
HETATM   16  C   UNL     1      43.200 -11.503   4.444  1.00  0.00     0.011 A 
BRANCH  14  17
HETATM   17  O   UNL     1      46.066 -11.335   6.678  1.00  0.00    -0.352 OA
BRANCH  17  18
HETATM   18  C   UNL     1      46.040 -10.779   7.998  1.00  0.00     0.171 C 
HETATM   19  C   UNL     1      46.309  -9.289   7.896  1.00  0.00     0.034 C 
ENDBRANCH  17  18
ENDBRANCH  14  17
ENDBRANCH   1  11
BRANCH   6  20
HETATM   20  S   UNL     1      38.527 -10.159   3.466  1.00  0.00    -0.102 SA
BRANCH  20  21
HETATM   21  C   UNL     1      39.572  -8.693   3.708  1.00  0.00     0.184 C 
BRANCH  21  22
HETATM   22  C   UNL     1      39.874  -8.441   5.189  1.00  0.00     0.231 C 
HETATM   23  N   UNL     1      41.174  -8.740   5.558  1.00  0.00    -0.327 N 
HETATM   24  H   UNL     1      41.728  -9.200   4.843  1.00  0.00     0.169 HD
HETATM   25  O   UNL     1      39.020  -7.928   5.907  1.00  0.00    -0.272 OA
BRANCH  23  26
HETATM   26  C   UNL     1      41.799  -8.575   6.807  1.00  0.00     0.034 A 
HETATM   27  C   UNL     1      42.247  -7.353   7.303  1.00  0.00     0.030 A 
HETATM   28  C   UNL     1      42.861  -7.283   8.561  1.00  0.00     0.009 A 
HETATM   29  C   UNL     1      43.046  -8.437   9.331  1.00  0.00    -0.062 A 
HETATM   30  C   UNL     1      43.676  -8.361  10.690  1.00  0.00     0.048 C 
HETATM   31  C   UNL     1      42.586  -9.659   8.837  1.00  0.00     0.009 A 
HETATM   32  C   UNL     1      41.969  -9.727   7.585  1.00  0.00     0.030 A 
ENDBRANCH  23  26
ENDBRANCH  21  22
ENDBRANCH  20  21
ENDBRANCH   6  20
BRANCH   2  33
HETATM   33  C   UNL     1      42.555 -14.637   2.606  1.00  0.00     0.255 C 
HETATM   34  N   UNL     1      42.062 -15.776   3.206  1.00  0.00    -0.323 N 
HETATM   35  H   UNL     1      41.141 -15.711   3.619  1.00  0.00     0.169 HD
HETATM   36  O   UNL     1      43.584 -14.510   1.957  1.00  0.00    -0.268 OA
BRANCH  34  37
HETATM   37  C   UNL     1      42.706 -17.024   3.332  1.00  0.00     0.035 A 
HETATM   38  C   UNL     1      42.790 -17.967   2.307  1.00  0.00     0.029 A 
HETATM   39  C   UNL     1      43.476 -19.170   2.506  1.00  0.00     0.002 A 
HETATM   40  C   UNL     1      44.086 -19.438   3.728  1.00  0.00     0.000 A 
HETATM   41  C   UNL     1      44.008 -18.505   4.758  1.00  0.00     0.002 A 
HETATM   42  C   UNL     1      43.319 -17.305   4.562  1.00  0.00     0.029 A 
ENDBRANCH  34  37
ENDBRANCH   2  33
TORSDOF 9
ENDMDL
MODEL 6
REMARK VINA RESULT:      -9.6      4.057      8.370
REMARK  9 active torsions:
REMARK  status: ('A' for Active; 'I' for Inactive)
REMARK    1  A    between atoms: C_2  and  O_3 
REMARK    2  A    between atoms: O_3  and  C_4 
REMARK    3  A    between atoms: C_7  and  C_8 
REMARK    4  A    between atoms: C_9  and  C_10 
REMARK       I    between atoms: C_10  and  N_11 
REMARK    5  A    between atoms: N_11  and  C_12 
REMARK    6  A    between atoms: C_22  and  S_23 
REMARK    7  A    between atoms: S_23  and  C_24 
REMARK    8  A    between atoms: C_24  and  C_25 
REMARK       I    between atoms: C_25  and  N_26 
REMARK    9  A    between atoms: N_26  and  C_27 
ROOT
HETATM    1  C   UNL     1      40.730 -13.403   4.593  1.00  0.00     0.106 C 
HETATM    2  C   UNL     1      40.740 -14.397   3.443  1.00  0.00     0.046 C 
HETATM    3  C   UNL     1      40.326 -14.036   2.208  1.00  0.00     0.019 C 
HETATM    4  C   UNL     1      40.201 -14.971   1.032  1.00  0.00     0.069 C 
HETATM    5  N   UNL     1      39.927 -12.727   1.986  1.00  0.00    -0.353 N 
HETATM    6  C   UNL     1      39.665 -11.797   2.982  1.00  0.00     0.088 C 
HETATM    7  C   UNL     1      39.969 -12.108   4.268  1.00  0.00     0.069 C 
HETATM    8  C   UNL     1      39.674 -11.250   5.373  1.00  0.00     0.099 C 
HETATM    9  N   UNL     1      39.427 -10.579   6.286  1.00  0.00    -0.192 NA
HETATM   10  H   UNL     1      39.670 -12.471   1.039  1.00  0.00     0.166 HD
ENDROOT
BRANCH   1  11
HETATM   11  C   UNL     1      42.153 -13.017   5.030  1.00  0.00    -0.044 A 
HETATM   12  C   UNL     1      42.930 -12.130   4.261  1.00  0.00     0.011 A 
HETATM   13  C   UNL     1      44.117 -11.598   4.767  1.00  0.00     0.037 A 
HETATM   14  C   UNL     1      44.537 -11.937   6.052  1.00  0.00     0.068 A 
HETATM   15  C   UNL     1      43.825 -12.884   6.786  1.00  0.00     0.037 A 
HETATM   16  C   UNL     1      42.635 -13.418   6.284  1.00  0.00     0.011 A 
BRANCH  14  17
HETATM   17  O   UNL     1      45.631 -11.391   6.667  1.00  0.00    -0.352 OA
BRANCH  17  18
HETATM   18  C   UNL     1      45.332 -10.729   7.902  1.00  0.00     0.171 C 
HETATM   19  C   UNL     1      46.194  -9.484   7.999  1.00  0.00     0.034 C 
ENDBRANCH  17  18
ENDBRANCH  14  17
ENDBRANCH   1  11
BRANCH   6  20
HETATM   20  S   UNL     1      39.099 -10.179   2.608  1.00  0.00    -0.102 SA
BRANCH  20  21
HETATM   21  C   UNL     1      40.614  -9.178   2.549  1.00  0.00     0.184 C 
BRANCH  21  22
HETATM   22  C   UNL     1      40.705  -8.350   1.263  1.00  0.00     0.231 C 
HETATM   23  N   UNL     1      41.741  -8.722   0.424  1.00  0.00    -0.327 N 
HETATM   24  H   UNL     1      42.382  -9.407   0.812  1.00  0.00     0.169 HD
HETATM   25  O   UNL     1      39.845  -7.507   1.017  1.00  0.00    -0.272 OA
BRANCH  23  26
HETATM   26  C   UNL     1      42.074  -8.220  -0.847  1.00  0.00     0.034 A 
HETATM   27  C   UNL     1      43.005  -7.210  -1.071  1.00  0.00     0.030 A 
HETATM   28  C   UNL     1      43.273  -6.771  -2.374  1.00  0.00     0.009 A 
HETATM   29  C   UNL     1      42.603  -7.329  -3.468  1.00  0.00    -0.062 A 
HETATM   30  C   UNL     1      42.908  -6.883  -4.867  1.00  0.00     0.048 C 
HETATM   31  C   UNL     1      41.678  -8.351  -3.244  1.00  0.00     0.009 A 
HETATM   32  C   UNL     1      41.415  -8.791  -1.944  1.00  0.00     0.030 A 
ENDBRANCH  23  26
ENDBRANCH  21  22
ENDBRANCH  20  21
ENDBRANCH   6  20
BRANCH   2  33
HETATM   33  C   UNL     1      41.130 -15.787   3.803  1.00  0.00     0.255 C 
HETATM   34  N   UNL     1      42.356 -16.149   3.286  1.00  0.00    -0.323 N 
HETATM   35  H   UNL     1      42.876 -15.430   2.802  1.00  0.00     0.169 HD
HETATM   36  O   UNL     1      40.384 -16.450   4.510  1.00  0.00    -0.268 OA
BRANCH  34  37
HETATM   37  C   UNL     1      42.964 -17.421   3.336  1.00  0.00     0.035 A 
HETATM   38  C   UNL     1      43.721 -17.884   4.413  1.00  0.00     0.029 A 
HETATM   39  C   UNL     1      44.264 -19.173   4.395  1.00  0.00     0.002 A 
HETATM   40  C   UNL     1      44.052 -20.010   3.303  1.00  0.00     0.000 A 
HETATM   41  C   UNL     1      43.300 -19.558   2.223  1.00  0.00     0.002 A 
HETATM   42  C   UNL     1      42.760 -18.269   2.237  1.00  0.00     0.029 A 
ENDBRANCH  34  37
ENDBRANCH   2  33
TORSDOF 9
ENDMDL
MODEL 7
REMARK VINA RESULT:      -9.6      1.912      5.555
REMARK  9 active torsions:
REMARK  status: ('A' for Active; 'I' for Inactive)
REMARK    1  A    between atoms: C_2  and  O_3 
REMARK    2  A    between atoms: O_3  and  C_4 
REMARK    3  A    between atoms: C_7  and  C_8 
REMARK    4  A    between atoms: C_9  and  C_10 
REMARK       I    between atoms: C_10  and  N_11 
REMARK    5  A    between atoms: N_11  and  C_12 
REMARK    6  A    between atoms: C_22  and  S_23 
REMARK    7  A    between atoms: S_23  and  C_24 
REMARK    8  A    between atoms: C_24  and  C_25 
REMARK       I    between atoms: C_25  and  N_26 
REMARK    9  A    between atoms: N_26  and  C_27 
ROOT
HETATM    1  C   UNL     1      41.056 -13.790   4.058  1.00  0.00     0.106 C 
HETATM    2  C   UNL     1      40.820 -12.593   3.151  1.00  0.00     0.046 C 
HETATM    3  C   UNL     1      41.509 -11.443   3.323  1.00  0.00     0.019 C 
HETATM    4  C   UNL     1      41.276 -10.173   2.545  1.00  0.00     0.069 C 
HETATM    5  N   UNL     1      42.474 -11.377   4.316  1.00  0.00    -0.353 N 
HETATM    6  C   UNL     1      42.629 -12.305   5.336  1.00  0.00     0.088 C 
HETATM    7  C   UNL     1      41.908 -13.455   5.292  1.00  0.00     0.069 C 
HETATM    8  C   UNL     1      41.942 -14.441   6.327  1.00  0.00     0.099 C 
HETATM    9  N   UNL     1      41.939 -15.245   7.163  1.00  0.00    -0.192 NA
HETATM   10  H   UNL     1      43.010 -10.520   4.389  1.00  0.00     0.166 HD
ENDROOT
BRANCH   1  11
HETATM   11  C   UNL     1      41.738 -14.948   3.313  1.00  0.00    -0.044 A 
HETATM   12  C   UNL     1      42.857 -14.720   2.490  1.00  0.00     0.011 A 
HETATM   13  C   UNL     1      43.615 -15.785   2.003  1.00  0.00     0.037 A 
HETATM   14  C   UNL     1      43.272 -17.093   2.343  1.00  0.00     0.068 A 
HETATM   15  C   UNL     1      42.115 -17.336   3.080  1.00  0.00     0.037 A 
HETATM   16  C   UNL     1      41.353 -16.272   3.570  1.00  0.00     0.011 A 
BRANCH  14  17
HETATM   17  O   UNL     1      44.012 -18.192   1.996  1.00  0.00    -0.352 OA
BRANCH  17  18
HETATM   18  C   UNL     1      43.740 -19.350   2.794  1.00  0.00     0.171 C 
HETATM   19  C   UNL     1      43.504 -20.527   1.865  1.00  0.00     0.034 C 
ENDBRANCH  17  18
ENDBRANCH  14  17
ENDBRANCH   1  11
BRANCH   6  20
HETATM   20  S   UNL     1      43.837 -12.104   6.591  1.00  0.00    -0.102 SA
BRANCH  20  21
HETATM   21  C   UNL     1      43.532 -10.434   7.241  1.00  0.00     0.184 C 
BRANCH  21  22
HETATM   22  C   UNL     1      43.611 -10.390   8.770  1.00  0.00     0.231 C 
HETATM   23  N   UNL     1      42.668  -9.567   9.360  1.00  0.00    -0.327 N 
HETATM   24  H   UNL     1      42.125  -9.004   8.713  1.00  0.00     0.169 HD
HETATM   25  O   UNL     1      44.404 -11.119   9.362  1.00  0.00    -0.272 OA
BRANCH  23  26
HETATM   26  C   UNL     1      42.422  -9.341  10.726  1.00  0.00     0.034 A 
HETATM   27  C   UNL     1      41.315  -9.831  11.414  1.00  0.00     0.030 A 
HETATM   28  C   UNL     1      41.150  -9.554  12.777  1.00  0.00     0.009 A 
HETATM   29  C   UNL     1      42.084  -8.771  13.466  1.00  0.00    -0.062 A 
HETATM   30  C   UNL     1      41.926  -8.497  14.932  1.00  0.00     0.048 C 
HETATM   31  C   UNL     1      43.199  -8.290  12.777  1.00  0.00     0.009 A 
HETATM   32  C   UNL     1      43.365  -8.571  11.419  1.00  0.00     0.030 A 
ENDBRANCH  23  26
ENDBRANCH  21  22
ENDBRANCH  20  21
ENDBRANCH   6  20
BRANCH   2  33
HETATM   33  C   UNL     1      39.724 -12.751   2.157  1.00  0.00     0.255 C 
HETATM   34  N   UNL     1      40.188 -13.029   0.889  1.00  0.00    -0.323 N 
HETATM   35  H   UNL     1      41.184 -13.169   0.789  1.00  0.00     0.169 HD
HETATM   36  O   UNL     1      38.563 -12.651   2.531  1.00  0.00    -0.268 OA
BRANCH  34  37
HETATM   37  C   UNL     1      39.432 -13.119  -0.298  1.00  0.00     0.035 A 
HETATM   38  C   UNL     1      39.423 -14.235  -1.136  1.00  0.00     0.029 A 
HETATM   39  C   UNL     1      38.620 -14.255  -2.281  1.00  0.00     0.002 A 
HETATM   40  C   UNL     1      37.816 -13.162  -2.596  1.00  0.00     0.000 A 
HETATM   41  C   UNL     1      37.819 -12.043  -1.768  1.00  0.00     0.002 A 
HETATM   42  C   UNL     1      38.625 -12.020  -0.626  1.00  0.00     0.029 A 
ENDBRANCH  34  37
ENDBRANCH   2  33
TORSDOF 9
ENDMDL
MODEL 8
REMARK VINA RESULT:      -8.8      3.337      5.553
REMARK  9 active torsions:
REMARK  status: ('A' for Active; 'I' for Inactive)
REMARK    1  A    between atoms: C_2  and  O_3 
REMARK    2  A    between atoms: O_3  and  C_4 
REMARK    3  A    between atoms: C_7  and  C_8 
REMARK    4  A    between atoms: C_9  and  C_10 
REMARK       I    between atoms: C_10  and  N_11 
REMARK    5  A    between atoms: N_11  and  C_12 
REMARK    6  A    between atoms: C_22  and  S_23 
REMARK    7  A    between atoms: S_23  and  C_24 
REMARK    8  A    between atoms: C_24  and  C_25 
REMARK       I    between atoms: C_25  and  N_26 
REMARK    9  A    between atoms: N_26  and  C_27 
ROOT
HETATM    1  C   UNL     1      42.918 -13.855   4.233  1.00  0.00     0.106 C 
HETATM    2  C   UNL     1      41.902 -14.763   4.905  1.00  0.00     0.046 C 
HETATM    3  C   UNL     1      41.198 -14.345   5.980  1.00  0.00     0.019 C 
HETATM    4  C   UNL     1      40.246 -15.202   6.775  1.00  0.00     0.069 C 
HETATM    5  N   UNL     1      41.380 -13.052   6.444  1.00  0.00    -0.353 N 
HETATM    6  C   UNL     1      42.418 -12.211   6.066  1.00  0.00     0.088 C 
HETATM    7  C   UNL     1      43.234 -12.591   5.049  1.00  0.00     0.069 C 
HETATM    8  C   UNL     1      44.371 -11.832   4.632  1.00  0.00     0.099 C 
HETATM    9  N   UNL     1      45.310 -11.243   4.288  1.00  0.00    -0.192 NA
HETATM   10  H   UNL     1      40.802 -12.748   7.220  1.00  0.00     0.166 HD
ENDROOT
BRANCH   1  11
HETATM   11  C   UNL     1      42.456 -13.411   2.836  1.00  0.00    -0.044 A 
HETATM   12  C   UNL     1      42.150 -14.358   1.840  1.00  0.00     0.011 A 
HETATM   13  C   UNL     1      41.513 -13.974   0.660  1.00  0.00     0.037 A 
HETATM   14  C   UNL     1      41.160 -12.639   0.464  1.00  0.00     0.068 A 
HETATM   15  C   UNL     1      41.539 -11.679   1.401  1.00  0.00     0.037 A 
HETATM   16  C   UNL     1      42.177 -12.060   2.585  1.00  0.00     0.011 A 
BRANCH  14  17
HETATM   17  O   UNL     1      40.447 -12.187  -0.613  1.00  0.00    -0.352 OA
BRANCH  17  18
HETATM   18  C   UNL     1      40.142 -13.204  -1.575  1.00  0.00     0.171 C 
HETATM   19  C   UNL     1      38.635 -13.378  -1.625  1.00  0.00     0.034 C 
ENDBRANCH  17  18
ENDBRANCH  14  17
ENDBRANCH   1  11
BRANCH   6  20
HETATM   20  S   UNL     1      42.608 -10.611   6.758  1.00  0.00    -0.102 SA
BRANCH  20  21
HETATM   21  C   UNL     1      40.993  -9.819   6.503  1.00  0.00     0.184 C 
BRANCH  21  22
HETATM   22  C   UNL     1      40.649  -9.681   5.017  1.00  0.00     0.231 C 
HETATM   23  N   UNL     1      39.394 -10.159   4.681  1.00  0.00    -0.327 N 
HETATM   24  H   UNL     1      38.908 -10.648   5.426  1.00  0.00     0.169 HD
HETATM   25  O   UNL     1      41.427  -9.102   4.261  1.00  0.00    -0.272 OA
BRANCH  23  26
HETATM   26  C   UNL     1      38.743 -10.136   3.435  1.00  0.00     0.034 A 
HETATM   27  C   UNL     1      38.366  -8.972   2.770  1.00  0.00     0.030 A 
HETATM   28  C   UNL     1      37.718  -9.045   1.530  1.00  0.00     0.009 A 
HETATM   29  C   UNL     1      37.428 -10.284   0.946  1.00  0.00    -0.062 A 
HETATM   30  C   UNL     1      36.762 -10.365  -0.395  1.00  0.00     0.048 C 
HETATM   31  C   UNL     1      37.818 -11.450   1.609  1.00  0.00     0.009 A 
HETATM   32  C   UNL     1      38.468 -11.376   2.843  1.00  0.00     0.030 A 
ENDBRANCH  23  26
ENDBRANCH  21  22
ENDBRANCH  20  21
ENDBRANCH   6  20
BRANCH   2  33
HETATM   33  C   UNL     1      41.827 -16.148   4.364  1.00  0.00     0.255 C 
HETATM   34  N   UNL     1      43.023 -16.826   4.464  1.00  0.00    -0.323 N 
HETATM   35  H   UNL     1      43.775 -16.355   4.948  1.00  0.00     0.169 HD
HETATM   36  O   UNL     1      40.761 -16.557   3.923  1.00  0.00    -0.268 OA
BRANCH  34  37
HETATM   37  C   UNL     1      43.329 -18.101   3.945  1.00  0.00     0.035 A 
HETATM   38  C   UNL     1      43.837 -19.154   4.708  1.00  0.00     0.029 A 
HETATM   39  C   UNL     1      44.085 -20.399   4.121  1.00  0.00     0.002 A 
HETATM   40  C   UNL     1      43.824 -20.603   2.769  1.00  0.00     0.000 A 
HETATM   41  C   UNL     1      43.319 -19.561   1.998  1.00  0.00     0.002 A 
HETATM   42  C   UNL     1      43.075 -18.315   2.582  1.00  0.00     0.029 A 
ENDBRANCH  34  37
ENDBRANCH   2  33
TORSDOF 9
ENDMDL
MODEL 9
REMARK VINA RESULT:      -8.6      3.214     11.742
REMARK  9 active torsions:
REMARK  status: ('A' for Active; 'I' for Inactive)
REMARK    1  A    between atoms: C_2  and  O_3 
REMARK    2  A    between atoms: O_3  and  C_4 
REMARK    3  A    between atoms: C_7  and  C_8 
REMARK    4  A    between atoms: C_9  and  C_10 
REMARK       I    between atoms: C_10  and  N_11 
REMARK    5  A    between atoms: N_11  and  C_12 
REMARK    6  A    between atoms: C_22  and  S_23 
REMARK    7  A    between atoms: S_23  and  C_24 
REMARK    8  A    between atoms: C_24  and  C_25 
REMARK       I    between atoms: C_25  and  N_26 
REMARK    9  A    between atoms: N_26  and  C_27 
ROOT
HETATM    1  C   UNL     1      43.086  -8.736   7.883  1.00  0.00     0.106 C 
HETATM    2  C   UNL     1      41.923  -8.170   7.085  1.00  0.00     0.046 C 
HETATM    3  C   UNL     1      41.205  -8.953   6.250  1.00  0.00     0.019 C 
HETATM    4  C   UNL     1      40.104  -8.466   5.343  1.00  0.00     0.069 C 
HETATM    5  N   UNL     1      41.512 -10.302   6.159  1.00  0.00    -0.353 N 
HETATM    6  C   UNL     1      42.668 -10.888   6.655  1.00  0.00     0.088 C 
HETATM    7  C   UNL     1      43.498 -10.147   7.435  1.00  0.00     0.069 C 
HETATM    8  C   UNL     1      44.745 -10.634   7.935  1.00  0.00     0.099 C 
HETATM    9  N   UNL     1      45.770 -11.002   8.337  1.00  0.00    -0.192 NA
HETATM   10  H   UNL     1      40.925 -10.876   5.564  1.00  0.00     0.166 HD
ENDROOT
BRANCH   1  11
HETATM   11  C   UNL     1      42.776  -8.791   9.388  1.00  0.00    -0.044 A 
HETATM   12  C   UNL     1      41.611  -9.422   9.864  1.00  0.00     0.011 A 
HETATM   13  C   UNL     1      41.443  -9.678  11.225  1.00  0.00     0.037 A 
HETATM   14  C   UNL     1      42.443  -9.319  12.127  1.00  0.00     0.068 A 
HETATM   15  C   UNL     1      43.558  -8.613  11.680  1.00  0.00     0.037 A 
HETATM   16  C   UNL     1      43.730  -8.355  10.317  1.00  0.00     0.011 A 
BRANCH  14  17
HETATM   17  O   UNL     1      42.410  -9.618  13.463  1.00  0.00    -0.352 OA
BRANCH  17  18
HETATM   18  C   UNL     1      41.393  -8.920  14.190  1.00  0.00     0.171 C 
HETATM   19  C   UNL     1      42.044  -7.776  14.947  1.00  0.00     0.034 C 
ENDBRANCH  17  18
ENDBRANCH  14  17
ENDBRANCH   1  11
BRANCH   6  20
HETATM   20  S   UNL     1      43.006 -12.595   6.434  1.00  0.00    -0.102 SA
BRANCH  20  21
HETATM   21  C   UNL     1      41.389 -13.322   6.035  1.00  0.00     0.184 C 
BRANCH  21  22
HETATM   22  C   UNL     1      41.503 -14.801   5.653  1.00  0.00     0.231 C 
HETATM   23  N   UNL     1      42.428 -15.056   4.655  1.00  0.00    -0.327 N 
HETATM   24  H   UNL     1      42.825 -14.231   4.216  1.00  0.00     0.169 HD
HETATM   25  O   UNL     1      40.870 -15.645   6.282  1.00  0.00    -0.272 OA
BRANCH  23  26
HETATM   26  C   UNL     1      42.824 -16.291   4.111  1.00  0.00     0.034 A 
HETATM   27  C   UNL     1      43.730 -17.159   4.715  1.00  0.00     0.030 A 
HETATM   28  C   UNL     1      44.068 -18.370   4.098  1.00  0.00     0.009 A 
HETATM   29  C   UNL     1      43.513 -18.722   2.862  1.00  0.00    -0.062 A 
HETATM   30  C   UNL     1      43.850 -20.031   2.212  1.00  0.00     0.048 C 
HETATM   31  C   UNL     1      42.596 -17.856   2.263  1.00  0.00     0.009 A 
HETATM   32  C   UNL     1      42.256 -16.650   2.882  1.00  0.00     0.030 A 
ENDBRANCH  23  26
ENDBRANCH  21  22
ENDBRANCH  20  21
ENDBRANCH   6  20
BRANCH   2  33
HETATM   33  C   UNL     1      41.716  -6.702   7.213  1.00  0.00     0.255 C 
HETATM   34  N   UNL     1      40.816  -6.373   8.204  1.00  0.00    -0.323 N 
HETATM   35  H   UNL     1      40.466  -7.133   8.771  1.00  0.00     0.169 HD
HETATM   36  O   UNL     1      42.345  -5.947   6.484  1.00  0.00    -0.268 OA
BRANCH  34  37
HETATM   37  C   UNL     1      40.306  -5.093   8.507  1.00  0.00     0.035 A 
HETATM   38  C   UNL     1      40.874  -4.228   9.443  1.00  0.00     0.029 A 
HETATM   39  C   UNL     1      40.323  -2.961   9.662  1.00  0.00     0.002 A 
HETATM   40  C   UNL     1      39.203  -2.548   8.946  1.00  0.00     0.000 A 
HETATM   41  C   UNL     1      38.627  -3.404   8.012  1.00  0.00     0.002 A 
HETATM   42  C   UNL     1      39.174  -4.672   7.795  1.00  0.00     0.029 A 
ENDBRANCH  34  37
ENDBRANCH   2  33
TORSDOF 9
ENDMDL
MODEL 10
REMARK VINA RESULT:      -8.4      2.034      2.315
REMARK  9 active torsions:
REMARK  status: ('A' for Active; 'I' for Inactive)
REMARK    1  A    between atoms: C_2  and  O_3 
REMARK    2  A    between atoms: O_3  and  C_4 
REMARK    3  A    between atoms: C_7  and  C_8 
REMARK    4  A    between atoms: C_9  and  C_10 
REMARK       I    between atoms: C_10  and  N_11 
REMARK    5  A    between atoms: N_11  and  C_12 
REMARK    6  A    between atoms: C_22  and  S_23 
REMARK    7  A    between atoms: S_23  and  C_24 
REMARK    8  A    between atoms: C_24  and  C_25 
REMARK       I    between atoms: C_25  and  N_26 
REMARK    9  A    between atoms: N_26  and  C_27 
ROOT
HETATM    1  C   UNL     1      41.478 -12.811   3.925  1.00  0.00     0.106 C 
HETATM    2  C   UNL     1      41.421 -14.045   4.810  1.00  0.00     0.046 C 
HETATM    3  C   UNL     1      40.486 -14.164   5.779  1.00  0.00     0.019 C 
HETATM    4  C   UNL     1      40.411 -15.296   6.771  1.00  0.00     0.069 C 
HETATM    5  N   UNL     1      39.542 -13.160   5.932  1.00  0.00    -0.353 N 
HETATM    6  C   UNL     1      39.617 -11.904   5.348  1.00  0.00     0.088 C 
HETATM    7  C   UNL     1      40.584 -11.665   4.424  1.00  0.00     0.069 C 
HETATM    8  C   UNL     1      40.789 -10.387   3.818  1.00  0.00     0.099 C 
HETATM    9  N   UNL     1      40.987  -9.355   3.326  1.00  0.00    -0.192 NA
HETATM   10  H   UNL     1      38.822 -13.299   6.632  1.00  0.00     0.166 HD
ENDROOT
BRANCH   1  11
HETATM   11  C   UNL     1      41.076 -13.126   2.475  1.00  0.00    -0.044 A 
HETATM   12  C   UNL     1      39.977 -13.960   2.195  1.00  0.00     0.011 A 
HETATM   13  C   UNL     1      39.468 -14.061   0.899  1.00  0.00     0.037 A 
HETATM   14  C   UNL     1      40.043 -13.319  -0.132  1.00  0.00     0.068 A 
HETATM   15  C   UNL     1      41.186 -12.561   0.116  1.00  0.00     0.037 A 
HETATM   16  C   UNL     1      41.699 -12.457   1.412  1.00  0.00     0.011 A 
BRANCH  14  17
HETATM   17  O   UNL     1      39.552 -13.276  -1.409  1.00  0.00    -0.352 OA
BRANCH  17  18
HETATM   18  C   UNL     1      39.286 -14.566  -1.971  1.00  0.00     0.171 C 
HETATM   19  C   UNL     1      38.323 -14.393  -3.132  1.00  0.00     0.034 C 
ENDBRANCH  17  18
ENDBRANCH  14  17
ENDBRANCH   1  11
BRANCH   6  20
HETATM   20  S   UNL     1      38.407 -10.671   5.653  1.00  0.00    -0.102 SA
BRANCH  20  21
HETATM   21  C   UNL     1      39.305  -9.381   6.566  1.00  0.00     0.184 C 
BRANCH  21  22
HETATM   22  C   UNL     1      39.422  -9.710   8.057  1.00  0.00     0.231 C 
HETATM   23  N   UNL     1      40.302  -8.894   8.748  1.00  0.00    -0.327 N 
HETATM   24  H   UNL     1      40.849  -8.266   8.167  1.00  0.00     0.169 HD
HETATM   25  O   UNL     1      38.700 -10.573   8.551  1.00  0.00    -0.272 OA
BRANCH  23  26
HETATM   26  C   UNL     1      40.603  -8.880  10.121  1.00  0.00     0.034 A 
HETATM   27  C   UNL     1      39.722  -8.453  11.111  1.00  0.00     0.030 A 
HETATM   28  C   UNL     1      40.109  -8.472  12.457  1.00  0.00     0.009 A 
HETATM   29  C   UNL     1      41.386  -8.905  12.828  1.00  0.00    -0.062 A 
HETATM   30  C   UNL     1      41.793  -8.955  14.271  1.00  0.00     0.048 C 
HETATM   31  C   UNL     1      42.265  -9.345  11.836  1.00  0.00     0.009 A 
HETATM   32  C   UNL     1      41.876  -9.330  10.493  1.00  0.00     0.030 A 
ENDBRANCH  23  26
ENDBRANCH  21  22
ENDBRANCH  20  21
ENDBRANCH   6  20
BRANCH   2  33
HETATM   33  C   UNL     1      42.514 -15.033   4.600  1.00  0.00     0.255 C 
HETATM   34  N   UNL     1      42.075 -16.199   4.012  1.00  0.00    -0.323 N 
HETATM   35  H   UNL     1      41.106 -16.227   3.724  1.00  0.00     0.169 HD
HETATM   36  O   UNL     1      43.656 -14.735   4.926  1.00  0.00    -0.268 OA
BRANCH  34  37
HETATM   37  C   UNL     1      42.819 -17.375   3.783  1.00  0.00     0.035 A 
HETATM   38  C   UNL     1      43.617 -17.995   4.746  1.00  0.00     0.029 A 
HETATM   39  C   UNL     1      44.299 -19.178   4.447  1.00  0.00     0.002 A 
HETATM   40  C   UNL     1      44.186 -19.755   3.184  1.00  0.00     0.000 A 
HETATM   41  C   UNL     1      43.395 -19.145   2.216  1.00  0.00     0.002 A 
HETATM   42  C   UNL     1      42.716 -17.959   2.512  1.00  0.00     0.029 A 
ENDBRANCH  34  37
ENDBRANCH   2  33
TORSDOF 9
ENDMDL
