MODEL 1
REMARK VINA RESULT:      -9.5      0.000      0.000
REMARK  7 active torsions:
REMARK  status: ('A' for Active; 'I' for Inactive)
REMARK    1  A    between atoms: O_2  and  C_3 
REMARK    2  A    between atoms: C_5  and  N_6 
REMARK    3  A    between atoms: C_7  and  C_9 
REMARK    4  A    between atoms: C_7  and  O_8 
REMARK       I    between atoms: C_9  and  N_10 
REMARK    5  A    between atoms: N_10  and  C_11 
REMARK    6  A    between atoms: C_11  and  C_12 
REMARK    7  A    between atoms: C_12  and  C_13 
ROOT
HETATM    1  N   UNL     1      43.203 -12.461   5.021  1.00  0.00    -0.254 N 
HETATM    2  C   UNL     1      42.182 -13.513   5.257  1.00  0.00     0.256 C 
HETATM    3  C   UNL     1      41.759 -14.306   4.039  1.00  0.00     0.034 A 
HETATM    4  C   UNL     1      42.280 -13.984   2.800  1.00  0.00     0.048 A 
HETATM    5  N   UNL     1      43.146 -12.913   2.703  1.00  0.00    -0.308 N 
HETATM    6  C   UNL     1      43.575 -12.125   3.724  1.00  0.00     0.330 C 
HETATM    7  O   UNL     1      44.275 -11.167   3.393  1.00  0.00    -0.246 OA
HETATM    8  C   UNL     1      40.829 -15.359   4.120  1.00  0.00     0.015 A 
HETATM    9  C   UNL     1      40.465 -16.080   2.982  1.00  0.00     0.001 A 
HETATM   10  C   UNL     1      41.020 -15.752   1.748  1.00  0.00     0.002 A 
HETATM   11  C   UNL     1      41.923 -14.696   1.653  1.00  0.00     0.030 A 
HETATM   12  H   UNL     1      43.472 -12.616   1.793  1.00  0.00     0.170 HD
ENDROOT
BRANCH   2  13
HETATM   13  C   UNL     1      42.792 -14.573   6.297  1.00  0.00     0.279 C 
HETATM   14  N   UNL     1      43.814 -15.367   5.794  1.00  0.00    -0.356 N 
HETATM   15  H   UNL     1      44.086 -15.251   4.825  1.00  0.00     0.162 HD
HETATM   16  O   UNL     1      42.354 -14.720   7.439  1.00  0.00    -0.268 OA
BRANCH  14  17
HETATM   17  C   UNL     1      44.510 -16.352   6.598  1.00  0.00     0.127 C 
BRANCH  17  18
HETATM   18  C   UNL     1      43.832 -17.728   6.657  1.00  0.00     0.058 C 
BRANCH  18  19
HETATM   19  C   UNL     1      43.817 -18.486   5.350  1.00  0.00    -0.057 A 
HETATM   20  C   UNL     1      43.985 -19.877   5.314  1.00  0.00     0.009 A 
HETATM   21  C   UNL     1      43.950 -20.564   4.098  1.00  0.00     0.024 A 
HETATM   22  C   UNL     1      43.738 -19.864   2.912  1.00  0.00     0.034 A 
HETATM   23 CL   UNL     1      43.695 -20.709   1.414  1.00  0.00    -0.084 Cl
HETATM   24  C   UNL     1      43.554 -18.485   2.932  1.00  0.00     0.024 A 
HETATM   25  C   UNL     1      43.594 -17.799   4.147  1.00  0.00     0.009 A 
ENDBRANCH  18  19
ENDBRANCH  17  18
ENDBRANCH  14  17
ENDBRANCH   2  13
BRANCH   2  26
HETATM   26  O   UNL     1      40.990 -12.851   5.652  1.00  0.00    -0.359 OA
HETATM   27  H   UNL     1      41.120 -11.925   5.397  1.00  0.00     0.213 HD
ENDBRANCH   2  26
BRANCH   1  28
HETATM   28  C   UNL     1      43.782 -11.760   6.173  1.00  0.00     0.045 A 
HETATM   29  C   UNL     1      42.998 -10.947   7.017  1.00  0.00     0.066 A 
HETATM   30  C   UNL     1      43.536 -10.283   8.130  1.00  0.00     0.070 A 
HETATM   31  C   UNL     1      44.897 -10.385   8.397  1.00  0.00     0.037 A 
HETATM   32  C   UNL     1      45.706 -11.155   7.574  1.00  0.00     0.005 A 
HETATM   33  C   UNL     1      45.155 -11.833   6.480  1.00  0.00     0.030 A 
BRANCH  30  34
HETATM   34  O   UNL     1      42.840  -9.491   9.002  1.00  0.00    -0.356 OA
HETATM   35  C   UNL     1      43.591  -8.882  10.047  1.00  0.00     0.210 C 
ENDBRANCH  30  34
ENDBRANCH   1  28
TORSDOF 7
ENDMDL
MODEL 2
REMARK VINA RESULT:      -9.3      2.874      4.306
REMARK  7 active torsions:
REMARK  status: ('A' for Active; 'I' for Inactive)
REMARK    1  A    between atoms: O_2  and  C_3 
REMARK    2  A    between atoms: C_5  and  N_6 
REMARK    3  A    between atoms: C_7  and  C_9 
REMARK    4  A    between atoms: C_7  and  O_8 
REMARK       I    between atoms: C_9  and  N_10 
REMARK    5  A    between atoms: N_10  and  C_11 
REMARK    6  A    between atoms: C_11  and  C_12 
REMARK    7  A    between atoms: C_12  and  C_13 
ROOT
HETATM    1  N   UNL     1      41.170 -11.696   1.397  1.00  0.00    -0.254 N 
HETATM    2  C   UNL     1      40.396 -12.948   1.195  1.00  0.00     0.256 C 
HETATM    3  C   UNL     1      40.138 -13.339  -0.245  1.00  0.00     0.034 A 
HETATM    4  C   UNL     1      40.567 -12.511  -1.264  1.00  0.00     0.048 A 
HETATM    5  N   UNL     1      41.187 -11.321  -0.936  1.00  0.00    -0.308 N 
HETATM    6  C   UNL     1      41.450 -10.865   0.317  1.00  0.00     0.330 C 
HETATM    7  O   UNL     1      41.928  -9.731   0.376  1.00  0.00    -0.246 OA
HETATM    8  C   UNL     1      39.453 -14.520  -0.585  1.00  0.00     0.015 A 
HETATM    9  C   UNL     1      39.238 -14.860  -1.922  1.00  0.00     0.001 A 
HETATM   10  C   UNL     1      39.699 -14.021  -2.933  1.00  0.00     0.002 A 
HETATM   11  C   UNL     1      40.358 -12.838  -2.605  1.00  0.00     0.030 A 
HETATM   12  H   UNL     1      41.434 -10.668  -1.669  1.00  0.00     0.170 HD
ENDROOT
BRANCH   2  13
HETATM   13  C   UNL     1      41.227 -14.155   1.849  1.00  0.00     0.279 C 
HETATM   14  N   UNL     1      42.477 -14.378   1.290  1.00  0.00    -0.356 N 
HETATM   15  H   UNL     1      42.771 -13.801   0.511  1.00  0.00     0.162 HD
HETATM   16  O   UNL     1      40.774 -14.874   2.742  1.00  0.00    -0.268 OA
BRANCH  14  17
HETATM   17  C   UNL     1      43.384 -15.400   1.776  1.00  0.00     0.127 C 
BRANCH  17  18
HETATM   18  C   UNL     1      42.977 -16.839   1.427  1.00  0.00     0.058 C 
BRANCH  18  19
HETATM   19  C   UNL     1      43.354 -17.874   2.462  1.00  0.00    -0.057 A 
HETATM   20  C   UNL     1      43.683 -17.505   3.773  1.00  0.00     0.009 A 
HETATM   21  C   UNL     1      44.011 -18.478   4.721  1.00  0.00     0.024 A 
HETATM   22  C   UNL     1      44.002 -19.824   4.365  1.00  0.00     0.034 A 
HETATM   23 CL   UNL     1      44.405 -21.022   5.533  1.00  0.00    -0.084 Cl
HETATM   24  C   UNL     1      43.662 -20.208   3.071  1.00  0.00     0.024 A 
HETATM   25  C   UNL     1      43.339 -19.236   2.123  1.00  0.00     0.009 A 
ENDBRANCH  18  19
ENDBRANCH  17  18
ENDBRANCH  14  17
ENDBRANCH   2  13
BRANCH   2  26
HETATM   26  O   UNL     1      39.096 -12.717   1.714  1.00  0.00    -0.359 OA
HETATM   27  H   UNL     1      38.644 -13.574   1.654  1.00  0.00     0.213 HD
ENDBRANCH   2  26
BRANCH   1  28
HETATM   28  C   UNL     1      41.599 -11.334   2.753  1.00  0.00     0.045 A 
HETATM   29  C   UNL     1      42.940 -11.467   3.165  1.00  0.00     0.066 A 
HETATM   30  C   UNL     1      43.367 -11.112   4.454  1.00  0.00     0.070 A 
HETATM   31  C   UNL     1      42.438 -10.653   5.381  1.00  0.00     0.037 A 
HETATM   32  C   UNL     1      41.104 -10.533   5.020  1.00  0.00     0.005 A 
HETATM   33  C   UNL     1      40.692 -10.868   3.724  1.00  0.00     0.030 A 
BRANCH  30  34
HETATM   34  O   UNL     1      44.649 -11.198   4.924  1.00  0.00    -0.356 OA
HETATM   35  C   UNL     1      44.807 -11.251   6.337  1.00  0.00     0.210 C 
ENDBRANCH  30  34
ENDBRANCH   1  28
TORSDOF 7
ENDMDL
MODEL 3
REMARK VINA RESULT:      -9.2      2.281      3.103
REMARK  7 active torsions:
REMARK  status: ('A' for Active; 'I' for Inactive)
REMARK    1  A    between atoms: O_2  and  C_3 
REMARK    2  A    between atoms: C_5  and  N_6 
REMARK    3  A    between atoms: C_7  and  C_9 
REMARK    4  A    between atoms: C_7  and  O_8 
REMARK       I    between atoms: C_9  and  N_10 
REMARK    5  A    between atoms: N_10  and  C_11 
REMARK    6  A    between atoms: C_11  and  C_12 
REMARK    7  A    between atoms: C_12  and  C_13 
ROOT
HETATM    1  N   UNL     1      41.508 -12.517   4.135  1.00  0.00    -0.254 N 
HETATM    2  C   UNL     1      40.936 -13.888   4.137  1.00  0.00     0.256 C 
HETATM    3  C   UNL     1      41.662 -14.906   3.283  1.00  0.00     0.034 A 
HETATM    4  C   UNL     1      42.746 -14.511   2.524  1.00  0.00     0.048 A 
HETATM    5  N   UNL     1      43.113 -13.180   2.534  1.00  0.00    -0.308 N 
HETATM    6  C   UNL     1      42.523 -12.184   3.245  1.00  0.00     0.330 C 
HETATM    7  O   UNL     1      42.959 -11.052   3.029  1.00  0.00    -0.246 OA
HETATM    8  C   UNL     1      41.255 -16.252   3.220  1.00  0.00     0.015 A 
HETATM    9  C   UNL     1      41.949 -17.171   2.432  1.00  0.00     0.001 A 
HETATM   10  C   UNL     1      43.053 -16.756   1.693  1.00  0.00     0.002 A 
HETATM   11  C   UNL     1      43.449 -15.420   1.730  1.00  0.00     0.030 A 
HETATM   12  H   UNL     1      43.854 -12.862   1.922  1.00  0.00     0.170 HD
ENDROOT
BRANCH   2  13
HETATM   13  C   UNL     1      40.984 -14.444   5.642  1.00  0.00     0.279 C 
HETATM   14  N   UNL     1      42.242 -14.826   6.087  1.00  0.00    -0.356 N 
HETATM   15  H   UNL     1      43.024 -14.758   5.447  1.00  0.00     0.162 HD
HETATM   16  O   UNL     1      39.976 -14.580   6.339  1.00  0.00    -0.268 OA
BRANCH  14  17
HETATM   17  C   UNL     1      42.484 -15.316   7.430  1.00  0.00     0.127 C 
BRANCH  17  18
HETATM   18  C   UNL     1      43.738 -16.189   7.579  1.00  0.00     0.058 C 
BRANCH  18  19
HETATM   19  C   UNL     1      43.818 -17.355   6.621  1.00  0.00    -0.057 A 
HETATM   20  C   UNL     1      44.423 -17.222   5.364  1.00  0.00     0.009 A 
HETATM   21  C   UNL     1      44.504 -18.316   4.498  1.00  0.00     0.024 A 
HETATM   22  C   UNL     1      43.990 -19.550   4.889  1.00  0.00     0.034 A 
HETATM   23 CL   UNL     1      44.090 -20.897   3.824  1.00  0.00    -0.084 Cl
HETATM   24  C   UNL     1      43.400 -19.702   6.141  1.00  0.00     0.024 A 
HETATM   25  C   UNL     1      43.314 -18.607   7.003  1.00  0.00     0.009 A 
ENDBRANCH  18  19
ENDBRANCH  17  18
ENDBRANCH  14  17
ENDBRANCH   2  13
BRANCH   2  26
HETATM   26  O   UNL     1      39.655 -13.801   3.533  1.00  0.00    -0.359 OA
HETATM   27  H   UNL     1      39.046 -13.599   4.260  1.00  0.00     0.213 HD
ENDBRANCH   2  26
BRANCH   1  28
HETATM   28  C   UNL     1      40.961 -11.516   5.059  1.00  0.00     0.045 A 
HETATM   29  C   UNL     1      39.664 -10.989   4.898  1.00  0.00     0.066 A 
HETATM   30  C   UNL     1      39.125 -10.043   5.782  1.00  0.00     0.070 A 
HETATM   31  C   UNL     1      39.899  -9.566   6.833  1.00  0.00     0.037 A 
HETATM   32  C   UNL     1      41.191 -10.042   7.009  1.00  0.00     0.005 A 
HETATM   33  C   UNL     1      41.712 -11.003   6.135  1.00  0.00     0.030 A 
BRANCH  30  34
HETATM   34  O   UNL     1      37.873  -9.496   5.701  1.00  0.00    -0.356 OA
HETATM   35  C   UNL     1      37.775  -8.216   5.086  1.00  0.00     0.210 C 
ENDBRANCH  30  34
ENDBRANCH   1  28
TORSDOF 7
ENDMDL
MODEL 4
REMARK VINA RESULT:      -9.0      1.160      1.745
REMARK  7 active torsions:
REMARK  status: ('A' for Active; 'I' for Inactive)
REMARK    1  A    between atoms: O_2  and  C_3 
REMARK    2  A    between atoms: C_5  and  N_6 
REMARK    3  A    between atoms: C_7  and  C_9 
REMARK    4  A    between atoms: C_7  and  O_8 
REMARK       I    between atoms: C_9  and  N_10 
REMARK    5  A    between atoms: N_10  and  C_11 
REMARK    6  A    between atoms: C_11  and  C_12 
REMARK    7  A    between atoms: C_12  and  C_13 
ROOT
HETATM    1  N   UNL     1      42.401 -12.219   4.670  1.00  0.00    -0.254 N 
HETATM    2  C   UNL     1      41.247 -13.152   4.597  1.00  0.00     0.256 C 
HETATM    3  C   UNL     1      41.178 -14.020   3.358  1.00  0.00     0.034 A 
HETATM    4  C   UNL     1      42.123 -13.864   2.362  1.00  0.00     0.048 A 
HETATM    5  N   UNL     1      43.087 -12.886   2.509  1.00  0.00    -0.308 N 
HETATM    6  C   UNL     1      43.229 -12.044   3.566  1.00  0.00     0.330 C 
HETATM    7  O   UNL     1      44.105 -11.186   3.443  1.00  0.00    -0.246 OA
HETATM    8  C   UNL     1      40.162 -14.976   3.173  1.00  0.00     0.015 A 
HETATM    9  C   UNL     1      40.129 -15.769   2.025  1.00  0.00     0.001 A 
HETATM   10  C   UNL     1      41.105 -15.610   1.045  1.00  0.00     0.002 A 
HETATM   11  C   UNL     1      42.101 -14.650   1.208  1.00  0.00     0.030 A 
HETATM   12  H   UNL     1      43.736 -12.708   1.754  1.00  0.00     0.170 HD
ENDROOT
BRANCH   2  13
HETATM   13  C   UNL     1      41.341 -14.156   5.846  1.00  0.00     0.279 C 
HETATM   14  N   UNL     1      42.436 -15.009   5.833  1.00  0.00    -0.356 N 
HETATM   15  H   UNL     1      43.075 -14.966   5.048  1.00  0.00     0.162 HD
HETATM   16  O   UNL     1      40.480 -14.213   6.726  1.00  0.00    -0.268 OA
BRANCH  14  17
HETATM   17  C   UNL     1      42.705 -15.957   6.897  1.00  0.00     0.127 C 
BRANCH  17  18
HETATM   18  C   UNL     1      43.916 -16.868   6.654  1.00  0.00     0.058 C 
BRANCH  18  19
HETATM   19  C   UNL     1      43.825 -17.727   5.414  1.00  0.00    -0.057 A 
HETATM   20  C   UNL     1      43.617 -17.159   4.149  1.00  0.00     0.009 A 
HETATM   21  C   UNL     1      43.554 -17.968   3.011  1.00  0.00     0.024 A 
HETATM   22  C   UNL     1      43.709 -19.347   3.131  1.00  0.00     0.034 A 
HETATM   23 CL   UNL     1      43.632 -20.342   1.730  1.00  0.00    -0.084 Cl
HETATM   24  C   UNL     1      43.932 -19.925   4.377  1.00  0.00     0.024 A 
HETATM   25  C   UNL     1      43.990 -19.117   5.514  1.00  0.00     0.009 A 
ENDBRANCH  18  19
ENDBRANCH  17  18
ENDBRANCH  14  17
ENDBRANCH   2  13
BRANCH   2  26
HETATM   26  O   UNL     1      40.076 -12.355   4.510  1.00  0.00    -0.359 OA
HETATM   27  H   UNL     1      40.154 -11.884   3.666  1.00  0.00     0.213 HD
ENDBRANCH   2  26
BRANCH   1  28
HETATM   28  C   UNL     1      42.628 -11.463   5.907  1.00  0.00     0.045 A 
HETATM   29  C   UNL     1      43.724 -11.735   6.750  1.00  0.00     0.066 A 
HETATM   30  C   UNL     1      43.961 -11.010   7.928  1.00  0.00     0.070 A 
HETATM   31  C   UNL     1      43.069 -10.016   8.312  1.00  0.00     0.037 A 
HETATM   32  C   UNL     1      41.964  -9.736   7.521  1.00  0.00     0.005 A 
HETATM   33  C   UNL     1      41.749 -10.449   6.335  1.00  0.00     0.030 A 
BRANCH  30  34
HETATM   34  O   UNL     1      45.007 -11.203   8.789  1.00  0.00    -0.356 OA
HETATM   35  C   UNL     1      45.322 -10.123   9.661  1.00  0.00     0.210 C 
ENDBRANCH  30  34
ENDBRANCH   1  28
TORSDOF 7
ENDMDL
MODEL 5
REMARK VINA RESULT:      -8.8      3.086      4.450
REMARK  7 active torsions:
REMARK  status: ('A' for Active; 'I' for Inactive)
REMARK    1  A    between atoms: O_2  and  C_3 
REMARK    2  A    between atoms: C_5  and  N_6 
REMARK    3  A    between atoms: C_7  and  C_9 
REMARK    4  A    between atoms: C_7  and  O_8 
REMARK       I    between atoms: C_9  and  N_10 
REMARK    5  A    between atoms: N_10  and  C_11 
REMARK    6  A    between atoms: C_11  and  C_12 
REMARK    7  A    between atoms: C_12  and  C_13 
ROOT
HETATM    1  N   UNL     1      40.789 -12.117   1.640  1.00  0.00    -0.254 N 
HETATM    2  C   UNL     1      39.982 -13.189   1.004  1.00  0.00     0.256 C 
HETATM    3  C   UNL     1      39.966 -13.194  -0.510  1.00  0.00     0.034 A 
HETATM    4  C   UNL     1      40.630 -12.199  -1.202  1.00  0.00     0.048 A 
HETATM    5  N   UNL     1      41.259 -11.199  -0.487  1.00  0.00    -0.308 N 
HETATM    6  C   UNL     1      41.319 -11.089   0.867  1.00  0.00     0.330 C 
HETATM    7  O   UNL     1      41.855 -10.063   1.289  1.00  0.00    -0.246 OA
HETATM    8  C   UNL     1      39.275 -14.174  -1.246  1.00  0.00     0.015 A 
HETATM    9  C   UNL     1      39.286 -14.159  -2.641  1.00  0.00     0.001 A 
HETATM   10  C   UNL     1      39.981 -13.160  -3.318  1.00  0.00     0.002 A 
HETATM   11  C   UNL     1      40.648 -12.171  -2.598  1.00  0.00     0.030 A 
HETATM   12  H   UNL     1      41.681 -10.422  -0.979  1.00  0.00     0.170 HD
ENDROOT
BRANCH   2  13
HETATM   13  C   UNL     1      40.595 -14.604   1.453  1.00  0.00     0.279 C 
HETATM   14  N   UNL     1      41.915 -14.816   1.084  1.00  0.00    -0.356 N 
HETATM   15  H   UNL     1      42.390 -14.099   0.547  1.00  0.00     0.162 HD
HETATM   16  O   UNL     1      39.932 -15.467   2.032  1.00  0.00    -0.268 OA
BRANCH  14  17
HETATM   17  C   UNL     1      42.645 -16.018   1.435  1.00  0.00     0.127 C 
BRANCH  17  18
HETATM   18  C   UNL     1      43.376 -15.955   2.783  1.00  0.00     0.058 C 
BRANCH  18  19
HETATM   19  C   UNL     1      43.603 -17.294   3.446  1.00  0.00    -0.057 A 
HETATM   20  C   UNL     1      43.681 -17.411   4.840  1.00  0.00     0.009 A 
HETATM   21  C   UNL     1      43.872 -18.660   5.437  1.00  0.00     0.024 A 
HETATM   22  C   UNL     1      43.978 -19.799   4.642  1.00  0.00     0.034 A 
HETATM   23 CL   UNL     1      44.214 -21.338   5.376  1.00  0.00    -0.084 Cl
HETATM   24  C   UNL     1      43.887 -19.702   3.257  1.00  0.00     0.024 A 
HETATM   25  C   UNL     1      43.701 -18.453   2.661  1.00  0.00     0.009 A 
ENDBRANCH  18  19
ENDBRANCH  17  18
ENDBRANCH  14  17
ENDBRANCH   2  13
BRANCH   2  26
HETATM   26  O   UNL     1      38.627 -12.946   1.350  1.00  0.00    -0.359 OA
HETATM   27  H   UNL     1      38.188 -13.807   1.273  1.00  0.00     0.213 HD
ENDBRANCH   2  26
BRANCH   1  28
HETATM   28  C   UNL     1      40.987 -12.140   3.094  1.00  0.00     0.045 A 
HETATM   29  C   UNL     1      39.928 -11.890   3.990  1.00  0.00     0.066 A 
HETATM   30  C   UNL     1      40.101 -11.924   5.381  1.00  0.00     0.070 A 
HETATM   31  C   UNL     1      41.362 -12.169   5.911  1.00  0.00     0.037 A 
HETATM   32  C   UNL     1      42.435 -12.395   5.060  1.00  0.00     0.005 A 
HETATM   33  C   UNL     1      42.248 -12.382   3.673  1.00  0.00     0.030 A 
BRANCH  30  34
HETATM   34  O   UNL     1      39.123 -11.706   6.314  1.00  0.00    -0.356 OA
HETATM   35  C   UNL     1      39.309 -10.597   7.186  1.00  0.00     0.210 C 
ENDBRANCH  30  34
ENDBRANCH   1  28
TORSDOF 7
ENDMDL
MODEL 6
REMARK VINA RESULT:      -8.7      3.725      6.744
REMARK  7 active torsions:
REMARK  status: ('A' for Active; 'I' for Inactive)
REMARK    1  A    between atoms: O_2  and  C_3 
REMARK    2  A    between atoms: C_5  and  N_6 
REMARK    3  A    between atoms: C_7  and  C_9 
REMARK    4  A    between atoms: C_7  and  O_8 
REMARK       I    between atoms: C_9  and  N_10 
REMARK    5  A    between atoms: N_10  and  C_11 
REMARK    6  A    between atoms: C_11  and  C_12 
REMARK    7  A    between atoms: C_12  and  C_13 
ROOT
HETATM    1  N   UNL     1      42.720 -14.433   3.927  1.00  0.00    -0.254 N 
HETATM    2  C   UNL     1      42.761 -15.421   2.819  1.00  0.00     0.256 C 
HETATM    3  C   UNL     1      43.213 -16.816   3.196  1.00  0.00     0.034 A 
HETATM    4  C   UNL     1      43.610 -17.077   4.494  1.00  0.00     0.048 A 
HETATM    5  N   UNL     1      43.622 -16.040   5.405  1.00  0.00    -0.308 N 
HETATM    6  C   UNL     1      43.256 -14.753   5.170  1.00  0.00     0.330 C 
HETATM    7  O   UNL     1      43.435 -13.973   6.107  1.00  0.00    -0.246 OA
HETATM    8  C   UNL     1      43.264 -17.863   2.257  1.00  0.00     0.015 A 
HETATM    9  C   UNL     1      43.675 -19.142   2.636  1.00  0.00     0.001 A 
HETATM   10  C   UNL     1      44.049 -19.387   3.954  1.00  0.00     0.002 A 
HETATM   11  C   UNL     1      44.025 -18.351   4.886  1.00  0.00     0.030 A 
HETATM   12  H   UNL     1      43.985 -16.198   6.337  1.00  0.00     0.170 HD
ENDROOT
BRANCH   2  13
HETATM   13  C   UNL     1      41.274 -15.572   2.233  1.00  0.00     0.279 C 
HETATM   14  N   UNL     1      41.100 -15.092   0.943  1.00  0.00    -0.356 N 
HETATM   15  H   UNL     1      41.890 -14.666   0.473  1.00  0.00     0.162 HD
HETATM   16  O   UNL     1      40.337 -16.024   2.894  1.00  0.00    -0.268 OA
BRANCH  14  17
HETATM   17  C   UNL     1      39.836 -15.178   0.238  1.00  0.00     0.127 C 
BRANCH  17  18
HETATM   18  C   UNL     1      39.733 -14.287  -1.007  1.00  0.00     0.058 C 
BRANCH  18  19
HETATM   19  C   UNL     1      39.877 -12.806  -0.742  1.00  0.00    -0.057 A 
HETATM   20  C   UNL     1      40.972 -12.082  -1.234  1.00  0.00     0.009 A 
HETATM   21  C   UNL     1      41.078 -10.709  -0.994  1.00  0.00     0.024 A 
HETATM   22  C   UNL     1      40.086 -10.052  -0.270  1.00  0.00     0.034 A 
HETATM   23 CL   UNL     1      40.218  -8.362   0.025  1.00  0.00    -0.084 Cl
HETATM   24  C   UNL     1      38.985 -10.754   0.212  1.00  0.00     0.024 A 
HETATM   25  C   UNL     1      38.882 -12.126  -0.023  1.00  0.00     0.009 A 
ENDBRANCH  18  19
ENDBRANCH  17  18
ENDBRANCH  14  17
ENDBRANCH   2  13
BRANCH   2  26
HETATM   26  O   UNL     1      43.760 -14.982   1.911  1.00  0.00    -0.359 OA
HETATM   27  H   UNL     1      43.305 -14.893   1.060  1.00  0.00     0.213 HD
ENDBRANCH   2  26
BRANCH   1  28
HETATM   28  C   UNL     1      42.141 -13.107   3.678  1.00  0.00     0.045 A 
HETATM   29  C   UNL     1      40.854 -12.763   4.138  1.00  0.00     0.066 A 
HETATM   30  C   UNL     1      40.295 -11.495   3.919  1.00  0.00     0.070 A 
HETATM   31  C   UNL     1      41.004 -10.549   3.188  1.00  0.00     0.037 A 
HETATM   32  C   UNL     1      42.264 -10.860   2.696  1.00  0.00     0.005 A 
HETATM   33  C   UNL     1      42.823 -12.120   2.940  1.00  0.00     0.030 A 
BRANCH  30  34
HETATM   34  O   UNL     1      39.062 -11.081   4.345  1.00  0.00    -0.356 OA
HETATM   35  C   UNL     1      38.643  -9.788   3.922  1.00  0.00     0.210 C 
ENDBRANCH  30  34
ENDBRANCH   1  28
TORSDOF 7
ENDMDL
MODEL 7
REMARK VINA RESULT:      -8.4      3.445      6.338
REMARK  7 active torsions:
REMARK  status: ('A' for Active; 'I' for Inactive)
REMARK    1  A    between atoms: O_2  and  C_3 
REMARK    2  A    between atoms: C_5  and  N_6 
REMARK    3  A    between atoms: C_7  and  C_9 
REMARK    4  A    between atoms: C_7  and  O_8 
REMARK       I    between atoms: C_9  and  N_10 
REMARK    5  A    between atoms: N_10  and  C_11 
REMARK    6  A    between atoms: C_11  and  C_12 
REMARK    7  A    between atoms: C_12  and  C_13 
ROOT
HETATM    1  N   UNL     1      42.425 -15.179   5.626  1.00  0.00    -0.254 N 
HETATM    2  C   UNL     1      42.611 -15.715   4.253  1.00  0.00     0.256 C 
HETATM    3  C   UNL     1      43.140 -17.131   4.164  1.00  0.00     0.034 A 
HETATM    4  C   UNL     1      43.470 -17.810   5.322  1.00  0.00     0.048 A 
HETATM    5  N   UNL     1      43.345 -17.158   6.532  1.00  0.00    -0.308 N 
HETATM    6  C   UNL     1      42.901 -15.888   6.724  1.00  0.00     0.330 C 
HETATM    7  O   UNL     1      42.960 -15.477   7.884  1.00  0.00    -0.246 OA
HETATM    8  C   UNL     1      43.329 -17.781   2.930  1.00  0.00     0.015 A 
HETATM    9  C   UNL     1      43.809 -19.091   2.880  1.00  0.00     0.001 A 
HETATM   10  C   UNL     1      44.113 -19.763   4.059  1.00  0.00     0.002 A 
HETATM   11  C   UNL     1      43.952 -19.120   5.285  1.00  0.00     0.030 A 
HETATM   12  H   UNL     1      43.657 -17.613   7.380  1.00  0.00     0.170 HD
ENDROOT
BRANCH   2  13
HETATM   13  C   UNL     1      41.180 -15.722   3.524  1.00  0.00     0.279 C 
HETATM   14  N   UNL     1      41.060 -14.840   2.460  1.00  0.00    -0.356 N 
HETATM   15  H   UNL     1      41.847 -14.246   2.230  1.00  0.00     0.162 HD
HETATM   16  O   UNL     1      40.235 -16.412   3.911  1.00  0.00    -0.268 OA
BRANCH  14  17
HETATM   17  C   UNL     1      39.855 -14.735   1.660  1.00  0.00     0.127 C 
BRANCH  17  18
HETATM   18  C   UNL     1      40.050 -15.017   0.164  1.00  0.00     0.058 C 
BRANCH  18  19
HETATM   19  C   UNL     1      39.800 -13.835  -0.743  1.00  0.00    -0.057 A 
HETATM   20  C   UNL     1      40.565 -12.665  -0.641  1.00  0.00     0.009 A 
HETATM   21  C   UNL     1      40.332 -11.588  -1.501  1.00  0.00     0.024 A 
HETATM   22  C   UNL     1      39.339 -11.680  -2.473  1.00  0.00     0.034 A 
HETATM   23 CL   UNL     1      39.051 -10.354  -3.532  1.00  0.00    -0.084 Cl
HETATM   24  C   UNL     1      38.580 -12.840  -2.597  1.00  0.00     0.024 A 
HETATM   25  C   UNL     1      38.810 -13.913  -1.735  1.00  0.00     0.009 A 
ENDBRANCH  18  19
ENDBRANCH  17  18
ENDBRANCH  14  17
ENDBRANCH   2  13
BRANCH   2  26
HETATM   26  O   UNL     1      43.631 -14.941   3.642  1.00  0.00    -0.359 OA
HETATM   27  H   UNL     1      44.261 -15.588   3.288  1.00  0.00     0.213 HD
ENDBRANCH   2  26
BRANCH   1  28
HETATM   28  C   UNL     1      41.766 -13.879   5.799  1.00  0.00     0.045 A 
HETATM   29  C   UNL     1      42.488 -12.670   5.748  1.00  0.00     0.066 A 
HETATM   30  C   UNL     1      41.869 -11.420   5.898  1.00  0.00     0.070 A 
HETATM   31  C   UNL     1      40.503 -11.357   6.149  1.00  0.00     0.037 A 
HETATM   32  C   UNL     1      39.762 -12.528   6.232  1.00  0.00     0.005 A 
HETATM   33  C   UNL     1      40.386 -13.769   6.058  1.00  0.00     0.030 A 
BRANCH  30  34
HETATM   34  O   UNL     1      42.497 -10.205   5.847  1.00  0.00    -0.356 OA
HETATM   35  C   UNL     1      42.539  -9.459   7.058  1.00  0.00     0.210 C 
ENDBRANCH  30  34
ENDBRANCH   1  28
TORSDOF 7
ENDMDL
MODEL 8
REMARK VINA RESULT:      -8.4      4.020      7.158
REMARK  7 active torsions:
REMARK  status: ('A' for Active; 'I' for Inactive)
REMARK    1  A    between atoms: O_2  and  C_3 
REMARK    2  A    between atoms: C_5  and  N_6 
REMARK    3  A    between atoms: C_7  and  C_9 
REMARK    4  A    between atoms: C_7  and  O_8 
REMARK       I    between atoms: C_9  and  N_10 
REMARK    5  A    between atoms: N_10  and  C_11 
REMARK    6  A    between atoms: C_11  and  C_12 
REMARK    7  A    between atoms: C_12  and  C_13 
ROOT
HETATM    1  N   UNL     1      42.235 -13.823   3.363  1.00  0.00    -0.254 N 
HETATM    2  C   UNL     1      42.399 -14.960   2.420  1.00  0.00     0.256 C 
HETATM    3  C   UNL     1      42.985 -16.226   3.009  1.00  0.00     0.034 A 
HETATM    4  C   UNL     1      43.382 -16.243   4.333  1.00  0.00     0.048 A 
HETATM    5  N   UNL     1      43.269 -15.083   5.074  1.00  0.00    -0.308 N 
HETATM    6  C   UNL     1      42.777 -13.892   4.642  1.00  0.00     0.330 C 
HETATM    7  O   UNL     1      42.857 -12.965   5.449  1.00  0.00    -0.246 OA
HETATM    8  C   UNL     1      43.161 -17.392   2.242  1.00  0.00     0.015 A 
HETATM    9  C   UNL     1      43.695 -18.548   2.814  1.00  0.00     0.001 A 
HETATM   10  C   UNL     1      44.066 -18.549   4.156  1.00  0.00     0.002 A 
HETATM   11  C   UNL     1      43.918 -17.391   4.917  1.00  0.00     0.030 A 
HETATM   12  H   UNL     1      43.628 -15.058   6.019  1.00  0.00     0.170 HD
ENDROOT
BRANCH   2  13
HETATM   13  C   UNL     1      40.947 -15.353   1.860  1.00  0.00     0.279 C 
HETATM   14  N   UNL     1      40.701 -14.974   0.548  1.00  0.00    -0.356 N 
HETATM   15  H   UNL     1      41.420 -14.465   0.047  1.00  0.00     0.162 HD
HETATM   16  O   UNL     1      40.086 -15.898   2.553  1.00  0.00    -0.268 OA
BRANCH  14  17
HETATM   17  C   UNL     1      39.461 -15.278  -0.138  1.00  0.00     0.127 C 
BRANCH  17  18
HETATM   18  C   UNL     1      39.450 -14.926  -1.632  1.00  0.00     0.058 C 
BRANCH  18  19
HETATM   19  C   UNL     1      39.757 -13.481  -1.947  1.00  0.00    -0.057 A 
HETATM   20  C   UNL     1      39.089 -12.436  -1.293  1.00  0.00     0.009 A 
HETATM   21  C   UNL     1      39.399 -11.105  -1.584  1.00  0.00     0.024 A 
HETATM   22  C   UNL     1      40.384 -10.812  -2.524  1.00  0.00     0.034 A 
HETATM   23 CL   UNL     1      40.765  -9.173  -2.883  1.00  0.00    -0.084 Cl
HETATM   24  C   UNL     1      41.067 -11.838  -3.171  1.00  0.00     0.024 A 
HETATM   25  C   UNL     1      40.754 -13.167  -2.884  1.00  0.00     0.009 A 
ENDBRANCH  18  19
ENDBRANCH  17  18
ENDBRANCH  14  17
ENDBRANCH   2  13
BRANCH   2  26
HETATM   26  O   UNL     1      43.365 -14.562   1.459  1.00  0.00    -0.359 OA
HETATM   27  H   UNL     1      43.373 -15.275   0.801  1.00  0.00     0.213 HD
ENDBRANCH   2  26
BRANCH   1  28
HETATM   28  C   UNL     1      41.527 -12.620   2.911  1.00  0.00     0.045 A 
HETATM   29  C   UNL     1      42.096 -11.733   1.975  1.00  0.00     0.066 A 
HETATM   30  C   UNL     1      41.425 -10.587   1.525  1.00  0.00     0.070 A 
HETATM   31  C   UNL     1      40.172 -10.278   2.042  1.00  0.00     0.037 A 
HETATM   32  C   UNL     1      39.590 -11.113   2.984  1.00  0.00     0.005 A 
HETATM   33  C   UNL     1      40.258 -12.267   3.411  1.00  0.00     0.030 A 
BRANCH  30  34
HETATM   34  O   UNL     1      41.903  -9.688   0.610  1.00  0.00    -0.356 OA
HETATM   35  C   UNL     1      41.186  -8.464   0.486  1.00  0.00     0.210 C 
ENDBRANCH  30  34
ENDBRANCH   1  28
TORSDOF 7
ENDMDL
MODEL 9
REMARK VINA RESULT:      -8.3      2.577      5.555
REMARK  7 active torsions:
REMARK  status: ('A' for Active; 'I' for Inactive)
REMARK    1  A    between atoms: O_2  and  C_3 
REMARK    2  A    between atoms: C_5  and  N_6 
REMARK    3  A    between atoms: C_7  and  C_9 
REMARK    4  A    between atoms: C_7  and  O_8 
REMARK       I    between atoms: C_9  and  N_10 
REMARK    5  A    between atoms: N_10  and  C_11 
REMARK    6  A    between atoms: C_11  and  C_12 
REMARK    7  A    between atoms: C_12  and  C_13 
ROOT
HETATM    1  N   UNL     1      41.455 -10.868   4.344  1.00  0.00    -0.254 N 
HETATM    2  C   UNL     1      42.843 -11.396   4.374  1.00  0.00     0.256 C 
HETATM    3  C   UNL     1      43.626 -11.121   5.641  1.00  0.00     0.034 A 
HETATM    4  C   UNL     1      43.053 -10.366   6.647  1.00  0.00     0.048 A 
HETATM    5  N   UNL     1      41.789  -9.847   6.449  1.00  0.00    -0.308 N 
HETATM    6  C   UNL     1      41.009 -10.015   5.349  1.00  0.00     0.330 C 
HETATM    7  O   UNL     1      39.952  -9.382   5.350  1.00  0.00    -0.246 OA
HETATM    8  C   UNL     1      44.938 -11.595   5.823  1.00  0.00     0.015 A 
HETATM    9  C   UNL     1      45.633 -11.334   7.006  1.00  0.00     0.001 A 
HETATM   10  C   UNL     1      45.028 -10.591   8.015  1.00  0.00     0.002 A 
HETATM   11  C   UNL     1      43.737 -10.097   7.833  1.00  0.00     0.030 A 
HETATM   12  H   UNL     1      41.390  -9.227   7.142  1.00  0.00     0.170 HD
ENDROOT
BRANCH   2  13
HETATM   13  C   UNL     1      42.769 -12.993   4.227  1.00  0.00     0.279 C 
HETATM   14  N   UNL     1      42.242 -13.660   5.324  1.00  0.00    -0.356 N 
HETATM   15  H   UNL     1      41.968 -13.119   6.135  1.00  0.00     0.162 HD
HETATM   16  O   UNL     1      43.200 -13.596   3.242  1.00  0.00    -0.268 OA
BRANCH  14  17
HETATM   17  C   UNL     1      42.063 -15.099   5.356  1.00  0.00     0.127 C 
BRANCH  17  18
HETATM   18  C   UNL     1      43.363 -15.905   5.473  1.00  0.00     0.058 C 
BRANCH  18  19
HETATM   19  C   UNL     1      43.478 -17.067   4.513  1.00  0.00    -0.057 A 
HETATM   20  C   UNL     1      44.105 -18.263   4.890  1.00  0.00     0.009 A 
HETATM   21  C   UNL     1      44.186 -19.333   3.995  1.00  0.00     0.024 A 
HETATM   22  C   UNL     1      43.633 -19.216   2.722  1.00  0.00     0.034 A 
HETATM   23 CL   UNL     1      43.733 -20.533   1.620  1.00  0.00    -0.084 Cl
HETATM   24  C   UNL     1      42.994 -18.041   2.338  1.00  0.00     0.024 A 
HETATM   25  C   UNL     1      42.917 -16.970   3.230  1.00  0.00     0.009 A 
ENDBRANCH  18  19
ENDBRANCH  17  18
ENDBRANCH  14  17
ENDBRANCH   2  13
BRANCH   2  26
HETATM   26  O   UNL     1      43.571 -10.699   3.375  1.00  0.00    -0.359 OA
HETATM   27  H   UNL     1      43.770  -9.834   3.765  1.00  0.00     0.213 HD
ENDBRANCH   2  26
BRANCH   1  28
HETATM   28  C   UNL     1      40.579 -11.230   3.224  1.00  0.00     0.045 A 
HETATM   29  C   UNL     1      40.738 -10.661   1.945  1.00  0.00     0.066 A 
HETATM   30  C   UNL     1      39.917 -11.009   0.862  1.00  0.00     0.070 A 
HETATM   31  C   UNL     1      38.878 -11.913   1.052  1.00  0.00     0.037 A 
HETATM   32  C   UNL     1      38.673 -12.475   2.303  1.00  0.00     0.005 A 
HETATM   33  C   UNL     1      39.513 -12.139   3.372  1.00  0.00     0.030 A 
BRANCH  30  34
HETATM   34  O   UNL     1      40.018 -10.513  -0.410  1.00  0.00    -0.356 OA
HETATM   35  C   UNL     1      41.172  -9.731  -0.699  1.00  0.00     0.210 C 
ENDBRANCH  30  34
ENDBRANCH   1  28
TORSDOF 7
ENDMDL
MODEL 10
REMARK VINA RESULT:      -8.2      3.721      7.349
REMARK  7 active torsions:
REMARK  status: ('A' for Active; 'I' for Inactive)
REMARK    1  A    between atoms: O_2  and  C_3 
REMARK    2  A    between atoms: C_5  and  N_6 
REMARK    3  A    between atoms: C_7  and  C_9 
REMARK    4  A    between atoms: C_7  and  O_8 
REMARK       I    between atoms: C_9  and  N_10 
REMARK    5  A    between atoms: N_10  and  C_11 
REMARK    6  A    between atoms: C_11  and  C_12 
REMARK    7  A    between atoms: C_12  and  C_13 
ROOT
HETATM    1  N   UNL     1      41.153 -14.558   3.247  1.00  0.00    -0.254 N 
HETATM    2  C   UNL     1      41.643 -13.168   3.436  1.00  0.00     0.256 C 
HETATM    3  C   UNL     1      40.628 -12.072   3.188  1.00  0.00     0.034 A 
HETATM    4  C   UNL     1      39.358 -12.403   2.755  1.00  0.00     0.048 A 
HETATM    5  N   UNL     1      39.063 -13.731   2.519  1.00  0.00    -0.308 N 
HETATM    6  C   UNL     1      39.900 -14.788   2.690  1.00  0.00     0.330 C 
HETATM    7  O   UNL     1      39.454 -15.879   2.328  1.00  0.00    -0.246 OA
HETATM    8  C   UNL     1      40.941 -10.712   3.367  1.00  0.00     0.015 A 
HETATM    9  C   UNL     1      39.981  -9.724   3.140  1.00  0.00     0.001 A 
HETATM   10  C   UNL     1      38.702 -10.082   2.726  1.00  0.00     0.002 A 
HETATM   11  C   UNL     1      38.390 -11.425   2.523  1.00  0.00     0.030 A 
HETATM   12  H   UNL     1      38.165 -13.981   2.126  1.00  0.00     0.170 HD
ENDROOT
BRANCH   2  13
HETATM   13  C   UNL     1      42.113 -13.011   4.963  1.00  0.00     0.279 C 
HETATM   14  N   UNL     1      43.475 -12.820   5.141  1.00  0.00    -0.356 N 
HETATM   15  H   UNL     1      44.076 -12.817   4.325  1.00  0.00     0.162 HD
HETATM   16  O   UNL     1      41.337 -13.110   5.916  1.00  0.00    -0.268 OA
BRANCH  14  17
HETATM   17  C   UNL     1      44.076 -12.621   6.446  1.00  0.00     0.127 C 
BRANCH  17  18
HETATM   18  C   UNL     1      44.798 -11.278   6.623  1.00  0.00     0.058 C 
BRANCH  18  19
HETATM   19  C   UNL     1      44.521 -10.575   7.932  1.00  0.00    -0.057 A 
HETATM   20  C   UNL     1      43.244 -10.085   8.238  1.00  0.00     0.009 A 
HETATM   21  C   UNL     1      43.001  -9.455   9.461  1.00  0.00     0.024 A 
HETATM   22  C   UNL     1      44.032  -9.319  10.387  1.00  0.00     0.034 A 
HETATM   23 CL   UNL     1      43.734  -8.542  11.893  1.00  0.00    -0.084 Cl
HETATM   24  C   UNL     1      45.302  -9.814  10.105  1.00  0.00     0.024 A 
HETATM   25  C   UNL     1      45.545 -10.439   8.881  1.00  0.00     0.009 A 
ENDBRANCH  18  19
ENDBRANCH  17  18
ENDBRANCH  14  17
ENDBRANCH   2  13
BRANCH   2  26
HETATM   26  O   UNL     1      42.629 -12.939   2.441  1.00  0.00    -0.359 OA
HETATM   27  H   UNL     1      42.421 -13.566   1.732  1.00  0.00     0.213 HD
ENDBRANCH   2  26
BRANCH   1  28
HETATM   28  C   UNL     1      42.025 -15.677   3.623  1.00  0.00     0.045 A 
HETATM   29  C   UNL     1      42.124 -16.125   4.955  1.00  0.00     0.066 A 
HETATM   30  C   UNL     1      42.942 -17.202   5.326  1.00  0.00     0.070 A 
HETATM   31  C   UNL     1      43.722 -17.833   4.363  1.00  0.00     0.037 A 
HETATM   32  C   UNL     1      43.672 -17.404   3.045  1.00  0.00     0.005 A 
HETATM   33  C   UNL     1      42.835 -16.343   2.681  1.00  0.00     0.030 A 
BRANCH  30  34
HETATM   34  O   UNL     1      43.080 -17.704   6.591  1.00  0.00    -0.356 OA
HETATM   35  C   UNL     1      43.780 -16.890   7.526  1.00  0.00     0.210 C 
ENDBRANCH  30  34
ENDBRANCH   1  28
TORSDOF 7
ENDMDL
